MODEL 1
REMARK VINA RESULT:    -7.183      0.000      0.000
REMARK INTER + INTRA:          -9.733
REMARK INTER:                  -9.072
REMARK INTRA:                  -0.661
REMARK UNBOUND:                -0.661
REMARK  Name = 
REMARK  5 active torsions:
REMARK  status: ('A' for Active; 'I' for Inactive)
REMARK    1  A    between atoms: N_1  and  C_2
REMARK    2  A    between atoms: C_2  and  C_3
REMARK    3  A    between atoms: C_6  and  C_7
REMARK    4  A    between atoms: C_7  and  N_8
REMARK    5  A    between atoms: C_13  and  C_14
REMARK                            x       y       z     vdW  Elec       q    Type
REMARK                         _______ _______ _______ _____ _____    ______ ____
ROOT
ATOM      1  N   UNL     1      44.607   5.059  10.618  0.00  0.00    +0.000 N 
ATOM      2  C   UNL     1      43.863   4.101  11.268  0.00  0.00    +0.000 A 
ATOM      3  C   UNL     1      44.125   2.886  10.675  0.00  0.00    +0.000 A 
ATOM      4  C   UNL     1      44.990   3.124   9.577  0.00  0.00    +0.000 A 
ATOM      5  C   UNL     1      45.569   2.315   8.585  0.00  0.00    +0.000 A 
ATOM      6  C   UNL     1      46.344   2.938   7.603  0.00  0.00    +0.000 A 
ATOM      7  C   UNL     1      46.528   4.319   7.685  0.00  0.00    +0.000 A 
ATOM      8  N   UNL     1      46.020   5.143   8.644  0.00  0.00    +0.000 NA
ATOM      9  C   UNL     1      45.258   4.492   9.548  0.00  0.00    +0.000 A 
ENDROOT
BRANCH   6  10
ATOM     10  C   UNL     1      46.959   2.208   6.468  0.00  0.00    +0.000 C 
ATOM     11  N   UNL     1      47.330   2.915   5.356  0.00  0.00    +0.000 N 
ATOM     12  O   UNL     1      47.150   0.999   6.515  0.00  0.00    +0.000 OA
ATOM     13  H   UNL     1      47.235   3.910   5.235  0.00  0.00    +0.000 HD
ATOM     14  H   UNL     1      47.770   2.393   4.608  0.00  0.00    +0.000 HD
ENDBRANCH   6  10
BRANCH   1  15
ATOM     15  C   UNL     1      44.690   6.456  11.026  0.00  0.00    +0.000 C 
BRANCH  15  19
ATOM     16  C   UNL     1      47.732   8.494  12.202  0.00  0.00    +0.000 C 
ATOM     17  C   UNL     1      47.771   7.040  11.701  0.00  0.00    +0.000 C 
ATOM     18  C   UNL     1      46.801   6.136  12.458  0.00  0.00    +0.000 C 
ATOM     19  C   UNL     1      45.351   6.650  12.411  0.00  0.00    +0.000 C 
ATOM     20  C   UNL     1      45.285   8.119  12.866  0.00  0.00    +0.000 C 
ATOM     21  C   UNL     1      46.288   9.024  12.149  0.00  0.00    +0.000 C 
BRANCH  16  22
ATOM     22  C   UNL     1      48.336   8.663  13.613  0.00  0.00    +0.000 C 
BRANCH  22  23
ATOM     23  N   UNL     1      48.139  10.013  14.130  0.00  0.00    +0.000 NA
ATOM     24  H   UNL     1      48.847  10.635  13.743  0.00  0.00    +0.000 HD
ATOM     25  H   UNL     1      48.272  10.016  15.141  0.00  0.00    +0.000 HD
ENDBRANCH  22  23
ENDBRANCH  16  22
ENDBRANCH  15  19
ENDBRANCH   1  15
TORSDOF 5
ENDMDL
MODEL 2
REMARK VINA RESULT:    -5.888      4.667      6.149
REMARK INTER + INTRA:          -8.098
REMARK INTER:                  -7.656
REMARK INTRA:                  -0.441
REMARK UNBOUND:                -0.661
REMARK  Name = 
REMARK  5 active torsions:
REMARK  status: ('A' for Active; 'I' for Inactive)
REMARK    1  A    between atoms: N_1  and  C_2
REMARK    2  A    between atoms: C_2  and  C_3
REMARK    3  A    between atoms: C_6  and  C_7
REMARK    4  A    between atoms: C_7  and  N_8
REMARK    5  A    between atoms: C_13  and  C_14
REMARK                            x       y       z     vdW  Elec       q    Type
REMARK                         _______ _______ _______ _____ _____    ______ ____
ROOT
ATOM      1  N   UNL     1      47.460   5.383  14.602  0.00  0.00    +0.000 N 
ATOM      2  C   UNL     1      48.036   6.557  14.176  0.00  0.00    +0.000 A 
ATOM      3  C   UNL     1      47.492   6.878  12.952  0.00  0.00    +0.000 A 
ATOM      4  C   UNL     1      46.620   5.823  12.582  0.00  0.00    +0.000 A 
ATOM      5  C   UNL     1      45.822   5.552  11.459  0.00  0.00    +0.000 A 
ATOM      6  C   UNL     1      45.125   4.342  11.428  0.00  0.00    +0.000 A 
ATOM      7  C   UNL     1      45.231   3.491  12.530  0.00  0.00    +0.000 A 
ATOM      8  N   UNL     1      45.960   3.721  13.657  0.00  0.00    +0.000 NA
ATOM      9  C   UNL     1      46.635   4.889  13.618  0.00  0.00    +0.000 A 
ENDROOT
BRANCH   6  10
ATOM     10  C   UNL     1      44.297   3.909  10.276  0.00  0.00    +0.000 C 
ATOM     11  N   UNL     1      44.254   4.705   9.162  0.00  0.00    +0.000 N 
ATOM     12  O   UNL     1      43.671   2.857  10.300  0.00  0.00    +0.000 OA
ATOM     13  H   UNL     1      44.750   5.571   9.041  0.00  0.00    +0.000 HD
ATOM     14  H   UNL     1      43.700   4.370   8.383  0.00  0.00    +0.000 HD
ENDBRANCH   6  10
BRANCH   1  15
ATOM     15  C   UNL     1      47.690   4.776  15.907  0.00  0.00    +0.000 C 
BRANCH  15  19
ATOM     16  C   UNL     1      48.628   4.656  19.634  0.00  0.00    +0.000 C 
ATOM     17  C   UNL     1      47.586   5.598  19.005  0.00  0.00    +0.000 C 
ATOM     18  C   UNL     1      48.157   6.404  17.841  0.00  0.00    +0.000 C 
ATOM     19  C   UNL     1      48.764   5.512  16.743  0.00  0.00    +0.000 C 
ATOM     20  C   UNL     1      49.779   4.526  17.348  0.00  0.00    +0.000 C 
ATOM     21  C   UNL     1      49.233   3.750  18.547  0.00  0.00    +0.000 C 
BRANCH  16  22
ATOM     22  C   UNL     1      49.731   5.408  20.411  0.00  0.00    +0.000 C 
BRANCH  22  23
ATOM     23  N   UNL     1      50.784   4.507  20.866  0.00  0.00    +0.000 NA
ATOM     24  H   UNL     1      51.263   4.106  20.062  0.00  0.00    +0.000 HD
ATOM     25  H   UNL     1      50.371   3.727  21.377  0.00  0.00    +0.000 HD
ENDBRANCH  22  23
ENDBRANCH  16  22
ENDBRANCH  15  19
ENDBRANCH   1  15
TORSDOF 5
ENDMDL
MODEL 3
REMARK VINA RESULT:    -5.878      4.922      8.317
REMARK INTER + INTRA:          -8.085
REMARK INTER:                  -7.585
REMARK INTRA:                  -0.499
REMARK UNBOUND:                -0.661
REMARK  Name = 
REMARK  5 active torsions:
REMARK  status: ('A' for Active; 'I' for Inactive)
REMARK    1  A    between atoms: N_1  and  C_2
REMARK    2  A    between atoms: C_2  and  C_3
REMARK    3  A    between atoms: C_6  and  C_7
REMARK    4  A    between atoms: C_7  and  N_8
REMARK    5  A    between atoms: C_13  and  C_14
REMARK                            x       y       z     vdW  Elec       q    Type
REMARK                         _______ _______ _______ _____ _____    ______ ____
ROOT
ATOM      1  N   UNL     1      48.112   6.541  14.258  0.00  0.00    +0.000 N 
ATOM      2  C   UNL     1      48.529   7.845  14.391  0.00  0.00    +0.000 A 
ATOM      3  C   UNL     1      49.095   7.985  15.639  0.00  0.00    +0.000 A 
ATOM      4  C   UNL     1      48.941   6.750  16.319  0.00  0.00    +0.000 A 
ATOM      5  C   UNL     1      49.268   6.284  17.603  0.00  0.00    +0.000 A 
ATOM      6  C   UNL     1      48.894   4.982  17.941  0.00  0.00    +0.000 A 
ATOM      7  C   UNL     1      48.253   4.207  16.973  0.00  0.00    +0.000 A 
ATOM      8  N   UNL     1      47.946   4.596  15.705  0.00  0.00    +0.000 NA
ATOM      9  C   UNL     1      48.304   5.871  15.444  0.00  0.00    +0.000 A 
ENDROOT
BRANCH   6  10
ATOM     10  C   UNL     1      49.124   4.391  19.283  0.00  0.00    +0.000 C 
ATOM     11  N   UNL     1      48.389   3.297  19.654  0.00  0.00    +0.000 N 
ATOM     12  O   UNL     1      49.961   4.854  20.048  0.00  0.00    +0.000 OA
ATOM     13  H   UNL     1      47.698   2.836  19.086  0.00  0.00    +0.000 HD
ATOM     14  H   UNL     1      48.586   2.902  20.565  0.00  0.00    +0.000 HD
ENDBRANCH   6  10
BRANCH   1  15
ATOM     15  C   UNL     1      47.566   5.970  13.034  0.00  0.00    +0.000 C 
BRANCH  15  19
ATOM     16  C   UNL     1      44.950   4.179  10.857  0.00  0.00    +0.000 C 
ATOM     17  C   UNL     1      45.682   5.480  10.485  0.00  0.00    +0.000 C 
ATOM     18  C   UNL     1      45.542   6.555  11.560  0.00  0.00    +0.000 C 
ATOM     19  C   UNL     1      46.025   6.078  12.942  0.00  0.00    +0.000 C 
ATOM     20  C   UNL     1      45.343   4.753  13.324  0.00  0.00    +0.000 C 
ATOM     21  C   UNL     1      45.434   3.685  12.232  0.00  0.00    +0.000 C 
BRANCH  16  22
ATOM     22  C   UNL     1      43.412   4.320  10.824  0.00  0.00    +0.000 C 
BRANCH  22  23
ATOM     23  N   UNL     1      42.750   3.181  11.449  0.00  0.00    +0.000 NA
ATOM     24  H   UNL     1      41.880   3.485  11.883  0.00  0.00    +0.000 HD
ATOM     25  H   UNL     1      43.335   2.813  12.199  0.00  0.00    +0.000 HD
ENDBRANCH  22  23
ENDBRANCH  16  22
ENDBRANCH  15  19
ENDBRANCH   1  15
TORSDOF 5
ENDMDL
MODEL 4
REMARK VINA RESULT:    -5.485      4.053      6.866
REMARK INTER + INTRA:          -7.589
REMARK INTER:                  -7.108
REMARK INTRA:                  -0.480
REMARK UNBOUND:                -0.661
REMARK  Name = 
REMARK  5 active torsions:
REMARK  status: ('A' for Active; 'I' for Inactive)
REMARK    1  A    between atoms: N_1  and  C_2
REMARK    2  A    between atoms: C_2  and  C_3
REMARK    3  A    between atoms: C_6  and  C_7
REMARK    4  A    between atoms: C_7  and  N_8
REMARK    5  A    between atoms: C_13  and  C_14
REMARK                            x       y       z     vdW  Elec       q    Type
REMARK                         _______ _______ _______ _____ _____    ______ ____
ROOT
ATOM      1  N   UNL     1      46.109   8.561  12.388  0.00  0.00    +0.000 N 
ATOM      2  C   UNL     1      45.676   9.837  12.111  0.00  0.00    +0.000 A 
ATOM      3  C   UNL     1      46.758  10.568  11.675  0.00  0.00    +0.000 A 
ATOM      4  C   UNL     1      47.902   9.735  11.770  0.00  0.00    +0.000 A 
ATOM      5  C   UNL     1      49.272   9.910  11.517  0.00  0.00    +0.000 A 
ATOM      6  C   UNL     1      50.130   8.843  11.793  0.00  0.00    +0.000 A 
ATOM      7  C   UNL     1      49.573   7.655  12.267  0.00  0.00    +0.000 A 
ATOM      8  N   UNL     1      48.251   7.421  12.496  0.00  0.00    +0.000 NA
ATOM      9  C   UNL     1      47.474   8.494  12.240  0.00  0.00    +0.000 A 
ENDROOT
BRANCH   6  10
ATOM     10  C   UNL     1      51.603   8.919  11.628  0.00  0.00    +0.000 C 
ATOM     11  N   UNL     1      52.361   7.840  11.996  0.00  0.00    +0.000 N 
ATOM     12  O   UNL     1      52.142   9.915  11.161  0.00  0.00    +0.000 OA
ATOM     13  H   UNL     1      52.007   6.974  12.366  0.00  0.00    +0.000 HD
ATOM     14  H   UNL     1      53.360   7.912  11.849  0.00  0.00    +0.000 HD
ENDBRANCH   6  10
BRANCH   1  15
ATOM     15  C   UNL     1      45.236   7.457  12.765  0.00  0.00    +0.000 C 
BRANCH  15  19
ATOM     16  C   UNL     1      43.814   3.891  12.545  0.00  0.00    +0.000 C 
ATOM     17  C   UNL     1      45.308   4.258  12.560  0.00  0.00    +0.000 C 
ATOM     18  C   UNL     1      45.670   5.274  11.480  0.00  0.00    +0.000 C 
ATOM     19  C   UNL     1      44.831   6.560  11.571  0.00  0.00    +0.000 C 
ATOM     20  C   UNL     1      43.330   6.225  11.602  0.00  0.00    +0.000 C 
ATOM     21  C   UNL     1      42.963   5.170  12.648  0.00  0.00    +0.000 C 
BRANCH  16  22
ATOM     22  C   UNL     1      43.410   3.051  11.313  0.00  0.00    +0.000 C 
BRANCH  22  23
ATOM     23  N   UNL     1      42.951   1.718  11.692  0.00  0.00    +0.000 NA
ATOM     24  H   UNL     1      43.356   1.025  11.065  0.00  0.00    +0.000 HD
ATOM     25  H   UNL     1      41.940   1.659  11.576  0.00  0.00    +0.000 HD
ENDBRANCH  22  23
ENDBRANCH  16  22
ENDBRANCH  15  19
ENDBRANCH   1  15
TORSDOF 5
ENDMDL
MODEL 5
REMARK VINA RESULT:    -5.458      4.334      6.286
REMARK INTER + INTRA:          -7.555
REMARK INTER:                  -7.037
REMARK INTRA:                  -0.519
REMARK UNBOUND:                -0.661
REMARK  Name = 
REMARK  5 active torsions:
REMARK  status: ('A' for Active; 'I' for Inactive)
REMARK    1  A    between atoms: N_1  and  C_2
REMARK    2  A    between atoms: C_2  and  C_3
REMARK    3  A    between atoms: C_6  and  C_7
REMARK    4  A    between atoms: C_7  and  N_8
REMARK    5  A    between atoms: C_13  and  C_14
REMARK                            x       y       z     vdW  Elec       q    Type
REMARK                         _______ _______ _______ _____ _____    ______ ____
ROOT
ATOM      1  N   UNL     1      48.191   6.791  14.205  0.00  0.00    +0.000 N 
ATOM      2  C   UNL     1      47.879   8.032  13.700  0.00  0.00    +0.000 A 
ATOM      3  C   UNL     1      46.743   7.904  12.931  0.00  0.00    +0.000 A 
ATOM      4  C   UNL     1      46.403   6.527  12.898  0.00  0.00    +0.000 A 
ATOM      5  C   UNL     1      45.399   5.775  12.267  0.00  0.00    +0.000 A 
ATOM      6  C   UNL     1      45.421   4.388  12.428  0.00  0.00    +0.000 A 
ATOM      7  C   UNL     1      46.416   3.833  13.236  0.00  0.00    +0.000 A 
ATOM      8  N   UNL     1      47.390   4.519  13.898  0.00  0.00    +0.000 NA
ATOM      9  C   UNL     1      47.336   5.850  13.682  0.00  0.00    +0.000 A 
ENDROOT
BRANCH   6  10
ATOM     10  C   UNL     1      44.456   3.476  11.767  0.00  0.00    +0.000 C 
ATOM     11  N   UNL     1      43.919   2.447  12.495  0.00  0.00    +0.000 N 
ATOM     12  O   UNL     1      44.127   3.635  10.598  0.00  0.00    +0.000 OA
ATOM     13  H   UNL     1      44.111   2.252  13.463  0.00  0.00    +0.000 HD
ATOM     14  H   UNL     1      43.245   1.857  12.024  0.00  0.00    +0.000 HD
ENDBRANCH   6  10
BRANCH   1  15
ATOM     15  C   UNL     1      49.262   6.535  15.160  0.00  0.00    +0.000 C 
BRANCH  15  19
ATOM     16  C   UNL     1      50.053   4.528  18.344  0.00  0.00    +0.000 C 
ATOM     17  C   UNL     1      48.891   4.246  17.376  0.00  0.00    +0.000 C 
ATOM     18  C   UNL     1      48.016   5.476  17.143  0.00  0.00    +0.000 C 
ATOM     19  C   UNL     1      48.817   6.687  16.634  0.00  0.00    +0.000 C 
ATOM     20  C   UNL     1      50.015   6.967  17.558  0.00  0.00    +0.000 C 
ATOM     21  C   UNL     1      50.870   5.730  17.839  0.00  0.00    +0.000 C 
BRANCH  16  22
ATOM     22  C   UNL     1      49.588   4.742  19.801  0.00  0.00    +0.000 C 
BRANCH  22  23
ATOM     23  N   UNL     1      48.670   3.695  20.237  0.00  0.00    +0.000 NA
ATOM     24  H   UNL     1      47.788   3.781  19.735  0.00  0.00    +0.000 HD
ATOM     25  H   UNL     1      48.454   3.819  21.226  0.00  0.00    +0.000 HD
ENDBRANCH  22  23
ENDBRANCH  16  22
ENDBRANCH  15  19
ENDBRANCH   1  15
TORSDOF 5
ENDMDL
MODEL 6
REMARK VINA RESULT:    -5.329      2.827      4.337
REMARK INTER + INTRA:          -7.392
REMARK INTER:                  -6.784
REMARK INTRA:                  -0.608
REMARK UNBOUND:                -0.661
REMARK  Name = 
REMARK  5 active torsions:
REMARK  status: ('A' for Active; 'I' for Inactive)
REMARK    1  A    between atoms: N_1  and  C_2
REMARK    2  A    between atoms: C_2  and  C_3
REMARK    3  A    between atoms: C_6  and  C_7
REMARK    4  A    between atoms: C_7  and  N_8
REMARK    5  A    between atoms: C_13  and  C_14
REMARK                            x       y       z     vdW  Elec       q    Type
REMARK                         _______ _______ _______ _____ _____    ______ ____
ROOT
ATOM      1  N   UNL     1      47.396   6.162  13.962  0.00  0.00    +0.000 N 
ATOM      2  C   UNL     1      47.478   5.209  14.950  0.00  0.00    +0.000 A 
ATOM      3  C   UNL     1      46.845   4.072  14.498  0.00  0.00    +0.000 A 
ATOM      4  C   UNL     1      46.288   4.370  13.228  0.00  0.00    +0.000 A 
ATOM      5  C   UNL     1      45.512   3.656  12.300  0.00  0.00    +0.000 A 
ATOM      6  C   UNL     1      45.089   4.325  11.149  0.00  0.00    +0.000 A 
ATOM      7  C   UNL     1      45.492   5.649  10.970  0.00  0.00    +0.000 A 
ATOM      8  N   UNL     1      46.272   6.375  11.819  0.00  0.00    +0.000 NA
ATOM      9  C   UNL     1      46.626   5.689  12.926  0.00  0.00    +0.000 A 
ENDROOT
BRANCH   6  10
ATOM     10  C   UNL     1      44.216   3.705  10.122  0.00  0.00    +0.000 C 
ATOM     11  N   UNL     1      43.926   4.418   8.990  0.00  0.00    +0.000 N 
ATOM     12  O   UNL     1      43.768   2.574  10.265  0.00  0.00    +0.000 OA
ATOM     13  H   UNL     1      44.266   5.340   8.775  0.00  0.00    +0.000 HD
ATOM     14  H   UNL     1      43.349   3.959   8.296  0.00  0.00    +0.000 HD
ENDBRANCH   6  10
BRANCH   1  15
ATOM     15  C   UNL     1      48.047   7.464  14.016  0.00  0.00    +0.000 C 
BRANCH  15  19
ATOM     16  C   UNL     1      50.279   9.898  12.045  0.00  0.00    +0.000 C 
ATOM     17  C   UNL     1      49.439   8.762  11.435  0.00  0.00    +0.000 C 
ATOM     18  C   UNL     1      49.735   7.409  12.078  0.00  0.00    +0.000 C 
ATOM     19  C   UNL     1      49.537   7.422  13.604  0.00  0.00    +0.000 C 
ATOM     20  C   UNL     1      50.331   8.577  14.241  0.00  0.00    +0.000 C 
ATOM     21  C   UNL     1      50.081   9.929  13.571  0.00  0.00    +0.000 C 
BRANCH  16  22
ATOM     22  C   UNL     1      51.776   9.807  11.679  0.00  0.00    +0.000 C 
BRANCH  22  23
ATOM     23  N   UNL     1      51.976   9.656  10.242  0.00  0.00    +0.000 NA
ATOM     24  H   UNL     1      52.605   8.876  10.062  0.00  0.00    +0.000 HD
ATOM     25  H   UNL     1      52.432  10.489   9.870  0.00  0.00    +0.000 HD
ENDBRANCH  22  23
ENDBRANCH  16  22
ENDBRANCH  15  19
ENDBRANCH   1  15
TORSDOF 5
ENDMDL
MODEL 7
REMARK VINA RESULT:    -4.818      2.907      4.607
REMARK INTER + INTRA:          -6.747
REMARK INTER:                  -6.320
REMARK INTRA:                  -0.427
REMARK UNBOUND:                -0.661
REMARK  Name = 
REMARK  5 active torsions:
REMARK  status: ('A' for Active; 'I' for Inactive)
REMARK    1  A    between atoms: N_1  and  C_2
REMARK    2  A    between atoms: C_2  and  C_3
REMARK    3  A    between atoms: C_6  and  C_7
REMARK    4  A    between atoms: C_7  and  N_8
REMARK    5  A    between atoms: C_13  and  C_14
REMARK                            x       y       z     vdW  Elec       q    Type
REMARK                         _______ _______ _______ _____ _____    ______ ____
ROOT
ATOM      1  N   UNL     1      47.550   6.145  13.947  0.00  0.00    +0.000 N 
ATOM      2  C   UNL     1      47.550   5.224  14.969  0.00  0.00    +0.000 A 
ATOM      3  C   UNL     1      46.818   4.132  14.558  0.00  0.00    +0.000 A 
ATOM      4  C   UNL     1      46.285   4.433  13.279  0.00  0.00    +0.000 A 
ATOM      5  C   UNL     1      45.447   3.757  12.377  0.00  0.00    +0.000 A 
ATOM      6  C   UNL     1      45.080   4.419  11.203  0.00  0.00    +0.000 A 
ATOM      7  C   UNL     1      45.598   5.696  10.976  0.00  0.00    +0.000 A 
ATOM      8  N   UNL     1      46.441   6.380  11.798  0.00  0.00    +0.000 NA
ATOM      9  C   UNL     1      46.737   5.705  12.929  0.00  0.00    +0.000 A 
ENDROOT
BRANCH   6  10
ATOM     10  C   UNL     1      44.153   3.843  10.199  0.00  0.00    +0.000 C 
ATOM     11  N   UNL     1      43.942   4.526   9.031  0.00  0.00    +0.000 N 
ATOM     12  O   UNL     1      43.590   2.772  10.391  0.00  0.00    +0.000 OA
ATOM     13  H   UNL     1      44.375   5.398   8.775  0.00  0.00    +0.000 HD
ATOM     14  H   UNL     1      43.323   4.095   8.355  0.00  0.00    +0.000 HD
ENDBRANCH   6  10
BRANCH   1  15
ATOM     15  C   UNL     1      48.313   7.386  13.954  0.00  0.00    +0.000 C 
BRANCH  15  19
ATOM     16  C   UNL     1      50.802  10.088  15.092  0.00  0.00    +0.000 C 
ATOM     17  C   UNL     1      51.178   8.731  14.472  0.00  0.00    +0.000 C 
ATOM     18  C   UNL     1      50.547   7.556  15.216  0.00  0.00    +0.000 C 
ATOM     19  C   UNL     1      49.014   7.666  15.305  0.00  0.00    +0.000 C 
ATOM     20  C   UNL     1      48.604   9.032  15.881  0.00  0.00    +0.000 C 
ATOM     21  C   UNL     1      49.270  10.215  15.175  0.00  0.00    +0.000 C 
BRANCH  16  22
ATOM     22  C   UNL     1      51.457  10.326  16.470  0.00  0.00    +0.000 C 
BRANCH  22  23
ATOM     23  N   UNL     1      52.536  11.305  16.396  0.00  0.00    +0.000 NA
ATOM     24  H   UNL     1      53.093  11.141  15.559  0.00  0.00    +0.000 HD
ATOM     25  H   UNL     1      53.164  11.184  17.191  0.00  0.00    +0.000 HD
ENDBRANCH  22  23
ENDBRANCH  16  22
ENDBRANCH  15  19
ENDBRANCH   1  15
TORSDOF 5
ENDMDL
MODEL 8
REMARK VINA RESULT:    -4.742      4.797      6.946
REMARK INTER + INTRA:          -6.651
REMARK INTER:                  -6.182
REMARK INTRA:                  -0.469
REMARK UNBOUND:                -0.661
REMARK  Name = 
REMARK  5 active torsions:
REMARK  status: ('A' for Active; 'I' for Inactive)
REMARK    1  A    between atoms: N_1  and  C_2
REMARK    2  A    between atoms: C_2  and  C_3
REMARK    3  A    between atoms: C_6  and  C_7
REMARK    4  A    between atoms: C_7  and  N_8
REMARK    5  A    between atoms: C_13  and  C_14
REMARK                            x       y       z     vdW  Elec       q    Type
REMARK                         _______ _______ _______ _____ _____    ______ ____
ROOT
ATOM      1  N   UNL     1      47.813   6.924  13.258  0.00  0.00    +0.000 N 
ATOM      2  C   UNL     1      46.985   6.367  12.311  0.00  0.00    +0.000 A 
ATOM      3  C   UNL     1      46.417   5.236  12.856  0.00  0.00    +0.000 A 
ATOM      4  C   UNL     1      46.982   5.053  14.143  0.00  0.00    +0.000 A 
ATOM      5  C   UNL     1      46.843   4.085  15.152  0.00  0.00    +0.000 A 
ATOM      6  C   UNL     1      47.635   4.213  16.295  0.00  0.00    +0.000 A 
ATOM      7  C   UNL     1      48.489   5.314  16.387  0.00  0.00    +0.000 A 
ATOM      8  N   UNL     1      48.635   6.298  15.456  0.00  0.00    +0.000 NA
ATOM      9  C   UNL     1      47.869   6.107  14.362  0.00  0.00    +0.000 A 
ENDROOT
BRANCH   6  10
ATOM     10  C   UNL     1      47.629   3.228  17.404  0.00  0.00    +0.000 C 
ATOM     11  N   UNL     1      48.770   3.066  18.145  0.00  0.00    +0.000 N 
ATOM     12  O   UNL     1      46.628   2.575  17.672  0.00  0.00    +0.000 OA
ATOM     13  H   UNL     1      49.630   3.572  18.015  0.00  0.00    +0.000 HD
ATOM     14  H   UNL     1      48.727   2.405  18.910  0.00  0.00    +0.000 HD
ENDBRANCH   6  10
BRANCH   1  15
ATOM     15  C   UNL     1      48.507   8.196  13.101  0.00  0.00    +0.000 C 
BRANCH  15  19
ATOM     16  C   UNL     1      51.625   9.868  11.595  0.00  0.00    +0.000 C 
ATOM     17  C   UNL     1      50.330  10.593  11.999  0.00  0.00    +0.000 C 
ATOM     18  C   UNL     1      49.092   9.981  11.347  0.00  0.00    +0.000 C 
ATOM     19  C   UNL     1      48.947   8.478  11.645  0.00  0.00    +0.000 C 
ATOM     20  C   UNL     1      50.244   7.730  11.293  0.00  0.00    +0.000 C 
ATOM     21  C   UNL     1      51.496   8.365  11.900  0.00  0.00    +0.000 C 
BRANCH  16  22
ATOM     22  C   UNL     1      52.017  10.106  10.120  0.00  0.00    +0.000 C 
BRANCH  22  23
ATOM     23  N   UNL     1      53.062   9.187   9.681  0.00  0.00    +0.000 NA
ATOM     24  H   UNL     1      53.352   8.599  10.461  0.00  0.00    +0.000 HD
ATOM     25  H   UNL     1      53.885   9.715   9.394  0.00  0.00    +0.000 HD
ENDBRANCH  22  23
ENDBRANCH  16  22
ENDBRANCH  15  19
ENDBRANCH   1  15
TORSDOF 5
ENDMDL
MODEL 9
REMARK VINA RESULT:    -4.724      3.612      5.924
REMARK INTER + INTRA:          -6.627
REMARK INTER:                  -6.139
REMARK INTRA:                  -0.488
REMARK UNBOUND:                -0.661
REMARK  Name = 
REMARK  5 active torsions:
REMARK  status: ('A' for Active; 'I' for Inactive)
REMARK    1  A    between atoms: N_1  and  C_2
REMARK    2  A    between atoms: C_2  and  C_3
REMARK    3  A    between atoms: C_6  and  C_7
REMARK    4  A    between atoms: C_7  and  N_8
REMARK    5  A    between atoms: C_13  and  C_14
REMARK                            x       y       z     vdW  Elec       q    Type
REMARK                         _______ _______ _______ _____ _____    ______ ____
ROOT
ATOM      1  N   UNL     1      48.414   7.120  13.812  0.00  0.00    +0.000 N 
ATOM      2  C   UNL     1      48.350   8.058  12.807  0.00  0.00    +0.000 A 
ATOM      3  C   UNL     1      47.356   7.678  11.933  0.00  0.00    +0.000 A 
ATOM      4  C   UNL     1      46.856   6.426  12.373  0.00  0.00    +0.000 A 
ATOM      5  C   UNL     1      45.888   5.528  11.895  0.00  0.00    +0.000 A 
ATOM      6  C   UNL     1      45.708   4.329  12.589  0.00  0.00    +0.000 A 
ATOM      7  C   UNL     1      46.473   4.109  13.736  0.00  0.00    +0.000 A 
ATOM      8  N   UNL     1      47.398   4.960  14.261  0.00  0.00    +0.000 NA
ATOM      9  C   UNL     1      47.549   6.087  13.535  0.00  0.00    +0.000 A 
ENDROOT
BRANCH   6  10
ATOM     10  C   UNL     1      44.763   3.271  12.154  0.00  0.00    +0.000 C 
ATOM     11  N   UNL     1      44.911   2.732  10.904  0.00  0.00    +0.000 N 
ATOM     12  O   UNL     1      43.873   2.868  12.893  0.00  0.00    +0.000 OA
ATOM     13  H   UNL     1      45.623   2.981  10.239  0.00  0.00    +0.000 HD
ATOM     14  H   UNL     1      44.267   1.994  10.646  0.00  0.00    +0.000 HD
ENDBRANCH   6  10
BRANCH   1  15
ATOM     15  C   UNL     1      49.265   7.229  14.989  0.00  0.00    +0.000 C 
BRANCH  15  19
ATOM     16  C   UNL     1      49.616   8.768  18.496  0.00  0.00    +0.000 C 
ATOM     17  C   UNL     1      48.289   8.528  17.754  0.00  0.00    +0.000 C 
ATOM     18  C   UNL     1      48.276   9.161  16.365  0.00  0.00    +0.000 C 
ATOM     19  C   UNL     1      49.443   8.684  15.484  0.00  0.00    +0.000 C 
ATOM     20  C   UNL     1      50.783   8.870  16.216  0.00  0.00    +0.000 C 
ATOM     21  C   UNL     1      50.792   8.283  17.629  0.00  0.00    +0.000 C 
BRANCH  16  22
ATOM     22  C   UNL     1      49.810  10.239  18.926  0.00  0.00    +0.000 C 
BRANCH  22  23
ATOM     23  N   UNL     1      51.119  10.458  19.532  0.00  0.00    +0.000 NA
ATOM     24  H   UNL     1      51.040  11.141  20.283  0.00  0.00    +0.000 HD
ATOM     25  H   UNL     1      51.753  10.859  18.841  0.00  0.00    +0.000 HD
ENDBRANCH  22  23
ENDBRANCH  16  22
ENDBRANCH  15  19
ENDBRANCH   1  15
TORSDOF 5
ENDMDL
