MODEL 1
REMARK VINA RESULT:    -7.932      0.000      0.000
REMARK INTER + INTRA:         -10.336
REMARK INTER:                  -9.786
REMARK INTRA:                  -0.549
REMARK UNBOUND:                -0.549
REMARK  Name = 
REMARK  4 active torsions:
REMARK  status: ('A' for Active; 'I' for Inactive)
REMARK    1  A    between atoms: C_2  and  C_3
REMARK    2  A    between atoms: C_6  and  C_7
REMARK    3  A    between atoms: C_7  and  C_8
REMARK    4  A    between atoms: C_12  and  C_13
REMARK                            x       y       z     vdW  Elec       q    Type
REMARK                         _______ _______ _______ _____ _____    ______ ____
ROOT
ATOM      1  C   UNL     1      45.391   4.801  11.960  0.00  0.00    +0.000 A 
ATOM      2  C   UNL     1      45.920   4.020  12.999  0.00  0.00    +0.000 A 
ATOM      3  C   UNL     1      46.897   4.529  13.852  0.00  0.00    +0.000 A 
ATOM      4  C   UNL     1      47.369   5.831  13.675  0.00  0.00    +0.000 A 
ATOM      5  C   UNL     1      46.849   6.662  12.671  0.00  0.00    +0.000 A 
ATOM      6  C   UNL     1      45.819   6.138  11.868  0.00  0.00    +0.000 A 
ENDROOT
BRANCH   5   7
ATOM      7  C   UNL     1      47.437   7.981  12.349  0.00  0.00    +0.000 A 
ATOM      8  C   UNL     1      48.782   8.087  11.948  0.00  0.00    +0.000 A 
ATOM      9  C   UNL     1      49.322   9.303  11.522  0.00  0.00    +0.000 A 
ATOM     10  C   UNL     1      48.525  10.442  11.479  0.00  0.00    +0.000 A 
ATOM     11  C   UNL     1      47.196  10.370  11.883  0.00  0.00    +0.000 A 
ATOM     12  C   UNL     1      46.662   9.154  12.323  0.00  0.00    +0.000 A 
ENDBRANCH   5   7
BRANCH   1  13
ATOM     13  C   UNL     1      44.527   4.182  10.863  0.00  0.00    +0.000 C 
ATOM     14  C   UNL     1      43.222   3.499  11.288  0.00  0.00    +0.000 C 
ATOM     15  C   UNL     1      43.164   4.852  10.660  0.00  0.00    +0.000 C 
BRANCH  13  19
ATOM     16  C   UNL     1      46.632   2.657   7.430  0.00  0.00    +0.000 A 
ATOM     17  C   UNL     1      46.483   4.033   7.572  0.00  0.00    +0.000 A 
ATOM     18  C   UNL     1      45.777   4.535   8.667  0.00  0.00    +0.000 A 
ATOM     19  C   UNL     1      45.235   3.659   9.614  0.00  0.00    +0.000 A 
ATOM     20  N   UNL     1      45.375   2.313   9.464  0.00  0.00    +0.000 NA
ATOM     21  C   UNL     1      46.058   1.846   8.391  0.00  0.00    +0.000 A 
BRANCH  16  23
ATOM     22  N   UNL     1      47.943   1.629   5.450  0.00  0.00    +0.000 NA
ATOM     23  C   UNL     1      47.354   2.091   6.339  0.00  0.00    +0.000 C 
ENDBRANCH  16  23
ENDBRANCH  13  19
ENDBRANCH   1  13
TORSDOF 4
ENDMDL
MODEL 2
REMARK VINA RESULT:    -7.223      1.621      3.335
REMARK INTER + INTRA:          -9.462
REMARK INTER:                  -8.993
REMARK INTRA:                  -0.468
REMARK UNBOUND:                -0.549
REMARK  Name = 
REMARK  4 active torsions:
REMARK  status: ('A' for Active; 'I' for Inactive)
REMARK    1  A    between atoms: C_2  and  C_3
REMARK    2  A    between atoms: C_6  and  C_7
REMARK    3  A    between atoms: C_7  and  C_8
REMARK    4  A    between atoms: C_12  and  C_13
REMARK                            x       y       z     vdW  Elec       q    Type
REMARK                         _______ _______ _______ _____ _____    ______ ____
ROOT
ATOM      1  C   UNL     1      45.354   5.582  11.548  0.00  0.00    +0.000 A 
ATOM      2  C   UNL     1      45.073   6.950  11.426  0.00  0.00    +0.000 A 
ATOM      3  C   UNL     1      45.604   7.875  12.323  0.00  0.00    +0.000 A 
ATOM      4  C   UNL     1      46.425   7.442  13.366  0.00  0.00    +0.000 A 
ATOM      5  C   UNL     1      46.762   6.087  13.511  0.00  0.00    +0.000 A 
ATOM      6  C   UNL     1      46.259   5.191  12.551  0.00  0.00    +0.000 A 
ENDROOT
BRANCH   5   7
ATOM      7  C   UNL     1      47.488   5.573  14.694  0.00  0.00    +0.000 A 
ATOM      8  C   UNL     1      48.485   6.347  15.316  0.00  0.00    +0.000 A 
ATOM      9  C   UNL     1      49.094   5.934  16.503  0.00  0.00    +0.000 A 
ATOM     10  C   UNL     1      48.714   4.738  17.102  0.00  0.00    +0.000 A 
ATOM     11  C   UNL     1      47.740   3.945  16.502  0.00  0.00    +0.000 A 
ATOM     12  C   UNL     1      47.142   4.355  15.306  0.00  0.00    +0.000 A 
ENDBRANCH   5   7
BRANCH   1  13
ATOM     13  C   UNL     1      44.578   4.537  10.749  0.00  0.00    +0.000 C 
ATOM     14  C   UNL     1      43.538   3.698  11.501  0.00  0.00    +0.000 C 
ATOM     15  C   UNL     1      43.076   4.809  10.618  0.00  0.00    +0.000 C 
BRANCH  13  19
ATOM     16  C   UNL     1      46.648   2.702   7.449  0.00  0.00    +0.000 A 
ATOM     17  C   UNL     1      46.567   4.089   7.505  0.00  0.00    +0.000 A 
ATOM     18  C   UNL     1      45.873   4.692   8.556  0.00  0.00    +0.000 A 
ATOM     19  C   UNL     1      45.275   3.904   9.545  0.00  0.00    +0.000 A 
ATOM     20  N   UNL     1      45.348   2.546   9.479  0.00  0.00    +0.000 NA
ATOM     21  C   UNL     1      46.020   1.980   8.448  0.00  0.00    +0.000 A 
BRANCH  16  23
ATOM     22  N   UNL     1      47.930   1.491   5.555  0.00  0.00    +0.000 NA
ATOM     23  C   UNL     1      47.354   2.034   6.406  0.00  0.00    +0.000 C 
ENDBRANCH  16  23
ENDBRANCH  13  19
ENDBRANCH   1  13
TORSDOF 4
ENDMDL
MODEL 3
REMARK VINA RESULT:    -7.116      2.965      7.259
REMARK INTER + INTRA:          -9.329
REMARK INTER:                  -8.898
REMARK INTRA:                  -0.431
REMARK UNBOUND:                -0.549
REMARK  Name = 
REMARK  4 active torsions:
REMARK  status: ('A' for Active; 'I' for Inactive)
REMARK    1  A    between atoms: C_2  and  C_3
REMARK    2  A    between atoms: C_6  and  C_7
REMARK    3  A    between atoms: C_7  and  C_8
REMARK    4  A    between atoms: C_12  and  C_13
REMARK                            x       y       z     vdW  Elec       q    Type
REMARK                         _______ _______ _______ _____ _____    ______ ____
ROOT
ATOM      1  C   UNL     1      45.520   5.599  11.807  0.00  0.00    +0.000 A 
ATOM      2  C   UNL     1      44.153   5.897  11.895  0.00  0.00    +0.000 A 
ATOM      3  C   UNL     1      43.235   5.322  11.019  0.00  0.00    +0.000 A 
ATOM      4  C   UNL     1      43.674   4.439  10.030  0.00  0.00    +0.000 A 
ATOM      5  C   UNL     1      45.028   4.085   9.921  0.00  0.00    +0.000 A 
ATOM      6  C   UNL     1      45.916   4.636  10.861  0.00  0.00    +0.000 A 
ENDROOT
BRANCH   5   7
ATOM      7  C   UNL     1      45.550   3.289   8.788  0.00  0.00    +0.000 A 
ATOM      8  C   UNL     1      46.019   3.922   7.623  0.00  0.00    +0.000 A 
ATOM      9  C   UNL     1      46.629   3.199   6.595  0.00  0.00    +0.000 A 
ATOM     10  C   UNL     1      46.792   1.823   6.713  0.00  0.00    +0.000 A 
ATOM     11  C   UNL     1      46.325   1.168   7.848  0.00  0.00    +0.000 A 
ATOM     12  C   UNL     1      45.703   1.893   8.869  0.00  0.00    +0.000 A 
ENDBRANCH   5   7
BRANCH   1  13
ATOM     13  C   UNL     1      46.562   6.413  12.573  0.00  0.00    +0.000 C 
ATOM     14  C   UNL     1      47.526   7.281  11.756  0.00  0.00    +0.000 C 
ATOM     15  C   UNL     1      46.393   7.933  12.476  0.00  0.00    +0.000 C 
BRANCH  13  19
ATOM     16  C   UNL     1      48.089   4.822  16.271  0.00  0.00    +0.000 A 
ATOM     17  C   UNL     1      47.136   4.093  15.567  0.00  0.00    +0.000 A 
ATOM     18  C   UNL     1      46.614   4.616  14.382  0.00  0.00    +0.000 A 
ATOM     19  C   UNL     1      47.056   5.854  13.907  0.00  0.00    +0.000 A 
ATOM     20  N   UNL     1      47.981   6.569  14.605  0.00  0.00    +0.000 NA
ATOM     21  C   UNL     1      48.470   6.048  15.757  0.00  0.00    +0.000 A 
BRANCH  16  23
ATOM     22  N   UNL     1      49.134   3.933  18.465  0.00  0.00    +0.000 NA
ATOM     23  C   UNL     1      48.665   4.332  17.479  0.00  0.00    +0.000 C 
ENDBRANCH  16  23
ENDBRANCH  13  19
ENDBRANCH   1  13
TORSDOF 4
ENDMDL
MODEL 4
REMARK VINA RESULT:    -7.033      2.685      6.613
REMARK INTER + INTRA:          -9.226
REMARK INTER:                  -8.588
REMARK INTRA:                  -0.638
REMARK UNBOUND:                -0.549
REMARK  Name = 
REMARK  4 active torsions:
REMARK  status: ('A' for Active; 'I' for Inactive)
REMARK    1  A    between atoms: C_2  and  C_3
REMARK    2  A    between atoms: C_6  and  C_7
REMARK    3  A    between atoms: C_7  and  C_8
REMARK    4  A    between atoms: C_12  and  C_13
REMARK                            x       y       z     vdW  Elec       q    Type
REMARK                         _______ _______ _______ _____ _____    ______ ____
ROOT
ATOM      1  C   UNL     1      44.579   3.963  11.297  0.00  0.00    +0.000 A 
ATOM      2  C   UNL     1      43.600   3.016  11.634  0.00  0.00    +0.000 A 
ATOM      3  C   UNL     1      43.412   1.872  10.861  0.00  0.00    +0.000 A 
ATOM      4  C   UNL     1      44.201   1.657   9.729  0.00  0.00    +0.000 A 
ATOM      5  C   UNL     1      45.215   2.559   9.368  0.00  0.00    +0.000 A 
ATOM      6  C   UNL     1      45.418   3.670  10.206  0.00  0.00    +0.000 A 
ENDROOT
BRANCH   5   7
ATOM      7  C   UNL     1      45.953   2.452   8.091  0.00  0.00    +0.000 A 
ATOM      8  C   UNL     1      45.968   3.524   7.179  0.00  0.00    +0.000 A 
ATOM      9  C   UNL     1      46.758   3.490   6.027  0.00  0.00    +0.000 A 
ATOM     10  C   UNL     1      47.559   2.385   5.763  0.00  0.00    +0.000 A 
ATOM     11  C   UNL     1      47.554   1.304   6.640  0.00  0.00    +0.000 A 
ATOM     12  C   UNL     1      46.751   1.335   7.785  0.00  0.00    +0.000 A 
ENDBRANCH   5   7
BRANCH   1  13
ATOM     13  C   UNL     1      44.620   5.335  11.966  0.00  0.00    +0.000 C 
ATOM     14  C   UNL     1      43.525   6.340  11.591  0.00  0.00    +0.000 C 
ATOM     15  C   UNL     1      43.445   5.632  12.903  0.00  0.00    +0.000 C 
BRANCH  13  19
ATOM     16  C   UNL     1      48.406   6.959  13.219  0.00  0.00    +0.000 A 
ATOM     17  C   UNL     1      47.903   7.309  11.970  0.00  0.00    +0.000 A 
ATOM     18  C   UNL     1      46.690   6.764  11.544  0.00  0.00    +0.000 A 
ATOM     19  C   UNL     1      45.987   5.884  12.373  0.00  0.00    +0.000 A 
ATOM     20  N   UNL     1      46.488   5.537  13.590  0.00  0.00    +0.000 NA
ATOM     21  C   UNL     1      47.670   6.071  13.983  0.00  0.00    +0.000 A 
BRANCH  16  23
ATOM     22  N   UNL     1      50.632   7.931  14.110  0.00  0.00    +0.000 NA
ATOM     23  C   UNL     1      49.632   7.495  13.710  0.00  0.00    +0.000 C 
ENDBRANCH  16  23
ENDBRANCH  13  19
ENDBRANCH   1  13
TORSDOF 4
ENDMDL
MODEL 5
REMARK VINA RESULT:    -6.750      3.404      7.596
REMARK INTER + INTRA:          -8.878
REMARK INTER:                  -8.244
REMARK INTRA:                  -0.634
REMARK UNBOUND:                -0.549
REMARK  Name = 
REMARK  4 active torsions:
REMARK  status: ('A' for Active; 'I' for Inactive)
REMARK    1  A    between atoms: C_2  and  C_3
REMARK    2  A    between atoms: C_6  and  C_7
REMARK    3  A    between atoms: C_7  and  C_8
REMARK    4  A    between atoms: C_12  and  C_13
REMARK                            x       y       z     vdW  Elec       q    Type
REMARK                         _______ _______ _______ _____ _____    ______ ____
ROOT
ATOM      1  C   UNL     1      46.781   6.933  12.809  0.00  0.00    +0.000 A 
ATOM      2  C   UNL     1      45.873   8.002  12.838  0.00  0.00    +0.000 A 
ATOM      3  C   UNL     1      44.719   7.985  12.058  0.00  0.00    +0.000 A 
ATOM      4  C   UNL     1      44.455   6.895  11.227  0.00  0.00    +0.000 A 
ATOM      5  C   UNL     1      45.316   5.786  11.186  0.00  0.00    +0.000 A 
ATOM      6  C   UNL     1      46.439   5.811  12.033  0.00  0.00    +0.000 A 
ENDROOT
BRANCH   5   7
ATOM      7  C   UNL     1      45.158   4.695  10.200  0.00  0.00    +0.000 A 
ATOM      8  C   UNL     1      45.682   4.821   8.901  0.00  0.00    +0.000 A 
ATOM      9  C   UNL     1      45.652   3.757   7.996  0.00  0.00    +0.000 A 
ATOM     10  C   UNL     1      45.103   2.537   8.373  0.00  0.00    +0.000 A 
ATOM     11  C   UNL     1      44.564   2.387   9.647  0.00  0.00    +0.000 A 
ATOM     12  C   UNL     1      44.583   3.459  10.546  0.00  0.00    +0.000 A 
ENDBRANCH   5   7
BRANCH   1  13
ATOM     13  C   UNL     1      48.166   7.050  13.443  0.00  0.00    +0.000 C 
ATOM     14  C   UNL     1      49.376   7.077  12.502  0.00  0.00    +0.000 C 
ATOM     15  C   UNL     1      48.913   8.350  13.129  0.00  0.00    +0.000 C 
BRANCH  13  19
ATOM     16  C   UNL     1      48.558   5.389  17.397  0.00  0.00    +0.000 A 
ATOM     17  C   UNL     1      49.039   6.672  17.154  0.00  0.00    +0.000 A 
ATOM     18  C   UNL     1      48.942   7.207  15.868  0.00  0.00    +0.000 A 
ATOM     19  C   UNL     1      48.357   6.460  14.840  0.00  0.00    +0.000 A 
ATOM     20  N   UNL     1      47.898   5.201  15.080  0.00  0.00    +0.000 NA
ATOM     21  C   UNL     1      48.007   4.697  16.333  0.00  0.00    +0.000 A 
BRANCH  16  23
ATOM     22  N   UNL     1      48.669   4.318  19.749  0.00  0.00    +0.000 NA
ATOM     23  C   UNL     1      48.619   4.799  18.692  0.00  0.00    +0.000 C 
ENDBRANCH  16  23
ENDBRANCH  13  19
ENDBRANCH   1  13
TORSDOF 4
ENDMDL
MODEL 6
REMARK VINA RESULT:    -6.350      3.634      7.641
REMARK INTER + INTRA:          -8.384
REMARK INTER:                  -7.910
REMARK INTRA:                  -0.474
REMARK UNBOUND:                -0.549
REMARK  Name = 
REMARK  4 active torsions:
REMARK  status: ('A' for Active; 'I' for Inactive)
REMARK    1  A    between atoms: C_2  and  C_3
REMARK    2  A    between atoms: C_6  and  C_7
REMARK    3  A    between atoms: C_7  and  C_8
REMARK    4  A    between atoms: C_12  and  C_13
REMARK                            x       y       z     vdW  Elec       q    Type
REMARK                         _______ _______ _______ _____ _____    ______ ____
ROOT
ATOM      1  C   UNL     1      47.231   7.368  12.674  0.00  0.00    +0.000 A 
ATOM      2  C   UNL     1      46.374   8.475  12.758  0.00  0.00    +0.000 A 
ATOM      3  C   UNL     1      45.131   8.470  12.129  0.00  0.00    +0.000 A 
ATOM      4  C   UNL     1      44.724   7.354  11.396  0.00  0.00    +0.000 A 
ATOM      5  C   UNL     1      45.532   6.209  11.308  0.00  0.00    +0.000 A 
ATOM      6  C   UNL     1      46.753   6.225  12.006  0.00  0.00    +0.000 A 
ENDROOT
BRANCH   5   7
ATOM      7  C   UNL     1      45.211   5.080  10.408  0.00  0.00    +0.000 A 
ATOM      8  C   UNL     1      45.691   5.057   9.085  0.00  0.00    +0.000 A 
ATOM      9  C   UNL     1      45.504   3.946   8.260  0.00  0.00    +0.000 A 
ATOM     10  C   UNL     1      44.837   2.825   8.742  0.00  0.00    +0.000 A 
ATOM     11  C   UNL     1      44.338   2.824  10.041  0.00  0.00    +0.000 A 
ATOM     12  C   UNL     1      44.515   3.944  10.860  0.00  0.00    +0.000 A 
ENDBRANCH   5   7
BRANCH   1  13
ATOM     13  C   UNL     1      48.688   7.455  13.124  0.00  0.00    +0.000 C 
ATOM     14  C   UNL     1      49.769   7.414  12.038  0.00  0.00    +0.000 C 
ATOM     15  C   UNL     1      49.428   8.719  12.677  0.00  0.00    +0.000 C 
BRANCH  13  19
ATOM     16  C   UNL     1      49.772   5.798  16.948  0.00  0.00    +0.000 A 
ATOM     17  C   UNL     1      48.497   5.557  16.446  0.00  0.00    +0.000 A 
ATOM     18  C   UNL     1      48.127   6.114  15.220  0.00  0.00    +0.000 A 
ATOM     19  C   UNL     1      49.037   6.898  14.504  0.00  0.00    +0.000 A 
ATOM     20  N   UNL     1      50.281   7.140  15.004  0.00  0.00    +0.000 NA
ATOM     21  C   UNL     1      50.618   6.595  16.198  0.00  0.00    +0.000 A 
BRANCH  16  23
ATOM     22  N   UNL     1      50.561   4.792  19.197  0.00  0.00    +0.000 NA
ATOM     23  C   UNL     1      50.207   5.244  18.187  0.00  0.00    +0.000 C 
ENDBRANCH  16  23
ENDBRANCH  13  19
ENDBRANCH   1  13
TORSDOF 4
ENDMDL
MODEL 7
REMARK VINA RESULT:    -6.281      4.782      7.926
REMARK INTER + INTRA:          -8.299
REMARK INTER:                  -7.583
REMARK INTRA:                  -0.716
REMARK UNBOUND:                -0.549
REMARK  Name = 
REMARK  4 active torsions:
REMARK  status: ('A' for Active; 'I' for Inactive)
REMARK    1  A    between atoms: C_2  and  C_3
REMARK    2  A    between atoms: C_6  and  C_7
REMARK    3  A    between atoms: C_7  and  C_8
REMARK    4  A    between atoms: C_12  and  C_13
REMARK                            x       y       z     vdW  Elec       q    Type
REMARK                         _______ _______ _______ _____ _____    ______ ____
ROOT
ATOM      1  C   UNL     1      48.309   5.674  15.897  0.00  0.00    +0.000 A 
ATOM      2  C   UNL     1      49.241   6.646  15.506  0.00  0.00    +0.000 A 
ATOM      3  C   UNL     1      49.228   7.176  14.218  0.00  0.00    +0.000 A 
ATOM      4  C   UNL     1      48.281   6.735  13.292  0.00  0.00    +0.000 A 
ATOM      5  C   UNL     1      47.307   5.787  13.643  0.00  0.00    +0.000 A 
ATOM      6  C   UNL     1      47.312   5.320  14.970  0.00  0.00    +0.000 A 
ENDROOT
BRANCH   5   7
ATOM      7  C   UNL     1      46.400   5.176  12.648  0.00  0.00    +0.000 A 
ATOM      8  C   UNL     1      45.823   3.914  12.882  0.00  0.00    +0.000 A 
ATOM      9  C   UNL     1      44.870   3.375  12.015  0.00  0.00    +0.000 A 
ATOM     10  C   UNL     1      44.464   4.091  10.894  0.00  0.00    +0.000 A 
ATOM     11  C   UNL     1      45.026   5.335  10.630  0.00  0.00    +0.000 A 
ATOM     12  C   UNL     1      45.991   5.866  11.492  0.00  0.00    +0.000 A 
ENDBRANCH   5   7
BRANCH   1  13
ATOM     13  C   UNL     1      48.473   4.895  17.201  0.00  0.00    +0.000 C 
ATOM     14  C   UNL     1      47.965   5.555  18.489  0.00  0.00    +0.000 C 
ATOM     15  C   UNL     1      47.161   4.463  17.864  0.00  0.00    +0.000 C 
BRANCH  13  19
ATOM     16  C   UNL     1      51.724   2.100  17.598  0.00  0.00    +0.000 A 
ATOM     17  C   UNL     1      51.899   3.404  18.048  0.00  0.00    +0.000 A 
ATOM     18  C   UNL     1      50.860   4.325  17.897  0.00  0.00    +0.000 A 
ATOM     19  C   UNL     1      49.654   3.931  17.307  0.00  0.00    +0.000 A 
ATOM     20  N   UNL     1      49.492   2.656  16.859  0.00  0.00    +0.000 NA
ATOM     21  C   UNL     1      50.514   1.780  17.009  0.00  0.00    +0.000 A 
BRANCH  16  23
ATOM     22  N   UNL     1      53.578   0.313  17.852  0.00  0.00    +0.000 NA
ATOM     23  C   UNL     1      52.745   1.116  17.738  0.00  0.00    +0.000 C 
ENDBRANCH  16  23
ENDBRANCH  13  19
ENDBRANCH   1  13
TORSDOF 4
ENDMDL
MODEL 8
REMARK VINA RESULT:    -5.897      2.946      5.863
REMARK INTER + INTRA:          -7.825
REMARK INTER:                  -7.282
REMARK INTRA:                  -0.543
REMARK UNBOUND:                -0.549
REMARK  Name = 
REMARK  4 active torsions:
REMARK  status: ('A' for Active; 'I' for Inactive)
REMARK    1  A    between atoms: C_2  and  C_3
REMARK    2  A    between atoms: C_6  and  C_7
REMARK    3  A    between atoms: C_7  and  C_8
REMARK    4  A    between atoms: C_12  and  C_13
REMARK                            x       y       z     vdW  Elec       q    Type
REMARK                         _______ _______ _______ _____ _____    ______ ____
ROOT
ATOM      1  C   UNL     1      47.537   7.734  13.755  0.00  0.00    +0.000 A 
ATOM      2  C   UNL     1      48.364   8.821  14.074  0.00  0.00    +0.000 A 
ATOM      3  C   UNL     1      49.290   8.738  15.112  0.00  0.00    +0.000 A 
ATOM      4  C   UNL     1      49.400   7.563  15.857  0.00  0.00    +0.000 A 
ATOM      5  C   UNL     1      48.618   6.437  15.557  0.00  0.00    +0.000 A 
ATOM      6  C   UNL     1      47.739   6.534  14.463  0.00  0.00    +0.000 A 
ENDROOT
BRANCH   5   7
ATOM      7  C   UNL     1      48.587   5.239  16.424  0.00  0.00    +0.000 A 
ATOM      8  C   UNL     1      49.617   4.998  17.353  0.00  0.00    +0.000 A 
ATOM      9  C   UNL     1      49.545   3.942  18.264  0.00  0.00    +0.000 A 
ATOM     10  C   UNL     1      48.436   3.104  18.274  0.00  0.00    +0.000 A 
ATOM     11  C   UNL     1      47.409   3.309  17.358  0.00  0.00    +0.000 A 
ATOM     12  C   UNL     1      47.489   4.359  16.437  0.00  0.00    +0.000 A 
ENDBRANCH   5   7
BRANCH   1  13
ATOM     13  C   UNL     1      46.347   7.891  12.810  0.00  0.00    +0.000 C 
ATOM     14  C   UNL     1      45.574   9.213  12.858  0.00  0.00    +0.000 C 
ATOM     15  C   UNL     1      46.518   8.962  11.729  0.00  0.00    +0.000 C 
BRANCH  13  19
ATOM     16  C   UNL     1      44.249   4.261  11.827  0.00  0.00    +0.000 A 
ATOM     17  C   UNL     1      45.239   4.722  10.965  0.00  0.00    +0.000 A 
ATOM     18  C   UNL     1      45.904   5.913  11.261  0.00  0.00    +0.000 A 
ATOM     19  C   UNL     1      45.582   6.627  12.420  0.00  0.00    +0.000 A 
ATOM     20  N   UNL     1      44.605   6.177  13.255  0.00  0.00    +0.000 NA
ATOM     21  C   UNL     1      43.967   5.022  12.946  0.00  0.00    +0.000 A 
BRANCH  16  23
ATOM     22  N   UNL     1      42.975   2.055  11.379  0.00  0.00    +0.000 NA
ATOM     23  C   UNL     1      43.548   3.045  11.580  0.00  0.00    +0.000 C 
ENDBRANCH  16  23
ENDBRANCH  13  19
ENDBRANCH   1  13
TORSDOF 4
ENDMDL
MODEL 9
REMARK VINA RESULT:    -5.579      4.926      6.938
REMARK INTER + INTRA:          -7.433
REMARK INTER:                  -6.880
REMARK INTRA:                  -0.552
REMARK UNBOUND:                -0.549
REMARK  Name = 
REMARK  4 active torsions:
REMARK  status: ('A' for Active; 'I' for Inactive)
REMARK    1  A    between atoms: C_2  and  C_3
REMARK    2  A    between atoms: C_6  and  C_7
REMARK    3  A    between atoms: C_7  and  C_8
REMARK    4  A    between atoms: C_12  and  C_13
REMARK                            x       y       z     vdW  Elec       q    Type
REMARK                         _______ _______ _______ _____ _____    ______ ____
ROOT
ATOM      1  C   UNL     1      48.783   5.307  17.426  0.00  0.00    +0.000 A 
ATOM      2  C   UNL     1      50.179   5.401  17.338  0.00  0.00    +0.000 A 
ATOM      3  C   UNL     1      50.862   6.482  17.890  0.00  0.00    +0.000 A 
ATOM      4  C   UNL     1      50.155   7.496  18.539  0.00  0.00    +0.000 A 
ATOM      5  C   UNL     1      48.760   7.432  18.682  0.00  0.00    +0.000 A 
ATOM      6  C   UNL     1      48.110   6.296  18.167  0.00  0.00    +0.000 A 
ENDROOT
BRANCH   5   7
ATOM      7  C   UNL     1      47.965   8.562  19.212  0.00  0.00    +0.000 A 
ATOM      8  C   UNL     1      47.457   8.528  20.524  0.00  0.00    +0.000 A 
ATOM      9  C   UNL     1      46.810   9.633  21.084  0.00  0.00    +0.000 A 
ATOM     10  C   UNL     1      46.665  10.802  20.347  0.00  0.00    +0.000 A 
ATOM     11  C   UNL     1      47.145  10.860  19.042  0.00  0.00    +0.000 A 
ATOM     12  C   UNL     1      47.780   9.748  18.479  0.00  0.00    +0.000 A 
ENDBRANCH   5   7
BRANCH   1  13
ATOM     13  C   UNL     1      48.002   4.282  16.606  0.00  0.00    +0.000 C 
ATOM     14  C   UNL     1      48.393   2.807  16.756  0.00  0.00    +0.000 C 
ATOM     15  C   UNL     1      47.157   3.304  17.429  0.00  0.00    +0.000 C 
BRANCH  13  19
ATOM     16  C   UNL     1      46.434   5.445  12.768  0.00  0.00    +0.000 A 
ATOM     17  C   UNL     1      47.441   6.212  13.344  0.00  0.00    +0.000 A 
ATOM     18  C   UNL     1      47.935   5.858  14.602  0.00  0.00    +0.000 A 
ATOM     19  C   UNL     1      47.426   4.738  15.266  0.00  0.00    +0.000 A 
ATOM     20  N   UNL     1      46.433   3.997  14.702  0.00  0.00    +0.000 NA
ATOM     21  C   UNL     1      45.962   4.360  13.484  0.00  0.00    +0.000 A 
BRANCH  16  23
ATOM     22  N   UNL     1      45.469   6.001  10.433  0.00  0.00    +0.000 NA
ATOM     23  C   UNL     1      45.903   5.751  11.482  0.00  0.00    +0.000 C 
ENDBRANCH  16  23
ENDBRANCH  13  19
ENDBRANCH   1  13
TORSDOF 4
ENDMDL
