MODEL 1
REMARK VINA RESULT:    -7.701      0.000      0.000
REMARK INTER + INTRA:         -12.048
REMARK INTER:                 -10.853
REMARK INTRA:                  -1.195
REMARK UNBOUND:                -1.195
REMARK  Name = 
REMARK  7 active torsions:
REMARK  status: ('A' for Active; 'I' for Inactive)
REMARK    1  A    between atoms: C_2  and  C_3
REMARK    2  A    between atoms: C_3  and  N_4
REMARK    3  A    between atoms: C_3  and  C_17
REMARK    4  A    between atoms: C_5  and  C_7
REMARK    5  A    between atoms: C_20  and  C_21
REMARK    6  A    between atoms: C_21  and  N_22
REMARK    7  A    between atoms: C_23  and  C_25
REMARK                            x       y       z     vdW  Elec       q    Type
REMARK                         _______ _______ _______ _____ _____    ______ ____
ROOT
ATOM      1  C   UNL     1      47.558   4.881  15.166  0.00  0.00    +0.000 C 
ENDROOT
BRANCH   1   2
ATOM      2  C   UNL     1      46.648   4.741  13.949  0.00  0.00    +0.000 A 
ATOM      3  C   UNL     1      46.348   3.460  13.448  0.00  0.00    +0.000 A 
ATOM      4  C   UNL     1      45.522   3.296  12.330  0.00  0.00    +0.000 A 
ATOM      5  C   UNL     1      44.988   4.408  11.667  0.00  0.00    +0.000 A 
ATOM      6  C   UNL     1      45.270   5.685  12.170  0.00  0.00    +0.000 A 
ATOM      7  C   UNL     1      46.103   5.852  13.285  0.00  0.00    +0.000 A 
BRANCH   5   8
ATOM      8  C   UNL     1      44.137   4.242  10.434  0.00  0.00    +0.000 C 
BRANCH   8   9
ATOM      9  N   UNL     1      44.778   3.435   9.428  0.00  0.00    +0.000 N 
ATOM     10  C   UNL     1      45.636   4.001   8.513  0.00  0.00    +0.000 C 
ATOM     11  O   UNL     1      45.859   5.209   8.478  0.00  0.00    +0.000 OA
ATOM     12  H   UNL     1      44.679   2.434   9.474  0.00  0.00    +0.000 HD
BRANCH  10  13
ATOM     13  C   UNL     1      46.265   3.075   7.594  0.00  0.00    +0.000 A 
ATOM     14  C   UNL     1      46.744   3.227   6.301  0.00  0.00    +0.000 A 
ATOM     15  C   UNL     1      47.254   1.978   5.867  0.00  0.00    +0.000 A 
ATOM     16  C   UNL     1      47.086   1.087   6.899  0.00  0.00    +0.000 A 
ATOM     17  N   UNL     1      46.496   1.757   7.938  0.00  0.00    +0.000 N 
ATOM     18  H   UNL     1      46.252   1.362   8.839  0.00  0.00    +0.000 HD
ENDBRANCH  10  13
ENDBRANCH   8   9
ENDBRANCH   5   8
ENDBRANCH   1   2
BRANCH   1  19
ATOM     19  N   UNL     1      47.642   6.275  15.582  0.00  0.00    +0.000 N 
ATOM     20  C   UNL     1      48.867   6.864  15.777  0.00  0.00    +0.000 C 
ATOM     21  O   UNL     1      49.909   6.254  15.550  0.00  0.00    +0.000 OA
ATOM     22  H   UNL     1      46.811   6.703  15.983  0.00  0.00    +0.000 HD
BRANCH  20  23
ATOM     23  C   UNL     1      48.891   8.270  16.193  0.00  0.00    +0.000 A 
ATOM     24  C   UNL     1      49.443   9.221  15.344  0.00  0.00    +0.000 A 
ATOM     25  S   UNL     1      49.390  10.809  15.962  0.00  0.00    +0.000 S 
ATOM     26  C   UNL     1      48.678  10.275  17.412  0.00  0.00    +0.000 A 
ATOM     27  N   UNL     1      48.408  11.148  18.419  0.00  0.00    +0.000 NA
ATOM     28  C   UNL     1      47.912  10.602  19.478  0.00  0.00    +0.000 A 
ATOM     29  N   UNL     1      47.641   9.263  19.612  0.00  0.00    +0.000 N 
ATOM     30  C   UNL     1      47.836   8.354  18.598  0.00  0.00    +0.000 A 
ATOM     31  O   UNL     1      47.493   7.181  18.700  0.00  0.00    +0.000 OA
ATOM     32  C   UNL     1      48.445   8.911  17.405  0.00  0.00    +0.000 A 
ATOM     33  H   UNL     1      47.233   8.908  20.464  0.00  0.00    +0.000 HD
ENDBRANCH  20  23
ENDBRANCH   1  19
BRANCH   1  35
ATOM     34  N   UNL     1      46.848   3.297  17.165  0.00  0.00    +0.000 NA
ATOM     35  C   UNL     1      47.170   3.993  16.292  0.00  0.00    +0.000 C 
ENDBRANCH   1  35
TORSDOF 7
ENDMDL
MODEL 2
REMARK VINA RESULT:    -7.630      2.834      4.537
REMARK INTER + INTRA:         -11.948
REMARK INTER:                 -10.786
REMARK INTRA:                  -1.162
REMARK UNBOUND:                -1.195
REMARK  Name = 
REMARK  7 active torsions:
REMARK  status: ('A' for Active; 'I' for Inactive)
REMARK    1  A    between atoms: C_2  and  C_3
REMARK    2  A    between atoms: C_3  and  N_4
REMARK    3  A    between atoms: C_3  and  C_17
REMARK    4  A    between atoms: C_5  and  C_7
REMARK    5  A    between atoms: C_20  and  C_21
REMARK    6  A    between atoms: C_21  and  N_22
REMARK    7  A    between atoms: C_23  and  C_25
REMARK                            x       y       z     vdW  Elec       q    Type
REMARK                         _______ _______ _______ _____ _____    ______ ____
ROOT
ATOM      1  C   UNL     1      47.903   6.654  14.849  0.00  0.00    +0.000 C 
ENDROOT
BRANCH   1   2
ATOM      2  C   UNL     1      47.062   5.734  13.967  0.00  0.00    +0.000 A 
ATOM      3  C   UNL     1      46.237   6.287  12.970  0.00  0.00    +0.000 A 
ATOM      4  C   UNL     1      45.449   5.473  12.149  0.00  0.00    +0.000 A 
ATOM      5  C   UNL     1      45.447   4.082  12.314  0.00  0.00    +0.000 A 
ATOM      6  C   UNL     1      46.278   3.524  13.293  0.00  0.00    +0.000 A 
ATOM      7  C   UNL     1      47.062   4.338  14.121  0.00  0.00    +0.000 A 
BRANCH   5   8
ATOM      8  C   UNL     1      44.565   3.201  11.466  0.00  0.00    +0.000 C 
BRANCH   8   9
ATOM      9  N   UNL     1      45.249   2.694  10.305  0.00  0.00    +0.000 N 
ATOM     10  C   UNL     1      45.096   3.298   9.077  0.00  0.00    +0.000 C 
ATOM     11  O   UNL     1      44.344   4.254   8.903  0.00  0.00    +0.000 OA
ATOM     12  H   UNL     1      45.931   1.961  10.424  0.00  0.00    +0.000 HD
BRANCH  10  13
ATOM     13  C   UNL     1      45.885   2.733   8.002  0.00  0.00    +0.000 A 
ATOM     14  C   UNL     1      46.292   3.244   6.778  0.00  0.00    +0.000 A 
ATOM     15  C   UNL     1      47.044   2.245   6.109  0.00  0.00    +0.000 A 
ATOM     16  C   UNL     1      47.089   1.147   6.933  0.00  0.00    +0.000 A 
ATOM     17  N   UNL     1      46.394   1.451   8.074  0.00  0.00    +0.000 N 
ATOM     18  H   UNL     1      46.259   0.837   8.870  0.00  0.00    +0.000 HD
ENDBRANCH  10  13
ENDBRANCH   8   9
ENDBRANCH   5   8
ENDBRANCH   1   2
BRANCH   1  19
ATOM     19  N   UNL     1      49.022   5.923  15.428  0.00  0.00    +0.000 N 
ATOM     20  C   UNL     1      49.209   5.915  16.788  0.00  0.00    +0.000 C 
ATOM     21  O   UNL     1      48.414   6.468  17.543  0.00  0.00    +0.000 OA
ATOM     22  H   UNL     1      49.791   5.665  14.814  0.00  0.00    +0.000 HD
BRANCH  20  23
ATOM     23  C   UNL     1      50.351   5.160  17.315  0.00  0.00    +0.000 A 
ATOM     24  C   UNL     1      51.415   5.847  17.886  0.00  0.00    +0.000 A 
ATOM     25  S   UNL     1      52.661   4.834  18.458  0.00  0.00    +0.000 S 
ATOM     26  C   UNL     1      51.849   3.443  17.913  0.00  0.00    +0.000 A 
ATOM     27  N   UNL     1      52.408   2.210  18.050  0.00  0.00    +0.000 NA
ATOM     28  C   UNL     1      51.705   1.249  17.552  0.00  0.00    +0.000 A 
ATOM     29  N   UNL     1      50.483   1.407  16.947  0.00  0.00    +0.000 N 
ATOM     30  C   UNL     1      49.850   2.625  16.844  0.00  0.00    +0.000 A 
ATOM     31  O   UNL     1      48.715   2.732  16.394  0.00  0.00    +0.000 OA
ATOM     32  C   UNL     1      50.625   3.745  17.341  0.00  0.00    +0.000 A 
ATOM     33  H   UNL     1      49.980   0.606  16.597  0.00  0.00    +0.000 HD
ENDBRANCH  20  23
ENDBRANCH   1  19
BRANCH   1  35
ATOM     34  N   UNL     1      48.686   8.852  13.597  0.00  0.00    +0.000 NA
ATOM     35  C   UNL     1      48.353   7.885  14.147  0.00  0.00    +0.000 C 
ENDBRANCH   1  35
TORSDOF 7
ENDMDL
MODEL 3
REMARK VINA RESULT:    -7.405      2.512      3.765
REMARK INTER + INTRA:         -11.630
REMARK INTER:                 -10.608
REMARK INTRA:                  -1.022
REMARK UNBOUND:                -1.195
REMARK  Name = 
REMARK  7 active torsions:
REMARK  status: ('A' for Active; 'I' for Inactive)
REMARK    1  A    between atoms: C_2  and  C_3
REMARK    2  A    between atoms: C_3  and  N_4
REMARK    3  A    between atoms: C_3  and  C_17
REMARK    4  A    between atoms: C_5  and  C_7
REMARK    5  A    between atoms: C_20  and  C_21
REMARK    6  A    between atoms: C_21  and  N_22
REMARK    7  A    between atoms: C_23  and  C_25
REMARK                            x       y       z     vdW  Elec       q    Type
REMARK                         _______ _______ _______ _____ _____    ______ ____
ROOT
ATOM      1  C   UNL     1      47.134   7.814  13.622  0.00  0.00    +0.000 C 
ENDROOT
BRANCH   1   2
ATOM      2  C   UNL     1      46.222   6.870  12.842  0.00  0.00    +0.000 A 
ATOM      3  C   UNL     1      46.407   5.478  12.946  0.00  0.00    +0.000 A 
ATOM      4  C   UNL     1      45.593   4.585  12.240  0.00  0.00    +0.000 A 
ATOM      5  C   UNL     1      44.583   5.057  11.393  0.00  0.00    +0.000 A 
ATOM      6  C   UNL     1      44.383   6.440  11.297  0.00  0.00    +0.000 A 
ATOM      7  C   UNL     1      45.201   7.336  11.997  0.00  0.00    +0.000 A 
BRANCH   5   8
ATOM      8  C   UNL     1      43.733   4.104  10.592  0.00  0.00    +0.000 C 
BRANCH   8   9
ATOM      9  N   UNL     1      44.522   3.182   9.817  0.00  0.00    +0.000 N 
ATOM     10  C   UNL     1      45.241   3.614   8.726  0.00  0.00    +0.000 C 
ATOM     11  O   UNL     1      45.209   4.779   8.336  0.00  0.00    +0.000 OA
ATOM     12  H   UNL     1      44.633   2.238  10.151  0.00  0.00    +0.000 HD
BRANCH  10  13
ATOM     13  C   UNL     1      46.043   2.604   8.069  0.00  0.00    +0.000 A 
ATOM     14  C   UNL     1      47.004   2.681   7.071  0.00  0.00    +0.000 A 
ATOM     15  C   UNL     1      47.465   1.369   6.796  0.00  0.00    +0.000 A 
ATOM     16  C   UNL     1      46.786   0.515   7.631  0.00  0.00    +0.000 A 
ATOM     17  N   UNL     1      45.937   1.267   8.400  0.00  0.00    +0.000 N 
ATOM     18  H   UNL     1      45.310   0.913   9.113  0.00  0.00    +0.000 HD
ENDBRANCH  10  13
ENDBRANCH   8   9
ENDBRANCH   5   8
ENDBRANCH   1   2
BRANCH   1  19
ATOM     19  N   UNL     1      48.110   7.056  14.395  0.00  0.00    +0.000 N 
ATOM     20  C   UNL     1      48.637   7.586  15.546  0.00  0.00    +0.000 C 
ATOM     21  O   UNL     1      48.259   8.672  15.978  0.00  0.00    +0.000 OA
ATOM     22  H   UNL     1      48.584   6.282  13.935  0.00  0.00    +0.000 HD
BRANCH  20  23
ATOM     23  C   UNL     1      49.613   6.778  16.285  0.00  0.00    +0.000 A 
ATOM     24  C   UNL     1      50.856   7.320  16.586  0.00  0.00    +0.000 A 
ATOM     25  S   UNL     1      51.876   6.264  17.452  0.00  0.00    +0.000 S 
ATOM     26  C   UNL     1      50.714   5.023  17.408  0.00  0.00    +0.000 A 
ATOM     27  N   UNL     1      50.978   3.801  17.943  0.00  0.00    +0.000 NA
ATOM     28  C   UNL     1      50.026   2.940  17.799  0.00  0.00    +0.000 A 
ATOM     29  N   UNL     1      48.826   3.200  17.186  0.00  0.00    +0.000 N 
ATOM     30  C   UNL     1      48.490   4.438  16.690  0.00  0.00    +0.000 A 
ATOM     31  O   UNL     1      47.375   4.677  16.239  0.00  0.00    +0.000 OA
ATOM     32  C   UNL     1      49.548   5.425  16.779  0.00  0.00    +0.000 A 
ATOM     33  H   UNL     1      48.118   2.482  17.127  0.00  0.00    +0.000 HD
ENDBRANCH  20  23
ENDBRANCH   1  19
BRANCH   1  35
ATOM     34  N   UNL     1      48.290   9.629  12.079  0.00  0.00    +0.000 NA
ATOM     35  C   UNL     1      47.786   8.838  12.765  0.00  0.00    +0.000 C 
ENDBRANCH   1  35
TORSDOF 7
ENDMDL
MODEL 4
REMARK VINA RESULT:    -7.150      4.054      5.366
REMARK INTER + INTRA:         -11.272
REMARK INTER:                 -10.084
REMARK INTRA:                  -1.188
REMARK UNBOUND:                -1.195
REMARK  Name = 
REMARK  7 active torsions:
REMARK  status: ('A' for Active; 'I' for Inactive)
REMARK    1  A    between atoms: C_2  and  C_3
REMARK    2  A    between atoms: C_3  and  N_4
REMARK    3  A    between atoms: C_3  and  C_17
REMARK    4  A    between atoms: C_5  and  C_7
REMARK    5  A    between atoms: C_20  and  C_21
REMARK    6  A    between atoms: C_21  and  N_22
REMARK    7  A    between atoms: C_23  and  C_25
REMARK                            x       y       z     vdW  Elec       q    Type
REMARK                         _______ _______ _______ _____ _____    ______ ____
ROOT
ATOM      1  C   UNL     1      46.089   9.087  12.456  0.00  0.00    +0.000 C 
ENDROOT
BRANCH   1   2
ATOM      2  C   UNL     1      45.559   7.692  12.136  0.00  0.00    +0.000 A 
ATOM      3  C   UNL     1      46.392   6.572  12.317  0.00  0.00    +0.000 A 
ATOM      4  C   UNL     1      45.939   5.279  12.028  0.00  0.00    +0.000 A 
ATOM      5  C   UNL     1      44.647   5.070  11.530  0.00  0.00    +0.000 A 
ATOM      6  C   UNL     1      43.808   6.179  11.363  0.00  0.00    +0.000 A 
ATOM      7  C   UNL     1      44.261   7.475  11.645  0.00  0.00    +0.000 A 
BRANCH   5   8
ATOM      8  C   UNL     1      44.168   3.687  11.170  0.00  0.00    +0.000 C 
BRANCH   8   9
ATOM      9  N   UNL     1      45.017   3.047  10.199  0.00  0.00    +0.000 N 
ATOM     10  C   UNL     1      44.967   3.409   8.872  0.00  0.00    +0.000 C 
ATOM     11  O   UNL     1      44.177   4.249   8.448  0.00  0.00    +0.000 OA
ATOM     12  H   UNL     1      45.728   2.410  10.521  0.00  0.00    +0.000 HD
BRANCH  10  13
ATOM     13  C   UNL     1      45.914   2.736   8.007  0.00  0.00    +0.000 A 
ATOM     14  C   UNL     1      46.626   3.163   6.896  0.00  0.00    +0.000 A 
ATOM     15  C   UNL     1      47.406   2.077   6.425  0.00  0.00    +0.000 A 
ATOM     16  C   UNL     1      47.163   1.010   7.255  0.00  0.00    +0.000 A 
ATOM     17  N   UNL     1      46.269   1.417   8.210  0.00  0.00    +0.000 N 
ATOM     18  H   UNL     1      45.904   0.847   8.964  0.00  0.00    +0.000 HD
ENDBRANCH  10  13
ENDBRANCH   8   9
ENDBRANCH   5   8
ENDBRANCH   1   2
BRANCH   1  19
ATOM     19  N   UNL     1      47.381   9.301  11.816  0.00  0.00    +0.000 N 
ATOM     20  C   UNL     1      48.378   9.969  12.483  0.00  0.00    +0.000 C 
ATOM     21  O   UNL     1      48.226  10.345  13.642  0.00  0.00    +0.000 OA
ATOM     22  H   UNL     1      47.433   9.199  10.805  0.00  0.00    +0.000 HD
BRANCH  20  23
ATOM     23  C   UNL     1      49.658  10.152  11.790  0.00  0.00    +0.000 A 
ATOM     24  C   UNL     1      50.087  11.437  11.484  0.00  0.00    +0.000 A 
ATOM     25  S   UNL     1      51.593  11.488  10.687  0.00  0.00    +0.000 S 
ATOM     26  C   UNL     1      51.700   9.790  10.672  0.00  0.00    +0.000 A 
ATOM     27  N   UNL     1      52.751   9.163  10.079  0.00  0.00    +0.000 NA
ATOM     28  C   UNL     1      52.682   7.874  10.101  0.00  0.00    +0.000 A 
ATOM     29  N   UNL     1      51.666   7.156  10.682  0.00  0.00    +0.000 N 
ATOM     30  C   UNL     1      50.618   7.747  11.349  0.00  0.00    +0.000 A 
ATOM     31  O   UNL     1      49.776   7.088  11.950  0.00  0.00    +0.000 OA
ATOM     32  C   UNL     1      50.622   9.196  11.305  0.00  0.00    +0.000 A 
ATOM     33  H   UNL     1      51.688   6.147  10.678  0.00  0.00    +0.000 HD
ENDBRANCH  20  23
ENDBRANCH   1  19
BRANCH   1  35
ATOM     34  N   UNL     1      44.372  11.009  11.850  0.00  0.00    +0.000 NA
ATOM     35  C   UNL     1      45.126  10.169  12.126  0.00  0.00    +0.000 C 
ENDBRANCH   1  35
TORSDOF 7
ENDMDL
MODEL 5
REMARK VINA RESULT:    -7.125      4.655      6.754
REMARK INTER + INTRA:         -11.236
REMARK INTER:                 -10.383
REMARK INTRA:                  -0.853
REMARK UNBOUND:                -1.195
REMARK  Name = 
REMARK  7 active torsions:
REMARK  status: ('A' for Active; 'I' for Inactive)
REMARK    1  A    between atoms: C_2  and  C_3
REMARK    2  A    between atoms: C_3  and  N_4
REMARK    3  A    between atoms: C_3  and  C_17
REMARK    4  A    between atoms: C_5  and  C_7
REMARK    5  A    between atoms: C_20  and  C_21
REMARK    6  A    between atoms: C_21  and  N_22
REMARK    7  A    between atoms: C_23  and  C_25
REMARK                            x       y       z     vdW  Elec       q    Type
REMARK                         _______ _______ _______ _____ _____    ______ ____
ROOT
ATOM      1  C   UNL     1      45.991   5.041  13.090  0.00  0.00    +0.000 C 
ENDROOT
BRANCH   1   2
ATOM      2  C   UNL     1      45.559   6.436  12.644  0.00  0.00    +0.000 A 
ATOM      3  C   UNL     1      46.172   7.569  13.210  0.00  0.00    +0.000 A 
ATOM      4  C   UNL     1      45.796   8.862  12.828  0.00  0.00    +0.000 A 
ATOM      5  C   UNL     1      44.782   9.061  11.883  0.00  0.00    +0.000 A 
ATOM      6  C   UNL     1      44.179   7.937  11.304  0.00  0.00    +0.000 A 
ATOM      7  C   UNL     1      44.548   6.642  11.690  0.00  0.00    +0.000 A 
BRANCH   5   8
ATOM      8  C   UNL     1      44.338  10.450  11.502  0.00  0.00    +0.000 C 
BRANCH   8   9
ATOM      9  N   UNL     1      42.953  10.690  11.817  0.00  0.00    +0.000 N 
ATOM     10  C   UNL     1      41.979  10.569  10.852  0.00  0.00    +0.000 C 
ATOM     11  O   UNL     1      42.242  10.300   9.682  0.00  0.00    +0.000 OA
ATOM     12  H   UNL     1      42.692  10.836  12.779  0.00  0.00    +0.000 HD
BRANCH  10  13
ATOM     13  C   UNL     1      40.620  10.774  11.308  0.00  0.00    +0.000 A 
ATOM     14  C   UNL     1      40.094  11.483  12.377  0.00  0.00    +0.000 A 
ATOM     15  C   UNL     1      38.684  11.334  12.358  0.00  0.00    +0.000 A 
ATOM     16  C   UNL     1      38.372  10.545  11.277  0.00  0.00    +0.000 A 
ATOM     17  N   UNL     1      39.543  10.217  10.646  0.00  0.00    +0.000 N 
ATOM     18  H   UNL     1      39.630   9.647   9.812  0.00  0.00    +0.000 HD
ENDBRANCH  10  13
ENDBRANCH   8   9
ENDBRANCH   5   8
ENDBRANCH   1   2
BRANCH   1  19
ATOM     19  N   UNL     1      46.568   5.090  14.427  0.00  0.00    +0.000 N 
ATOM     20  C   UNL     1      47.275   4.017  14.911  0.00  0.00    +0.000 C 
ATOM     21  O   UNL     1      47.484   3.027  14.216  0.00  0.00    +0.000 OA
ATOM     22  H   UNL     1      46.214   5.791  15.073  0.00  0.00    +0.000 HD
BRANCH  20  23
ATOM     23  C   UNL     1      47.836   4.123  16.263  0.00  0.00    +0.000 A 
ATOM     24  C   UNL     1      47.488   3.178  17.219  0.00  0.00    +0.000 A 
ATOM     25  S   UNL     1      48.225   3.431  18.736  0.00  0.00    +0.000 S 
ATOM     26  C   UNL     1      48.991   4.845  18.184  0.00  0.00    +0.000 A 
ATOM     27  N   UNL     1      49.757   5.595  19.022  0.00  0.00    +0.000 NA
ATOM     28  C   UNL     1      50.241   6.665  18.486  0.00  0.00    +0.000 A 
ATOM     29  N   UNL     1      50.045   7.041  17.180  0.00  0.00    +0.000 N 
ATOM     30  C   UNL     1      49.333   6.282  16.281  0.00  0.00    +0.000 A 
ATOM     31  O   UNL     1      49.255   6.582  15.094  0.00  0.00    +0.000 OA
ATOM     32  C   UNL     1      48.723   5.096  16.850  0.00  0.00    +0.000 A 
ATOM     33  H   UNL     1      50.471   7.884  16.823  0.00  0.00    +0.000 HD
ENDBRANCH  20  23
ENDBRANCH   1  19
BRANCH   1  35
ATOM     34  N   UNL     1      44.055   3.244  12.907  0.00  0.00    +0.000 NA
ATOM     35  C   UNL     1      44.902   4.035  12.998  0.00  0.00    +0.000 C 
ENDBRANCH   1  35
TORSDOF 7
ENDMDL
MODEL 6
REMARK VINA RESULT:    -6.852      2.130      3.217
REMARK INTER + INTRA:         -10.851
REMARK INTER:                 -10.217
REMARK INTRA:                  -0.634
REMARK UNBOUND:                -1.195
REMARK  Name = 
REMARK  7 active torsions:
REMARK  status: ('A' for Active; 'I' for Inactive)
REMARK    1  A    between atoms: C_2  and  C_3
REMARK    2  A    between atoms: C_3  and  N_4
REMARK    3  A    between atoms: C_3  and  C_17
REMARK    4  A    between atoms: C_5  and  C_7
REMARK    5  A    between atoms: C_20  and  C_21
REMARK    6  A    between atoms: C_21  and  N_22
REMARK    7  A    between atoms: C_23  and  C_25
REMARK                            x       y       z     vdW  Elec       q    Type
REMARK                         _______ _______ _______ _____ _____    ______ ____
ROOT
ATOM      1  C   UNL     1      47.693   8.151  13.331  0.00  0.00    +0.000 C 
ENDROOT
BRANCH   1   2
ATOM      2  C   UNL     1      46.665   7.282  12.610  0.00  0.00    +0.000 A 
ATOM      3  C   UNL     1      46.818   5.883  12.604  0.00  0.00    +0.000 A 
ATOM      4  C   UNL     1      45.898   5.058  11.947  0.00  0.00    +0.000 A 
ATOM      5  C   UNL     1      44.808   5.608  11.261  0.00  0.00    +0.000 A 
ATOM      6  C   UNL     1      44.641   6.998  11.277  0.00  0.00    +0.000 A 
ATOM      7  C   UNL     1      45.566   7.827  11.927  0.00  0.00    +0.000 A 
BRANCH   5   8
ATOM      8  C   UNL     1      43.839   4.730  10.512  0.00  0.00    +0.000 C 
BRANCH   8   9
ATOM      9  N   UNL     1      44.496   3.654   9.817  0.00  0.00    +0.000 N 
ATOM     10  C   UNL     1      45.355   3.911   8.772  0.00  0.00    +0.000 C 
ATOM     11  O   UNL     1      45.564   5.048   8.356  0.00  0.00    +0.000 OA
ATOM     12  H   UNL     1      44.409   2.717  10.178  0.00  0.00    +0.000 HD
BRANCH  10  13
ATOM     13  C   UNL     1      46.001   2.750   8.196  0.00  0.00    +0.000 A 
ATOM     14  C   UNL     1      45.848   1.390   8.423  0.00  0.00    +0.000 A 
ATOM     15  C   UNL     1      46.754   0.695   7.583  0.00  0.00    +0.000 A 
ATOM     16  C   UNL     1      47.439   1.636   6.854  0.00  0.00    +0.000 A 
ATOM     17  N   UNL     1      46.975   2.871   7.224  0.00  0.00    +0.000 N 
ATOM     18  H   UNL     1      47.289   3.760   6.852  0.00  0.00    +0.000 HD
ENDBRANCH  10  13
ENDBRANCH   8   9
ENDBRANCH   5   8
ENDBRANCH   1   2
BRANCH   1  19
ATOM     19  N   UNL     1      47.706   7.849  14.756  0.00  0.00    +0.000 N 
ATOM     20  C   UNL     1      48.322   8.705  15.635  0.00  0.00    +0.000 C 
ATOM     21  O   UNL     1      48.817   9.762  15.253  0.00  0.00    +0.000 OA
ATOM     22  H   UNL     1      47.507   6.894  15.042  0.00  0.00    +0.000 HD
BRANCH  20  23
ATOM     23  C   UNL     1      48.301   8.352  17.059  0.00  0.00    +0.000 A 
ATOM     24  C   UNL     1      47.868   9.291  17.986  0.00  0.00    +0.000 A 
ATOM     25  S   UNL     1      47.895   8.731  19.596  0.00  0.00    +0.000 S 
ATOM     26  C   UNL     1      48.539   7.232  19.118  0.00  0.00    +0.000 A 
ATOM     27  N   UNL     1      48.852   6.282  20.039  0.00  0.00    +0.000 NA
ATOM     28  C   UNL     1      49.376   5.211  19.543  0.00  0.00    +0.000 A 
ATOM     29  N   UNL     1      49.594   4.997  18.204  0.00  0.00    +0.000 N 
ATOM     30  C   UNL     1      49.233   5.902  17.233  0.00  0.00    +0.000 A 
ATOM     31  O   UNL     1      49.341   5.650  16.037  0.00  0.00    +0.000 OA
ATOM     32  C   UNL     1      48.691   7.145  17.745  0.00  0.00    +0.000 A 
ATOM     33  H   UNL     1      49.990   4.125  17.885  0.00  0.00    +0.000 HD
ENDBRANCH  20  23
ENDBRANCH   1  19
BRANCH   1  35
ATOM     34  N   UNL     1      50.109   8.000  12.256  0.00  0.00    +0.000 NA
ATOM     35  C   UNL     1      49.053   8.062  12.737  0.00  0.00    +0.000 C 
ENDBRANCH   1  35
TORSDOF 7
ENDMDL
MODEL 7
REMARK VINA RESULT:    -6.715      4.432      8.624
REMARK INTER + INTRA:         -10.658
REMARK INTER:                  -9.545
REMARK INTRA:                  -1.114
REMARK UNBOUND:                -1.195
REMARK  Name = 
REMARK  7 active torsions:
REMARK  status: ('A' for Active; 'I' for Inactive)
REMARK    1  A    between atoms: C_2  and  C_3
REMARK    2  A    between atoms: C_3  and  N_4
REMARK    3  A    between atoms: C_3  and  C_17
REMARK    4  A    between atoms: C_5  and  C_7
REMARK    5  A    between atoms: C_20  and  C_21
REMARK    6  A    between atoms: C_21  and  N_22
REMARK    7  A    between atoms: C_23  and  C_25
REMARK                            x       y       z     vdW  Elec       q    Type
REMARK                         _______ _______ _______ _____ _____    ______ ____
ROOT
ATOM      1  C   UNL     1      49.130   7.695  15.221  0.00  0.00    +0.000 C 
ENDROOT
BRANCH   1   2
ATOM      2  C   UNL     1      49.619   6.561  16.119  0.00  0.00    +0.000 A 
ATOM      3  C   UNL     1      48.694   5.639  16.642  0.00  0.00    +0.000 A 
ATOM      4  C   UNL     1      49.108   4.592  17.474  0.00  0.00    +0.000 A 
ATOM      5  C   UNL     1      50.456   4.448  17.825  0.00  0.00    +0.000 A 
ATOM      6  C   UNL     1      51.384   5.354  17.294  0.00  0.00    +0.000 A 
ATOM      7  C   UNL     1      50.971   6.407  16.467  0.00  0.00    +0.000 A 
BRANCH   5   8
ATOM      8  C   UNL     1      50.903   3.353  18.758  0.00  0.00    +0.000 C 
BRANCH   8   9
ATOM      9  N   UNL     1      52.133   2.736  18.332  0.00  0.00    +0.000 N 
ATOM     10  C   UNL     1      52.120   1.563  17.612  0.00  0.00    +0.000 C 
ATOM     11  O   UNL     1      51.079   0.967  17.343  0.00  0.00    +0.000 OA
ATOM     12  H   UNL     1      52.999   3.233  18.468  0.00  0.00    +0.000 HD
BRANCH  10  13
ATOM     13  C   UNL     1      53.416   1.077  17.189  0.00  0.00    +0.000 A 
ATOM     14  C   UNL     1      54.655   1.693  17.089  0.00  0.00    +0.000 A 
ATOM     15  C   UNL     1      55.586   0.742  16.602  0.00  0.00    +0.000 A 
ATOM     16  C   UNL     1      54.906  -0.438  16.419  0.00  0.00    +0.000 A 
ATOM     17  N   UNL     1      53.602  -0.230  16.782  0.00  0.00    +0.000 N 
ATOM     18  H   UNL     1      52.861  -0.922  16.759  0.00  0.00    +0.000 HD
ENDBRANCH  10  13
ENDBRANCH   8   9
ENDBRANCH   5   8
ENDBRANCH   1   2
BRANCH   1  19
ATOM     19  N   UNL     1      47.883   7.322  14.565  0.00  0.00    +0.000 N 
ATOM     20  C   UNL     1      47.908   6.706  13.338  0.00  0.00    +0.000 C 
ATOM     21  O   UNL     1      48.970   6.403  12.800  0.00  0.00    +0.000 OA
ATOM     22  H   UNL     1      47.026   7.764  14.887  0.00  0.00    +0.000 HD
BRANCH  20  23
ATOM     23  C   UNL     1      46.623   6.352  12.726  0.00  0.00    +0.000 A 
ATOM     24  C   UNL     1      45.839   7.352  12.165  0.00  0.00    +0.000 A 
ATOM     25  S   UNL     1      44.381   6.784  11.488  0.00  0.00    +0.000 S 
ATOM     26  C   UNL     1      44.719   5.189  11.970  0.00  0.00    +0.000 A 
ATOM     27  N   UNL     1      43.830   4.187  11.735  0.00  0.00    +0.000 NA
ATOM     28  C   UNL     1      44.192   3.035  12.194  0.00  0.00    +0.000 A 
ATOM     29  N   UNL     1      45.375   2.793  12.848  0.00  0.00    +0.000 N 
ATOM     30  C   UNL     1      46.332   3.761  13.049  0.00  0.00    +0.000 A 
ATOM     31  O   UNL     1      47.424   3.503  13.543  0.00  0.00    +0.000 OA
ATOM     32  C   UNL     1      45.947   5.084  12.600  0.00  0.00    +0.000 A 
ATOM     33  H   UNL     1      45.602   1.861  13.162  0.00  0.00    +0.000 HD
ENDBRANCH  20  23
ENDBRANCH   1  19
BRANCH   1  35
ATOM     34  N   UNL     1      48.934  10.017  16.476  0.00  0.00    +0.000 NA
ATOM     35  C   UNL     1      49.012   8.994  15.931  0.00  0.00    +0.000 C 
ENDBRANCH   1  35
TORSDOF 7
ENDMDL
MODEL 8
REMARK VINA RESULT:    -6.558      3.151      5.108
REMARK INTER + INTRA:         -10.436
REMARK INTER:                  -9.376
REMARK INTRA:                  -1.061
REMARK UNBOUND:                -1.195
REMARK  Name = 
REMARK  7 active torsions:
REMARK  status: ('A' for Active; 'I' for Inactive)
REMARK    1  A    between atoms: C_2  and  C_3
REMARK    2  A    between atoms: C_3  and  N_4
REMARK    3  A    between atoms: C_3  and  C_17
REMARK    4  A    between atoms: C_5  and  C_7
REMARK    5  A    between atoms: C_20  and  C_21
REMARK    6  A    between atoms: C_21  and  N_22
REMARK    7  A    between atoms: C_23  and  C_25
REMARK                            x       y       z     vdW  Elec       q    Type
REMARK                         _______ _______ _______ _____ _____    ______ ____
ROOT
ATOM      1  C   UNL     1      49.574   8.292  15.361  0.00  0.00    +0.000 C 
ENDROOT
BRANCH   1   2
ATOM      2  C   UNL     1      48.415   7.813  14.490  0.00  0.00    +0.000 A 
ATOM      3  C   UNL     1      47.500   8.749  13.973  0.00  0.00    +0.000 A 
ATOM      4  C   UNL     1      46.422   8.343  13.177  0.00  0.00    +0.000 A 
ATOM      5  C   UNL     1      46.217   6.988  12.891  0.00  0.00    +0.000 A 
ATOM      6  C   UNL     1      47.133   6.053  13.389  0.00  0.00    +0.000 A 
ATOM      7  C   UNL     1      48.208   6.456  14.192  0.00  0.00    +0.000 A 
BRANCH   5   8
ATOM      8  C   UNL     1      45.032   6.538  12.074  0.00  0.00    +0.000 C 
BRANCH   8   9
ATOM      9  N   UNL     1      45.392   5.566  11.074  0.00  0.00    +0.000 N 
ATOM     10  C   UNL     1      44.503   4.589  10.689  0.00  0.00    +0.000 C 
ATOM     11  O   UNL     1      43.393   4.469  11.203  0.00  0.00    +0.000 OA
ATOM     12  H   UNL     1      46.262   5.679  10.577  0.00  0.00    +0.000 HD
BRANCH  10  13
ATOM     13  C   UNL     1      44.960   3.712   9.631  0.00  0.00    +0.000 A 
ATOM     14  C   UNL     1      45.389   3.960   8.335  0.00  0.00    +0.000 A 
ATOM     15  C   UNL     1      45.711   2.720   7.729  0.00  0.00    +0.000 A 
ATOM     16  C   UNL     1      45.480   1.737   8.662  0.00  0.00    +0.000 A 
ATOM     17  N   UNL     1      45.034   2.344   9.807  0.00  0.00    +0.000 N 
ATOM     18  H   UNL     1      44.786   1.874  10.670  0.00  0.00    +0.000 HD
ENDBRANCH  10  13
ENDBRANCH   8   9
ENDBRANCH   5   8
ENDBRANCH   1   2
BRANCH   1  19
ATOM     19  N   UNL     1      50.409   7.167  15.762  0.00  0.00    +0.000 N 
ATOM     20  C   UNL     1      50.355   6.694  17.049  0.00  0.00    +0.000 C 
ATOM     21  O   UNL     1      49.568   7.162  17.867  0.00  0.00    +0.000 OA
ATOM     22  H   UNL     1      51.205   6.932  15.174  0.00  0.00    +0.000 HD
BRANCH  20  23
ATOM     23  C   UNL     1      51.216   5.558  17.395  0.00  0.00    +0.000 A 
ATOM     24  C   UNL     1      52.517   5.796  17.819  0.00  0.00    +0.000 A 
ATOM     25  S   UNL     1      53.390   4.379  18.191  0.00  0.00    +0.000 S 
ATOM     26  C   UNL     1      52.078   3.393  17.745  0.00  0.00    +0.000 A 
ATOM     27  N   UNL     1      52.181   2.038  17.782  0.00  0.00    +0.000 NA
ATOM     28  C   UNL     1      51.127   1.413  17.374  0.00  0.00    +0.000 A 
ATOM     29  N   UNL     1      49.972   2.023  16.953  0.00  0.00    +0.000 N 
ATOM     30  C   UNL     1      49.800   3.388  16.961  0.00  0.00    +0.000 A 
ATOM     31  O   UNL     1      48.726   3.910  16.680  0.00  0.00    +0.000 OA
ATOM     32  C   UNL     1      50.976   4.136  17.360  0.00  0.00    +0.000 A 
ATOM     33  H   UNL     1      49.178   1.470  16.666  0.00  0.00    +0.000 HD
ENDBRANCH  20  23
ENDBRANCH   1  19
BRANCH   1  35
ATOM     34  N   UNL     1      51.011  10.205  14.228  0.00  0.00    +0.000 NA
ATOM     35  C   UNL     1      50.373   9.373  14.728  0.00  0.00    +0.000 C 
ENDBRANCH   1  35
TORSDOF 7
ENDMDL
MODEL 9
REMARK VINA RESULT:    -6.276      2.556      4.044
REMARK INTER + INTRA:         -10.039
REMARK INTER:                  -8.871
REMARK INTRA:                  -1.169
REMARK UNBOUND:                -1.195
REMARK  Name = 
REMARK  7 active torsions:
REMARK  status: ('A' for Active; 'I' for Inactive)
REMARK    1  A    between atoms: C_2  and  C_3
REMARK    2  A    between atoms: C_3  and  N_4
REMARK    3  A    between atoms: C_3  and  C_17
REMARK    4  A    between atoms: C_5  and  C_7
REMARK    5  A    between atoms: C_20  and  C_21
REMARK    6  A    between atoms: C_21  and  N_22
REMARK    7  A    between atoms: C_23  and  C_25
REMARK                            x       y       z     vdW  Elec       q    Type
REMARK                         _______ _______ _______ _____ _____    ______ ____
ROOT
ATOM      1  C   UNL     1      49.205   8.683  14.889  0.00  0.00    +0.000 C 
ENDROOT
BRANCH   1   2
ATOM      2  C   UNL     1      48.107   8.055  14.035  0.00  0.00    +0.000 A 
ATOM      3  C   UNL     1      47.015   8.839  13.618  0.00  0.00    +0.000 A 
ATOM      4  C   UNL     1      45.987   8.294  12.839  0.00  0.00    +0.000 A 
ATOM      5  C   UNL     1      46.011   6.943  12.472  0.00  0.00    +0.000 A 
ATOM      6  C   UNL     1      47.102   6.160  12.870  0.00  0.00    +0.000 A 
ATOM      7  C   UNL     1      48.128   6.703  13.656  0.00  0.00    +0.000 A 
BRANCH   5   8
ATOM      8  C   UNL     1      44.885   6.335  11.674  0.00  0.00    +0.000 C 
BRANCH   8   9
ATOM      9  N   UNL     1      45.357   5.419  10.669  0.00  0.00    +0.000 N 
ATOM     10  C   UNL     1      44.651   4.275  10.372  0.00  0.00    +0.000 C 
ATOM     11  O   UNL     1      43.626   3.959  10.971  0.00  0.00    +0.000 OA
ATOM     12  H   UNL     1      46.149   5.681  10.105  0.00  0.00    +0.000 HD
BRANCH  10  13
ATOM     13  C   UNL     1      45.195   3.468   9.300  0.00  0.00    +0.000 A 
ATOM     14  C   UNL     1      45.645   3.789   8.028  0.00  0.00    +0.000 A 
ATOM     15  C   UNL     1      46.064   2.595   7.390  0.00  0.00    +0.000 A 
ATOM     16  C   UNL     1      45.869   1.567   8.280  0.00  0.00    +0.000 A 
ATOM     17  N   UNL     1      45.352   2.101   9.431  0.00  0.00    +0.000 N 
ATOM     18  H   UNL     1      45.110   1.586  10.269  0.00  0.00    +0.000 HD
ENDBRANCH  10  13
ENDBRANCH   8   9
ENDBRANCH   5   8
ENDBRANCH   1   2
BRANCH   1  19
ATOM     19  N   UNL     1      49.249   8.057  16.204  0.00  0.00    +0.000 N 
ATOM     20  C   UNL     1      48.494   8.563  17.233  0.00  0.00    +0.000 C 
ATOM     21  O   UNL     1      47.729   9.507  17.056  0.00  0.00    +0.000 OA
ATOM     22  H   UNL     1      50.030   7.439  16.411  0.00  0.00    +0.000 HD
BRANCH  20  23
ATOM     23  C   UNL     1      48.576   7.891  18.534  0.00  0.00    +0.000 A 
ATOM     24  C   UNL     1      48.763   8.651  19.681  0.00  0.00    +0.000 A 
ATOM     25  S   UNL     1      48.831   7.730  21.114  0.00  0.00    +0.000 S 
ATOM     26  C   UNL     1      48.668   6.276  20.247  0.00  0.00    +0.000 A 
ATOM     27  N   UNL     1      48.698   5.076  20.886  0.00  0.00    +0.000 NA
ATOM     28  C   UNL     1      48.610   4.053  20.103  0.00  0.00    +0.000 A 
ATOM     29  N   UNL     1      48.474   4.125  18.739  0.00  0.00    +0.000 N 
ATOM     30  C   UNL     1      48.373   5.315  18.057  0.00  0.00    +0.000 A 
ATOM     31  O   UNL     1      48.148   5.358  16.852  0.00  0.00    +0.000 OA
ATOM     32  C   UNL     1      48.521   6.494  18.888  0.00  0.00    +0.000 A 
ATOM     33  H   UNL     1      48.390   3.282  18.190  0.00  0.00    +0.000 HD
ENDBRANCH  20  23
ENDBRANCH   1  19
BRANCH   1  35
ATOM     34  N   UNL     1      51.583   8.679  13.723  0.00  0.00    +0.000 NA
ATOM     35  C   UNL     1      50.537   8.672  14.229  0.00  0.00    +0.000 C 
ENDBRANCH   1  35
TORSDOF 7
ENDMDL
