MODEL 1
REMARK VINA RESULT:    -8.643      0.000      0.000
REMARK INTER + INTRA:         -12.488
REMARK INTER:                 -11.675
REMARK INTRA:                  -0.813
REMARK UNBOUND:                -0.813
REMARK  Name = 
REMARK  6 active torsions:
REMARK  status: ('A' for Active; 'I' for Inactive)
REMARK    1  A    between atoms: C_2  and  C_25
REMARK    2  A    between atoms: N_3  and  C_4
REMARK    3  A    between atoms: C_4  and  C_5
REMARK    4  A    between atoms: C_8  and  C_9
REMARK    5  A    between atoms: C_9  and  N_10
REMARK    6  A    between atoms: C_11  and  C_13
REMARK                            x       y       z     vdW  Elec       q    Type
REMARK                         _______ _______ _______ _____ _____    ______ ____
ROOT
ATOM      1  C   UNL     1      44.887   6.104  11.615  0.00  0.00    +0.000 C 
ATOM      2  C   UNL     1      44.558   7.592  11.794  0.00  0.00    +0.000 C 
ATOM      3  C   UNL     1      45.416   8.255  12.869  0.00  0.00    +0.000 C 
ATOM      4  C   UNL     1      46.918   8.084  12.596  0.00  0.00    +0.000 C 
ATOM      5  C   UNL     1      47.254   6.594  12.431  0.00  0.00    +0.000 C 
ATOM      6  C   UNL     1      46.394   5.923  11.358  0.00  0.00    +0.000 C 
ENDROOT
BRANCH   1   7
ATOM      7  C   UNL     1      44.070   5.502  10.456  0.00  0.00    +0.000 C 
BRANCH   7  10
ATOM      8  O   UNL     1      43.924   2.743   9.968  0.00  0.00    +0.000 OA
ATOM      9  C   UNL     1      44.737   3.409   9.338  0.00  0.00    +0.000 C 
ATOM     10  N   UNL     1      44.886   4.768   9.505  0.00  0.00    +0.000 N 
ATOM     11  H   UNL     1      45.572   5.238   8.928  0.00  0.00    +0.000 HD
BRANCH   9  12
ATOM     12  C   UNL     1      45.629   2.754   8.333  0.00  0.00    +0.000 A 
ATOM     13  C   UNL     1      46.004   3.483   7.208  0.00  0.00    +0.000 A 
ATOM     14  C   UNL     1      46.781   2.858   6.242  0.00  0.00    +0.000 A 
ATOM     15  C   UNL     1      47.147   1.530   6.428  0.00  0.00    +0.000 A 
ATOM     16  C   UNL     1      46.738   0.884   7.589  0.00  0.00    +0.000 A 
ATOM     17  N   UNL     1      45.993   1.463   8.559  0.00  0.00    +0.000 NA
ENDBRANCH   9  12
ENDBRANCH   7  10
ENDBRANCH   1   7
BRANCH   4  18
ATOM     18  C   UNL     1      47.778   8.704  13.715  0.00  0.00    +0.000 C 
BRANCH  18  19
ATOM     19  N   UNL     1      47.929   7.828  14.858  0.00  0.00    +0.000 N 
ATOM     20  C   UNL     1      49.137   7.281  15.210  0.00  0.00    +0.000 C 
ATOM     21  O   UNL     1      50.170   7.508  14.584  0.00  0.00    +0.000 OA
ATOM     22  H   UNL     1      47.080   7.438  15.255  0.00  0.00    +0.000 HD
BRANCH  20  23
ATOM     23  C   UNL     1      49.146   6.449  16.416  0.00  0.00    +0.000 A 
ATOM     24  C   UNL     1      49.902   6.830  17.517  0.00  0.00    +0.000 A 
ATOM     25  S   UNL     1      49.783   5.746  18.830  0.00  0.00    +0.000 S 
ATOM     26  C   UNL     1      48.746   4.714  17.955  0.00  0.00    +0.000 A 
ATOM     27  N   UNL     1      48.283   3.556  18.500  0.00  0.00    +0.000 NA
ATOM     28  C   UNL     1      47.516   2.871  17.717  0.00  0.00    +0.000 A 
ATOM     29  N   UNL     1      47.166   3.241  16.444  0.00  0.00    +0.000 N 
ATOM     30  C   UNL     1      47.607   4.400  15.857  0.00  0.00    +0.000 A 
ATOM     31  O   UNL     1      47.252   4.714  14.722  0.00  0.00    +0.000 OA
ATOM     32  C   UNL     1      48.478   5.204  16.691  0.00  0.00    +0.000 A 
ATOM     33  H   UNL     1      46.553   2.664  15.885  0.00  0.00    +0.000 HD
ENDBRANCH  20  23
ENDBRANCH  18  19
ENDBRANCH   4  18
TORSDOF 6
ENDMDL
MODEL 2
REMARK VINA RESULT:    -8.539      1.728      2.199
REMARK INTER + INTRA:         -12.347
REMARK INTER:                 -11.411
REMARK INTRA:                  -0.935
REMARK UNBOUND:                -0.813
REMARK  Name = 
REMARK  6 active torsions:
REMARK  status: ('A' for Active; 'I' for Inactive)
REMARK    1  A    between atoms: C_2  and  C_25
REMARK    2  A    between atoms: N_3  and  C_4
REMARK    3  A    between atoms: C_4  and  C_5
REMARK    4  A    between atoms: C_8  and  C_9
REMARK    5  A    between atoms: C_9  and  N_10
REMARK    6  A    between atoms: C_11  and  C_13
REMARK                            x       y       z     vdW  Elec       q    Type
REMARK                         _______ _______ _______ _____ _____    ______ ____
ROOT
ATOM      1  C   UNL     1      44.573   5.906  11.855  0.00  0.00    +0.000 C 
ATOM      2  C   UNL     1      44.957   7.330  11.429  0.00  0.00    +0.000 C 
ATOM      3  C   UNL     1      45.819   8.039  12.470  0.00  0.00    +0.000 C 
ATOM      4  C   UNL     1      47.086   7.239  12.812  0.00  0.00    +0.000 C 
ATOM      5  C   UNL     1      46.704   5.818  13.255  0.00  0.00    +0.000 C 
ATOM      6  C   UNL     1      45.835   5.105  12.216  0.00  0.00    +0.000 C 
ENDROOT
BRANCH   1   7
ATOM      7  C   UNL     1      43.788   5.197  10.735  0.00  0.00    +0.000 C 
BRANCH   7  10
ATOM      8  O   UNL     1      43.912   2.460  10.130  0.00  0.00    +0.000 OA
ATOM      9  C   UNL     1      44.635   3.231   9.511  0.00  0.00    +0.000 C 
ATOM     10  N   UNL     1      44.649   4.590   9.734  0.00  0.00    +0.000 N 
ATOM     11  H   UNL     1      45.268   5.152   9.163  0.00  0.00    +0.000 HD
BRANCH   9  12
ATOM     12  C   UNL     1      45.561   2.714   8.458  0.00  0.00    +0.000 A 
ATOM     13  C   UNL     1      45.916   3.564   7.415  0.00  0.00    +0.000 A 
ATOM     14  C   UNL     1      46.726   3.068   6.402  0.00  0.00    +0.000 A 
ATOM     15  C   UNL     1      47.143   1.743   6.462  0.00  0.00    +0.000 A 
ATOM     16  C   UNL     1      46.751   0.970   7.549  0.00  0.00    +0.000 A 
ATOM     17  N   UNL     1      45.975   1.422   8.562  0.00  0.00    +0.000 NA
ENDBRANCH   9  12
ENDBRANCH   7  10
ENDBRANCH   1   7
BRANCH   4  18
ATOM     18  C   UNL     1      47.922   7.931  13.907  0.00  0.00    +0.000 C 
BRANCH  18  19
ATOM     19  N   UNL     1      47.893   7.223  15.169  0.00  0.00    +0.000 N 
ATOM     20  C   UNL     1      49.016   6.663  15.723  0.00  0.00    +0.000 C 
ATOM     21  O   UNL     1      50.121   6.736  15.190  0.00  0.00    +0.000 OA
ATOM     22  H   UNL     1      46.982   6.944  15.520  0.00  0.00    +0.000 HD
BRANCH  20  23
ATOM     23  C   UNL     1      48.843   6.015  17.026  0.00  0.00    +0.000 A 
ATOM     24  C   UNL     1      49.110   4.660  17.169  0.00  0.00    +0.000 A 
ATOM     25  S   UNL     1      48.861   4.082  18.755  0.00  0.00    +0.000 S 
ATOM     26  C   UNL     1      48.351   5.617  19.293  0.00  0.00    +0.000 A 
ATOM     27  N   UNL     1      47.954   5.815  20.580  0.00  0.00    +0.000 NA
ATOM     28  C   UNL     1      47.586   7.026  20.840  0.00  0.00    +0.000 A 
ATOM     29  N   UNL     1      47.583   8.056  19.935  0.00  0.00    +0.000 N 
ATOM     30  C   UNL     1      47.977   7.902  18.630  0.00  0.00    +0.000 A 
ATOM     31  O   UNL     1      47.988   8.853  17.851  0.00  0.00    +0.000 OA
ATOM     32  C   UNL     1      48.395   6.558  18.281  0.00  0.00    +0.000 A 
ATOM     33  H   UNL     1      47.291   8.984  20.205  0.00  0.00    +0.000 HD
ENDBRANCH  20  23
ENDBRANCH  18  19
ENDBRANCH   4  18
TORSDOF 6
ENDMDL
MODEL 3
REMARK VINA RESULT:    -8.318      1.828      2.259
REMARK INTER + INTRA:         -12.048
REMARK INTER:                 -11.103
REMARK INTRA:                  -0.945
REMARK UNBOUND:                -0.813
REMARK  Name = 
REMARK  6 active torsions:
REMARK  status: ('A' for Active; 'I' for Inactive)
REMARK    1  A    between atoms: C_2  and  C_25
REMARK    2  A    between atoms: N_3  and  C_4
REMARK    3  A    between atoms: C_4  and  C_5
REMARK    4  A    between atoms: C_8  and  C_9
REMARK    5  A    between atoms: C_9  and  N_10
REMARK    6  A    between atoms: C_11  and  C_13
REMARK                            x       y       z     vdW  Elec       q    Type
REMARK                         _______ _______ _______ _____ _____    ______ ____
ROOT
ATOM      1  C   UNL     1      45.058   4.585  12.594  0.00  0.00    +0.000 C 
ATOM      2  C   UNL     1      45.506   5.774  11.734  0.00  0.00    +0.000 C 
ATOM      3  C   UNL     1      46.364   6.769  12.512  0.00  0.00    +0.000 C 
ATOM      4  C   UNL     1      47.590   6.098  13.151  0.00  0.00    +0.000 C 
ATOM      5  C   UNL     1      47.143   4.917  14.026  0.00  0.00    +0.000 C 
ATOM      6  C   UNL     1      46.279   3.919  13.252  0.00  0.00    +0.000 C 
ENDROOT
BRANCH   1   7
ATOM      7  C   UNL     1      44.280   3.562  11.745  0.00  0.00    +0.000 C 
BRANCH   7  10
ATOM      8  O   UNL     1      43.918   4.311   9.066  0.00  0.00    +0.000 OA
ATOM      9  C   UNL     1      44.790   3.493   9.334  0.00  0.00    +0.000 C 
ATOM     10  N   UNL     1      45.045   3.060  10.617  0.00  0.00    +0.000 N 
ATOM     11  H   UNL     1      45.796   2.394  10.745  0.00  0.00    +0.000 HD
BRANCH   9  12
ATOM     12  C   UNL     1      45.636   2.911   8.249  0.00  0.00    +0.000 A 
ATOM     13  C   UNL     1      46.078   1.599   8.387  0.00  0.00    +0.000 A 
ATOM     14  C   UNL     1      46.915   1.074   7.411  0.00  0.00    +0.000 A 
ATOM     15  C   UNL     1      47.288   1.880   6.341  0.00  0.00    +0.000 A 
ATOM     16  C   UNL     1      46.788   3.175   6.277  0.00  0.00    +0.000 A 
ATOM     17  N   UNL     1      45.959   3.716   7.200  0.00  0.00    +0.000 NA
ENDBRANCH   9  12
ENDBRANCH   7  10
ENDBRANCH   1   7
BRANCH   4  18
ATOM     18  C   UNL     1      48.420   7.094  13.984  0.00  0.00    +0.000 C 
BRANCH  18  19
ATOM     19  N   UNL     1      48.255   6.908  15.410  0.00  0.00    +0.000 N 
ATOM     20  C   UNL     1      48.974   7.628  16.332  0.00  0.00    +0.000 C 
ATOM     21  O   UNL     1      49.793   8.483  16.007  0.00  0.00    +0.000 OA
ATOM     22  H   UNL     1      47.771   6.069  15.713  0.00  0.00    +0.000 HD
BRANCH  20  23
ATOM     23  C   UNL     1      48.670   7.363  17.741  0.00  0.00    +0.000 A 
ATOM     24  C   UNL     1      48.204   8.386  18.556  0.00  0.00    +0.000 A 
ATOM     25  S   UNL     1      47.897   7.890  20.159  0.00  0.00    +0.000 S 
ATOM     26  C   UNL     1      48.411   6.301  19.826  0.00  0.00    +0.000 A 
ATOM     27  N   UNL     1      48.429   5.348  20.798  0.00  0.00    +0.000 NA
ATOM     28  C   UNL     1      48.852   4.193  20.401  0.00  0.00    +0.000 A 
ATOM     29  N   UNL     1      49.252   3.903  19.122  0.00  0.00    +0.000 N 
ATOM     30  C   UNL     1      49.247   4.830  18.111  0.00  0.00    +0.000 A 
ATOM     31  O   UNL     1      49.588   4.529  16.969  0.00  0.00    +0.000 OA
ATOM     32  C   UNL     1      48.788   6.148  18.504  0.00  0.00    +0.000 A 
ATOM     33  H   UNL     1      49.564   2.975  18.873  0.00  0.00    +0.000 HD
ENDBRANCH  20  23
ENDBRANCH  18  19
ENDBRANCH   4  18
TORSDOF 6
ENDMDL
MODEL 4
REMARK VINA RESULT:    -8.145      2.045      2.210
REMARK INTER + INTRA:         -11.815
REMARK INTER:                 -10.932
REMARK INTRA:                  -0.883
REMARK UNBOUND:                -0.813
REMARK  Name = 
REMARK  6 active torsions:
REMARK  status: ('A' for Active; 'I' for Inactive)
REMARK    1  A    between atoms: C_2  and  C_25
REMARK    2  A    between atoms: N_3  and  C_4
REMARK    3  A    between atoms: C_4  and  C_5
REMARK    4  A    between atoms: C_8  and  C_9
REMARK    5  A    between atoms: C_9  and  N_10
REMARK    6  A    between atoms: C_11  and  C_13
REMARK                            x       y       z     vdW  Elec       q    Type
REMARK                         _______ _______ _______ _____ _____    ______ ____
ROOT
ATOM      1  C   UNL     1      45.071   5.438  12.497  0.00  0.00    +0.000 C 
ATOM      2  C   UNL     1      45.887   6.530  11.793  0.00  0.00    +0.000 C 
ATOM      3  C   UNL     1      46.736   7.344  12.765  0.00  0.00    +0.000 C 
ATOM      4  C   UNL     1      47.671   6.455  13.600  0.00  0.00    +0.000 C 
ATOM      5  C   UNL     1      46.856   5.369  14.319  0.00  0.00    +0.000 C 
ATOM      6  C   UNL     1      45.998   4.553  13.349  0.00  0.00    +0.000 C 
ENDROOT
BRANCH   1   7
ATOM      7  C   UNL     1      44.308   4.581  11.469  0.00  0.00    +0.000 C 
BRANCH   7  10
ATOM      8  O   UNL     1      43.883   2.288   9.909  0.00  0.00    +0.000 OA
ATOM      9  C   UNL     1      44.845   3.003   9.653  0.00  0.00    +0.000 C 
ATOM     10  N   UNL     1      45.139   4.148  10.359  0.00  0.00    +0.000 N 
ATOM     11  H   UNL     1      45.945   4.685  10.066  0.00  0.00    +0.000 HD
BRANCH   9  12
ATOM     12  C   UNL     1      45.767   2.651   8.531  0.00  0.00    +0.000 A 
ATOM     13  C   UNL     1      46.113   3.646   7.623  0.00  0.00    +0.000 A 
ATOM     14  C   UNL     1      46.920   3.309   6.544  0.00  0.00    +0.000 A 
ATOM     15  C   UNL     1      47.343   1.991   6.406  0.00  0.00    +0.000 A 
ATOM     16  C   UNL     1      46.959   1.065   7.370  0.00  0.00    +0.000 A 
ATOM     17  N   UNL     1      46.187   1.359   8.442  0.00  0.00    +0.000 NA
ENDBRANCH   9  12
ENDBRANCH   7  10
ENDBRANCH   1   7
BRANCH   4  18
ATOM     18  C   UNL     1      48.483   7.276  14.621  0.00  0.00    +0.000 C 
BRANCH  18  19
ATOM     19  N   UNL     1      49.501   6.493  15.289  0.00  0.00    +0.000 N 
ATOM     20  C   UNL     1      49.411   6.151  16.616  0.00  0.00    +0.000 C 
ATOM     21  O   UNL     1      48.457   6.478  17.317  0.00  0.00    +0.000 OA
ATOM     22  H   UNL     1      50.396   6.402  14.820  0.00  0.00    +0.000 HD
BRANCH  20  23
ATOM     23  C   UNL     1      50.494   5.319  17.146  0.00  0.00    +0.000 A 
ATOM     24  C   UNL     1      51.638   5.913  17.662  0.00  0.00    +0.000 A 
ATOM     25  S   UNL     1      52.785   4.790  18.240  0.00  0.00    +0.000 S 
ATOM     26  C   UNL     1      51.806   3.472  17.785  0.00  0.00    +0.000 A 
ATOM     27  N   UNL     1      52.219   2.189  17.976  0.00  0.00    +0.000 NA
ATOM     28  C   UNL     1      51.377   1.295  17.573  0.00  0.00    +0.000 A 
ATOM     29  N   UNL     1      50.160   1.566  17.004  0.00  0.00    +0.000 N 
ATOM     30  C   UNL     1      49.702   2.842  16.796  0.00  0.00    +0.000 A 
ATOM     31  O   UNL     1      48.593   3.049  16.306  0.00  0.00    +0.000 OA
ATOM     32  C   UNL     1      50.613   3.886  17.223  0.00  0.00    +0.000 A 
ATOM     33  H   UNL     1      49.542   0.819  16.719  0.00  0.00    +0.000 HD
ENDBRANCH  20  23
ENDBRANCH  18  19
ENDBRANCH   4  18
TORSDOF 6
ENDMDL
MODEL 5
REMARK VINA RESULT:    -7.229      5.020      9.520
REMARK INTER + INTRA:         -10.578
REMARK INTER:                  -9.868
REMARK INTRA:                  -0.710
REMARK UNBOUND:                -0.813
REMARK  Name = 
REMARK  6 active torsions:
REMARK  status: ('A' for Active; 'I' for Inactive)
REMARK    1  A    between atoms: C_2  and  C_25
REMARK    2  A    between atoms: N_3  and  C_4
REMARK    3  A    between atoms: C_4  and  C_5
REMARK    4  A    between atoms: C_8  and  C_9
REMARK    5  A    between atoms: C_9  and  N_10
REMARK    6  A    between atoms: C_11  and  C_13
REMARK                            x       y       z     vdW  Elec       q    Type
REMARK                         _______ _______ _______ _____ _____    ______ ____
ROOT
ATOM      1  C   UNL     1      51.389   3.501  18.076  0.00  0.00    +0.000 C 
ATOM      2  C   UNL     1      50.826   2.298  17.308  0.00  0.00    +0.000 C 
ATOM      3  C   UNL     1      49.301   2.314  17.232  0.00  0.00    +0.000 C 
ATOM      4  C   UNL     1      48.767   3.619  16.620  0.00  0.00    +0.000 C 
ATOM      5  C   UNL     1      49.316   4.825  17.397  0.00  0.00    +0.000 C 
ATOM      6  C   UNL     1      50.845   4.810  17.480  0.00  0.00    +0.000 C 
ENDROOT
BRANCH   1   7
ATOM      7  C   UNL     1      52.929   3.495  18.043  0.00  0.00    +0.000 C 
BRANCH   7  10
ATOM      8  O   UNL     1      54.229   1.666  19.728  0.00  0.00    +0.000 OA
ATOM      9  C   UNL     1      54.106   1.386  18.542  0.00  0.00    +0.000 C 
ATOM     10  N   UNL     1      53.484   2.216  17.634  0.00  0.00    +0.000 N 
ATOM     11  H   UNL     1      53.414   1.894  16.677  0.00  0.00    +0.000 HD
BRANCH   9  12
ATOM     12  C   UNL     1      54.641   0.095  18.013  0.00  0.00    +0.000 A 
ATOM     13  C   UNL     1      54.696  -0.083  16.634  0.00  0.00    +0.000 A 
ATOM     14  C   UNL     1      55.135  -1.304  16.140  0.00  0.00    +0.000 A 
ATOM     15  C   UNL     1      55.492  -2.304  17.037  0.00  0.00    +0.000 A 
ATOM     16  C   UNL     1      55.419  -2.033  18.398  0.00  0.00    +0.000 A 
ATOM     17  N   UNL     1      55.011  -0.852  18.918  0.00  0.00    +0.000 NA
ENDBRANCH   9  12
ENDBRANCH   7  10
ENDBRANCH   1   7
BRANCH   4  18
ATOM     18  C   UNL     1      47.226   3.654  16.601  0.00  0.00    +0.000 C 
BRANCH  18  19
ATOM     19  N   UNL     1      46.698   4.579  15.621  0.00  0.00    +0.000 N 
ATOM     20  C   UNL     1      46.703   4.307  14.276  0.00  0.00    +0.000 C 
ATOM     21  O   UNL     1      47.147   3.256  13.818  0.00  0.00    +0.000 OA
ATOM     22  H   UNL     1      46.538   5.534  15.927  0.00  0.00    +0.000 HD
BRANCH  20  23
ATOM     23  C   UNL     1      46.095   5.317  13.407  0.00  0.00    +0.000 A 
ATOM     24  C   UNL     1      46.781   6.489  13.118  0.00  0.00    +0.000 A 
ATOM     25  S   UNL     1      45.923   7.542  12.086  0.00  0.00    +0.000 S 
ATOM     26  C   UNL     1      44.590   6.482  12.021  0.00  0.00    +0.000 A 
ATOM     27  N   UNL     1      43.472   6.800  11.314  0.00  0.00    +0.000 NA
ATOM     28  C   UNL     1      42.540   5.906  11.365  0.00  0.00    +0.000 A 
ATOM     29  N   UNL     1      42.627   4.723  12.052  0.00  0.00    +0.000 N 
ATOM     30  C   UNL     1      43.735   4.361  12.774  0.00  0.00    +0.000 A 
ATOM     31  O   UNL     1      43.790   3.279  13.358  0.00  0.00    +0.000 OA
ATOM     32  C   UNL     1      44.810   5.333  12.757  0.00  0.00    +0.000 A 
ATOM     33  H   UNL     1      41.864   4.060  12.044  0.00  0.00    +0.000 HD
ENDBRANCH  20  23
ENDBRANCH  18  19
ENDBRANCH   4  18
TORSDOF 6
ENDMDL
MODEL 6
REMARK VINA RESULT:    -7.039      2.184      2.602
REMARK INTER + INTRA:         -10.321
REMARK INTER:                  -9.808
REMARK INTRA:                  -0.513
REMARK UNBOUND:                -0.813
REMARK  Name = 
REMARK  6 active torsions:
REMARK  status: ('A' for Active; 'I' for Inactive)
REMARK    1  A    between atoms: C_2  and  C_25
REMARK    2  A    between atoms: N_3  and  C_4
REMARK    3  A    between atoms: C_4  and  C_5
REMARK    4  A    between atoms: C_8  and  C_9
REMARK    5  A    between atoms: C_9  and  N_10
REMARK    6  A    between atoms: C_11  and  C_13
REMARK                            x       y       z     vdW  Elec       q    Type
REMARK                         _______ _______ _______ _____ _____    ______ ____
ROOT
ATOM      1  C   UNL     1      45.560   5.779  11.309  0.00  0.00    +0.000 C 
ATOM      2  C   UNL     1      46.190   5.314  12.628  0.00  0.00    +0.000 C 
ATOM      3  C   UNL     1      47.170   6.334  13.201  0.00  0.00    +0.000 C 
ATOM      4  C   UNL     1      46.521   7.714  13.393  0.00  0.00    +0.000 C 
ATOM      5  C   UNL     1      45.903   8.190  12.070  0.00  0.00    +0.000 C 
ATOM      6  C   UNL     1      44.923   7.168  11.489  0.00  0.00    +0.000 C 
ENDROOT
BRANCH   1   7
ATOM      7  C   UNL     1      44.508   4.765  10.821  0.00  0.00    +0.000 C 
BRANCH   7  10
ATOM      8  O   UNL     1      45.891   5.126   8.406  0.00  0.00    +0.000 OA
ATOM      9  C   UNL     1      45.738   3.987   8.831  0.00  0.00    +0.000 C 
ATOM     10  N   UNL     1      45.075   3.705  10.005  0.00  0.00    +0.000 N 
ATOM     11  H   UNL     1      45.012   2.735  10.285  0.00  0.00    +0.000 HD
BRANCH   9  12
ATOM     12  C   UNL     1      46.281   2.821   8.070  0.00  0.00    +0.000 A 
ATOM     13  C   UNL     1      46.996   3.069   6.902  0.00  0.00    +0.000 A 
ATOM     14  C   UNL     1      47.448   1.987   6.159  0.00  0.00    +0.000 A 
ATOM     15  C   UNL     1      47.163   0.700   6.602  0.00  0.00    +0.000 A 
ATOM     16  C   UNL     1      46.453   0.547   7.788  0.00  0.00    +0.000 A 
ATOM     17  N   UNL     1      46.009   1.576   8.546  0.00  0.00    +0.000 NA
ENDBRANCH   9  12
ENDBRANCH   7  10
ENDBRANCH   1   7
BRANCH   4  18
ATOM     18  C   UNL     1      47.531   8.755  13.915  0.00  0.00    +0.000 C 
BRANCH  18  19
ATOM     19  N   UNL     1      47.505   8.890  15.355  0.00  0.00    +0.000 N 
ATOM     20  C   UNL     1      48.394   8.236  16.171  0.00  0.00    +0.000 C 
ATOM     21  O   UNL     1      49.275   7.502  15.730  0.00  0.00    +0.000 OA
ATOM     22  H   UNL     1      46.668   9.292  15.766  0.00  0.00    +0.000 HD
BRANCH  20  23
ATOM     23  C   UNL     1      48.275   8.503  17.607  0.00  0.00    +0.000 A 
ATOM     24  C   UNL     1      48.482   9.786  18.094  0.00  0.00    +0.000 A 
ATOM     25  S   UNL     1      48.293   9.909  19.785  0.00  0.00    +0.000 S 
ATOM     26  C   UNL     1      47.964   8.243  19.925  0.00  0.00    +0.000 A 
ATOM     27  N   UNL     1      47.735   7.671  21.139  0.00  0.00    +0.000 NA
ATOM     28  C   UNL     1      47.510   6.399  21.091  0.00  0.00    +0.000 A 
ATOM     29  N   UNL     1      47.489   5.650  19.943  0.00  0.00    +0.000 N 
ATOM     30  C   UNL     1      47.711   6.186  18.700  0.00  0.00    +0.000 A 
ATOM     31  O   UNL     1      47.657   5.489  17.688  0.00  0.00    +0.000 OA
ATOM     32  C   UNL     1      47.976   7.611  18.696  0.00  0.00    +0.000 A 
ATOM     33  H   UNL     1      47.296   4.659  19.973  0.00  0.00    +0.000 HD
ENDBRANCH  20  23
ENDBRANCH  18  19
ENDBRANCH   4  18
TORSDOF 6
ENDMDL
MODEL 7
REMARK VINA RESULT:    -6.825      5.096      7.526
REMARK INTER + INTRA:         -10.032
REMARK INTER:                  -9.175
REMARK INTRA:                  -0.857
REMARK UNBOUND:                -0.813
REMARK  Name = 
REMARK  6 active torsions:
REMARK  status: ('A' for Active; 'I' for Inactive)
REMARK    1  A    between atoms: C_2  and  C_25
REMARK    2  A    between atoms: N_3  and  C_4
REMARK    3  A    between atoms: C_4  and  C_5
REMARK    4  A    between atoms: C_8  and  C_9
REMARK    5  A    between atoms: C_9  and  N_10
REMARK    6  A    between atoms: C_11  and  C_13
REMARK                            x       y       z     vdW  Elec       q    Type
REMARK                         _______ _______ _______ _____ _____    ______ ____
ROOT
ATOM      1  C   UNL     1      50.893   9.124  11.498  0.00  0.00    +0.000 C 
ATOM      2  C   UNL     1      50.381   7.690  11.314  0.00  0.00    +0.000 C 
ATOM      3  C   UNL     1      49.160   7.388  12.179  0.00  0.00    +0.000 C 
ATOM      4  C   UNL     1      48.016   8.384  11.932  0.00  0.00    +0.000 C 
ATOM      5  C   UNL     1      48.521   9.821  12.131  0.00  0.00    +0.000 C 
ATOM      6  C   UNL     1      49.748  10.127  11.269  0.00  0.00    +0.000 C 
ENDROOT
BRANCH   1   7
ATOM      7  C   UNL     1      52.060   9.413  10.536  0.00  0.00    +0.000 C 
BRANCH   7  10
ATOM      8  O   UNL     1      52.785   9.007   7.856  0.00  0.00    +0.000 OA
ATOM      9  C   UNL     1      52.986   8.106   8.661  0.00  0.00    +0.000 C 
ATOM     10  N   UNL     1      52.666   8.207   9.997  0.00  0.00    +0.000 N 
ATOM     11  H   UNL     1      52.883   7.417  10.591  0.00  0.00    +0.000 HD
BRANCH   9  12
ATOM     12  C   UNL     1      53.603   6.820   8.214  0.00  0.00    +0.000 A 
ATOM     13  C   UNL     1      52.925   6.054   7.272  0.00  0.00    +0.000 A 
ATOM     14  C   UNL     1      53.465   4.830   6.900  0.00  0.00    +0.000 A 
ATOM     15  C   UNL     1      54.653   4.411   7.489  0.00  0.00    +0.000 A 
ATOM     16  C   UNL     1      55.269   5.249   8.412  0.00  0.00    +0.000 A 
ATOM     17  N   UNL     1      54.782   6.454   8.788  0.00  0.00    +0.000 NA
ENDBRANCH   9  12
ENDBRANCH   7  10
ENDBRANCH   1   7
BRANCH   4  18
ATOM     18  C   UNL     1      46.810   8.111  12.851  0.00  0.00    +0.000 C 
BRANCH  18  19
ATOM     19  N   UNL     1      46.191   6.826  12.600  0.00  0.00    +0.000 N 
ATOM     20  C   UNL     1      45.124   6.678  11.750  0.00  0.00    +0.000 C 
ATOM     21  O   UNL     1      44.633   7.624  11.139  0.00  0.00    +0.000 OA
ATOM     22  H   UNL     1      46.411   6.075  13.247  0.00  0.00    +0.000 HD
BRANCH  20  23
ATOM     23  C   UNL     1      44.631   5.312  11.561  0.00  0.00    +0.000 A 
ATOM     24  C   UNL     1      43.907   4.689  12.569  0.00  0.00    +0.000 A 
ATOM     25  S   UNL     1      43.408   3.107  12.169  0.00  0.00    +0.000 S 
ATOM     26  C   UNL     1      44.175   3.190  10.649  0.00  0.00    +0.000 A 
ATOM     27  N   UNL     1      44.157   2.132   9.794  0.00  0.00    +0.000 NA
ATOM     28  C   UNL     1      44.788   2.336   8.684  0.00  0.00    +0.000 A 
ATOM     29  N   UNL     1      45.428   3.502   8.351  0.00  0.00    +0.000 N 
ATOM     30  C   UNL     1      45.467   4.594   9.180  0.00  0.00    +0.000 A 
ATOM     31  O   UNL     1      46.028   5.634   8.838  0.00  0.00    +0.000 OA
ATOM     32  C   UNL     1      44.780   4.416  10.444  0.00  0.00    +0.000 A 
ATOM     33  H   UNL     1      45.896   3.602   7.461  0.00  0.00    +0.000 HD
ENDBRANCH  20  23
ENDBRANCH  18  19
ENDBRANCH   4  18
TORSDOF 6
ENDMDL
MODEL 8
REMARK VINA RESULT:    -6.822      3.474      8.696
REMARK INTER + INTRA:         -10.028
REMARK INTER:                  -9.088
REMARK INTRA:                  -0.940
REMARK UNBOUND:                -0.813
REMARK  Name = 
REMARK  6 active torsions:
REMARK  status: ('A' for Active; 'I' for Inactive)
REMARK    1  A    between atoms: C_2  and  C_25
REMARK    2  A    between atoms: N_3  and  C_4
REMARK    3  A    between atoms: C_4  and  C_5
REMARK    4  A    between atoms: C_8  and  C_9
REMARK    5  A    between atoms: C_9  and  N_10
REMARK    6  A    between atoms: C_11  and  C_13
REMARK                            x       y       z     vdW  Elec       q    Type
REMARK                         _______ _______ _______ _____ _____    ______ ____
ROOT
ATOM      1  C   UNL     1      50.118   7.025  15.130  0.00  0.00    +0.000 C 
ATOM      2  C   UNL     1      50.141   8.395  14.438  0.00  0.00    +0.000 C 
ATOM      3  C   UNL     1      49.332   8.411  13.145  0.00  0.00    +0.000 C 
ATOM      4  C   UNL     1      47.878   7.966  13.368  0.00  0.00    +0.000 C 
ATOM      5  C   UNL     1      47.850   6.588  14.046  0.00  0.00    +0.000 C 
ATOM      6  C   UNL     1      48.665   6.565  15.341  0.00  0.00    +0.000 C 
ENDROOT
BRANCH   1   7
ATOM      7  C   UNL     1      50.864   7.083  16.476  0.00  0.00    +0.000 C 
BRANCH   7  10
ATOM      8  O   UNL     1      49.984   4.951  18.074  0.00  0.00    +0.000 OA
ATOM      9  C   UNL     1      51.094   4.881  17.561  0.00  0.00    +0.000 C 
ATOM     10  N   UNL     1      51.617   5.873  16.762  0.00  0.00    +0.000 N 
ATOM     11  H   UNL     1      52.537   5.722  16.368  0.00  0.00    +0.000 HD
BRANCH   9  12
ATOM     12  C   UNL     1      51.955   3.681  17.790  0.00  0.00    +0.000 A 
ATOM     13  C   UNL     1      51.441   2.428  17.468  0.00  0.00    +0.000 A 
ATOM     14  C   UNL     1      52.213   1.306  17.736  0.00  0.00    +0.000 A 
ATOM     15  C   UNL     1      53.462   1.472  18.324  0.00  0.00    +0.000 A 
ATOM     16  C   UNL     1      53.901   2.763  18.598  0.00  0.00    +0.000 A 
ATOM     17  N   UNL     1      53.184   3.881  18.338  0.00  0.00    +0.000 NA
ENDBRANCH   9  12
ENDBRANCH   7  10
ENDBRANCH   1   7
BRANCH   4  18
ATOM     18  C   UNL     1      47.081   7.927  12.049  0.00  0.00    +0.000 C 
BRANCH  18  19
ATOM     19  N   UNL     1      46.470   6.639  11.800  0.00  0.00    +0.000 N 
ATOM     20  C   UNL     1      45.128   6.500  11.546  0.00  0.00    +0.000 C 
ATOM     21  O   UNL     1      44.362   7.460  11.503  0.00  0.00    +0.000 OA
ATOM     22  H   UNL     1      47.009   5.816  12.050  0.00  0.00    +0.000 HD
BRANCH  20  23
ATOM     23  C   UNL     1      44.658   5.140  11.269  0.00  0.00    +0.000 A 
ATOM     24  C   UNL     1      43.859   4.479  12.192  0.00  0.00    +0.000 A 
ATOM     25  S   UNL     1      43.403   2.911  11.696  0.00  0.00    +0.000 S 
ATOM     26  C   UNL     1      44.288   3.051  10.248  0.00  0.00    +0.000 A 
ATOM     27  N   UNL     1      44.345   2.025   9.356  0.00  0.00    +0.000 NA
ATOM     28  C   UNL     1      45.062   2.271   8.309  0.00  0.00    +0.000 A 
ATOM     29  N   UNL     1      45.721   3.449   8.070  0.00  0.00    +0.000 N 
ATOM     30  C   UNL     1      45.687   4.511   8.939  0.00  0.00    +0.000 A 
ATOM     31  O   UNL     1      46.268   5.564   8.681  0.00  0.00    +0.000 OA
ATOM     32  C   UNL     1      44.902   4.285  10.136  0.00  0.00    +0.000 A 
ATOM     33  H   UNL     1      46.258   3.583   7.225  0.00  0.00    +0.000 HD
ENDBRANCH  20  23
ENDBRANCH  18  19
ENDBRANCH   4  18
TORSDOF 6
ENDMDL
MODEL 9
REMARK VINA RESULT:    -6.785      4.207      8.532
REMARK INTER + INTRA:          -9.978
REMARK INTER:                  -9.202
REMARK INTRA:                  -0.776
REMARK UNBOUND:                -0.813
REMARK  Name = 
REMARK  6 active torsions:
REMARK  status: ('A' for Active; 'I' for Inactive)
REMARK    1  A    between atoms: C_2  and  C_25
REMARK    2  A    between atoms: N_3  and  C_4
REMARK    3  A    between atoms: C_4  and  C_5
REMARK    4  A    between atoms: C_8  and  C_9
REMARK    5  A    between atoms: C_9  and  N_10
REMARK    6  A    between atoms: C_11  and  C_13
REMARK                            x       y       z     vdW  Elec       q    Type
REMARK                         _______ _______ _______ _____ _____    ______ ____
ROOT
ATOM      1  C   UNL     1      50.107   4.353  17.367  0.00  0.00    +0.000 C 
ATOM      2  C   UNL     1      51.085   5.535  17.349  0.00  0.00    +0.000 C 
ATOM      3  C   UNL     1      50.767   6.541  16.245  0.00  0.00    +0.000 C 
ATOM      4  C   UNL     1      49.323   7.061  16.336  0.00  0.00    +0.000 C 
ATOM      5  C   UNL     1      48.341   5.879  16.338  0.00  0.00    +0.000 C 
ATOM      6  C   UNL     1      48.659   4.866  17.440  0.00  0.00    +0.000 C 
ENDROOT
BRANCH   1   7
ATOM      7  C   UNL     1      50.406   3.418  18.554  0.00  0.00    +0.000 C 
BRANCH   7  10
ATOM      8  O   UNL     1      50.991   1.031  17.199  0.00  0.00    +0.000 OA
ATOM      9  C   UNL     1      51.899   1.616  17.777  0.00  0.00    +0.000 C 
ATOM     10  N   UNL     1      51.715   2.792  18.470  0.00  0.00    +0.000 N 
ATOM     11  H   UNL     1      52.527   3.212  18.903  0.00  0.00    +0.000 HD
BRANCH   9  12
ATOM     12  C   UNL     1      53.286   1.059  17.756  0.00  0.00    +0.000 A 
ATOM     13  C   UNL     1      53.689   0.330  16.641  0.00  0.00    +0.000 A 
ATOM     14  C   UNL     1      54.955  -0.240  16.644  0.00  0.00    +0.000 A 
ATOM     15  C   UNL     1      55.766  -0.072  17.760  0.00  0.00    +0.000 A 
ATOM     16  C   UNL     1      55.286   0.684  18.824  0.00  0.00    +0.000 A 
ATOM     17  N   UNL     1      54.065   1.267  18.852  0.00  0.00    +0.000 NA
ENDBRANCH   9  12
ENDBRANCH   7  10
ENDBRANCH   1   7
BRANCH   4  18
ATOM     18  C   UNL     1      48.989   8.029  15.185  0.00  0.00    +0.000 C 
BRANCH  18  19
ATOM     19  N   UNL     1      47.822   7.624  14.430  0.00  0.00    +0.000 N 
ATOM     20  C   UNL     1      47.908   6.822  13.320  0.00  0.00    +0.000 C 
ATOM     21  O   UNL     1      48.978   6.388  12.902  0.00  0.00    +0.000 OA
ATOM     22  H   UNL     1      46.963   8.138  14.599  0.00  0.00    +0.000 HD
BRANCH  20  23
ATOM     23  C   UNL     1      46.639   6.459  12.683  0.00  0.00    +0.000 A 
ATOM     24  C   UNL     1      45.867   7.434  12.066  0.00  0.00    +0.000 A 
ATOM     25  S   UNL     1      44.431   6.826  11.373  0.00  0.00    +0.000 S 
ATOM     26  C   UNL     1      44.777   5.245  11.908  0.00  0.00    +0.000 A 
ATOM     27  N   UNL     1      43.917   4.218  11.669  0.00  0.00    +0.000 NA
ATOM     28  C   UNL     1      44.307   3.080  12.142  0.00  0.00    +0.000 A 
ATOM     29  N   UNL     1      45.477   2.875  12.826  0.00  0.00    +0.000 N 
ATOM     30  C   UNL     1      46.373   3.880  13.087  0.00  0.00    +0.000 A 
ATOM     31  O   UNL     1      47.427   3.656  13.680  0.00  0.00    +0.000 OA
ATOM     32  C   UNL     1      45.982   5.182  12.583  0.00  0.00    +0.000 A 
ATOM     33  H   UNL     1      45.728   1.956  13.163  0.00  0.00    +0.000 HD
ENDBRANCH  20  23
ENDBRANCH  18  19
ENDBRANCH   4  18
TORSDOF 6
ENDMDL
