MODEL 1
REMARK VINA RESULT:    -8.513      0.000      0.000
REMARK INTER + INTRA:         -14.511
REMARK INTER:                 -13.490
REMARK INTRA:                  -1.021
REMARK UNBOUND:                -1.021
REMARK  Name = 
REMARK  11 active torsions:
REMARK  status: ('A' for Active; 'I' for Inactive)
REMARK    1  A    between atoms: N_1  and  C_2
REMARK    2  A    between atoms: C_2  and  C_3
REMARK    3  A    between atoms: C_2  and  C_21
REMARK    4  A    between atoms: C_3  and  C_4
REMARK    5  A    between atoms: C_7  and  C_8
REMARK    6  A    between atoms: C_8  and  N_9
REMARK    7  A    between atoms: N_9  and  CA_10
REMARK    8  A    between atoms: CA_10  and  C_11
REMARK    9  A    between atoms: CA_10  and  C_13
REMARK   10  A    between atoms: C_11  and  O_12
REMARK   11  A    between atoms: C_21  and  C_23
REMARK                            x       y       z     vdW  Elec       q    Type
REMARK                         _______ _______ _______ _____ _____    ______ ____
ROOT
ATOM      1  C   UNL     1      46.377   5.409  13.453  0.00  0.00    +0.000 A 
ATOM      2  C   UNL     1      45.102   4.862  13.627  0.00  0.00    +0.000 A 
ATOM      3  C   UNL     1      44.215   4.781  12.552  0.00  0.00    +0.000 A 
ATOM      4  C   UNL     1      44.575   5.262  11.285  0.00  0.00    +0.000 A 
ATOM      5  C   UNL     1      45.835   5.855  11.125  0.00  0.00    +0.000 A 
ATOM      6  C   UNL     1      46.730   5.923  12.199  0.00  0.00    +0.000 A 
ENDROOT
BRANCH   1   7
ATOM      7  C   UNL     1      47.370   5.378  14.593  0.00  0.00    +0.000 C 
BRANCH   7   8
ATOM      8  C   UNL     1      47.152   4.170  15.521  0.00  0.00    +0.000 C 
BRANCH   8   9
ATOM      9  N   UNL     1      47.811   2.972  14.941  0.00  0.00    +0.000 NA
ATOM     10  H   UNL     1      48.738   2.887  15.364  0.00  0.00    +0.000 HD
ATOM     11  H   UNL     1      47.983   3.163  13.948  0.00  0.00    +0.000 HD
ENDBRANCH   8   9
BRANCH   8  12
ATOM     12  C   UNL     1      47.728   4.420  16.937  0.00  0.00    +0.000 C 
ATOM     13  O   UNL     1      46.989   4.299  17.922  0.00  0.00    +0.000 OA
BRANCH  12  14
ATOM     14  C   UNL     1      49.155   4.738  17.127  0.00  0.00    +0.000 A 
ATOM     15  C   UNL     1      49.592   6.054  17.101  0.00  0.00    +0.000 A 
ATOM     16  S   UNL     1      51.249   6.224  17.482  0.00  0.00    +0.000 S 
ATOM     17  C   UNL     1      51.442   4.541  17.642  0.00  0.00    +0.000 A 
ATOM     18  N   UNL     1      52.631   3.995  18.011  0.00  0.00    +0.000 NA
ATOM     19  C   UNL     1      52.621   2.707  18.102  0.00  0.00    +0.000 A 
ATOM     20  N   UNL     1      51.537   1.911  17.817  0.00  0.00    +0.000 N 
ATOM     21  C   UNL     1      50.378   2.412  17.286  0.00  0.00    +0.000 A 
ATOM     22  O   UNL     1      49.542   1.684  16.758  0.00  0.00    +0.000 OA
ATOM     23  C   UNL     1      50.275   3.861  17.338  0.00  0.00    +0.000 A 
ATOM     24  H   UNL     1      51.629   0.907  17.813  0.00  0.00    +0.000 HD
ENDBRANCH  12  14
ENDBRANCH   8  12
ENDBRANCH   7   8
ENDBRANCH   1   7
BRANCH   4  25
ATOM     25  C   UNL     1      43.641   5.079  10.106  0.00  0.00    +0.000 C 
BRANCH  25  26
ATOM     26  N   UNL     1      44.334   4.470   8.973  0.00  0.00    +0.000 NA
ATOM     27  H   UNL     1      45.054   5.127   8.661  0.00  0.00    +0.000 HD
BRANCH  26  28
ATOM     28  CA  UNL     1      45.008   3.190   9.289  0.00  0.00    +0.000 C 
BRANCH  28  29
ATOM     29  C   UNL     1      45.938   2.789   8.141  0.00  0.00    +0.000 A 
ATOM     30  C   UNL     1      46.455   1.486   8.069  0.00  0.00    +0.000 A 
ATOM     31  C   UNL     1      47.305   1.110   7.022  0.00  0.00    +0.000 A 
ATOM     32  C   UNL     1      47.650   2.030   6.034  0.00  0.00    +0.000 A 
ATOM     33  C   UNL     1      47.138   3.323   6.083  0.00  0.00    +0.000 A 
ATOM     34  C   UNL     1      46.284   3.695   7.121  0.00  0.00    +0.000 A 
ENDBRANCH  28  29
BRANCH  28  35
ATOM     35  C   UNL     1      44.006   2.041   9.592  0.00  0.00    +0.000 C 
BRANCH  35  36
ATOM     36  O   UNL     1      43.703   1.942  10.985  0.00  0.00    +0.000 OA
ATOM     37  H   UNL     1      43.439   2.840  11.258  0.00  0.00    +0.000 HD
ENDBRANCH  35  36
ENDBRANCH  28  35
ENDBRANCH  26  28
ENDBRANCH  25  26
ENDBRANCH   4  25
TORSDOF 11
ENDMDL
MODEL 2
REMARK VINA RESULT:    -8.206      2.230      3.173
REMARK INTER + INTRA:         -14.024
REMARK INTER:                 -12.635
REMARK INTRA:                  -1.389
REMARK UNBOUND:                -1.021
REMARK  Name = 
REMARK  11 active torsions:
REMARK  status: ('A' for Active; 'I' for Inactive)
REMARK    1  A    between atoms: N_1  and  C_2
REMARK    2  A    between atoms: C_2  and  C_3
REMARK    3  A    between atoms: C_2  and  C_21
REMARK    4  A    between atoms: C_3  and  C_4
REMARK    5  A    between atoms: C_7  and  C_8
REMARK    6  A    between atoms: C_8  and  N_9
REMARK    7  A    between atoms: N_9  and  CA_10
REMARK    8  A    between atoms: CA_10  and  C_11
REMARK    9  A    between atoms: CA_10  and  C_13
REMARK   10  A    between atoms: C_11  and  O_12
REMARK   11  A    between atoms: C_21  and  C_23
REMARK                            x       y       z     vdW  Elec       q    Type
REMARK                         _______ _______ _______ _____ _____    ______ ____
ROOT
ATOM      1  C   UNL     1      47.644   7.982  12.674  0.00  0.00    +0.000 A 
ATOM      2  C   UNL     1      46.428   8.473  13.158  0.00  0.00    +0.000 A 
ATOM      3  C   UNL     1      45.222   7.903  12.748  0.00  0.00    +0.000 A 
ATOM      4  C   UNL     1      45.203   6.844  11.830  0.00  0.00    +0.000 A 
ATOM      5  C   UNL     1      46.421   6.386  11.307  0.00  0.00    +0.000 A 
ATOM      6  C   UNL     1      47.631   6.948  11.729  0.00  0.00    +0.000 A 
ENDROOT
BRANCH   1   7
ATOM      7  C   UNL     1      48.946   8.525  13.219  0.00  0.00    +0.000 C 
BRANCH   7   8
ATOM      8  C   UNL     1      49.692   7.490  14.080  0.00  0.00    +0.000 C 
BRANCH   8   9
ATOM      9  N   UNL     1      51.152   7.760  14.027  0.00  0.00    +0.000 NA
ATOM     10  H   UNL     1      51.635   6.864  13.931  0.00  0.00    +0.000 HD
ATOM     11  H   UNL     1      51.433   8.121  14.946  0.00  0.00    +0.000 HD
ENDBRANCH   8   9
BRANCH   8  12
ATOM     12  C   UNL     1      49.231   7.529  15.557  0.00  0.00    +0.000 C 
ATOM     13  O   UNL     1      48.626   8.523  15.977  0.00  0.00    +0.000 OA
BRANCH  12  14
ATOM     14  C   UNL     1      49.449   6.374  16.448  0.00  0.00    +0.000 A 
ATOM     15  C   UNL     1      50.548   6.336  17.294  0.00  0.00    +0.000 A 
ATOM     16  S   UNL     1      50.546   4.988  18.344  0.00  0.00    +0.000 S 
ATOM     17  C   UNL     1      49.106   4.390  17.664  0.00  0.00    +0.000 A 
ATOM     18  N   UNL     1      48.510   3.265  18.141  0.00  0.00    +0.000 NA
ATOM     19  C   UNL     1      47.417   2.942  17.533  0.00  0.00    +0.000 A 
ATOM     20  N   UNL     1      46.888   3.621  16.462  0.00  0.00    +0.000 N 
ATOM     21  C   UNL     1      47.545   4.658  15.852  0.00  0.00    +0.000 A 
ATOM     22  O   UNL     1      47.226   5.057  14.736  0.00  0.00    +0.000 OA
ATOM     23  C   UNL     1      48.676   5.173  16.605  0.00  0.00    +0.000 A 
ATOM     24  H   UNL     1      46.085   3.255  15.973  0.00  0.00    +0.000 HD
ENDBRANCH  12  14
ENDBRANCH   8  12
ENDBRANCH   7   8
ENDBRANCH   1   7
BRANCH   4  25
ATOM     25  C   UNL     1      43.895   6.171  11.468  0.00  0.00    +0.000 C 
BRANCH  25  26
ATOM     26  N   UNL     1      44.048   5.314  10.294  0.00  0.00    +0.000 NA
ATOM     27  H   UNL     1      44.691   5.782   9.651  0.00  0.00    +0.000 HD
BRANCH  26  28
ATOM     28  CA  UNL     1      44.609   3.975  10.588  0.00  0.00    +0.000 C 
BRANCH  28  29
ATOM     29  C   UNL     1      45.310   3.417   9.347  0.00  0.00    +0.000 A 
ATOM     30  C   UNL     1      45.802   4.286   8.359  0.00  0.00    +0.000 A 
ATOM     31  C   UNL     1      46.445   3.784   7.221  0.00  0.00    +0.000 A 
ATOM     32  C   UNL     1      46.605   2.409   7.055  0.00  0.00    +0.000 A 
ATOM     33  C   UNL     1      46.134   1.534   8.028  0.00  0.00    +0.000 A 
ATOM     34  C   UNL     1      45.501   2.034   9.166  0.00  0.00    +0.000 A 
ENDBRANCH  28  29
BRANCH  28  35
ATOM     35  C   UNL     1      43.537   2.971  11.095  0.00  0.00    +0.000 C 
BRANCH  35  36
ATOM     36  O   UNL     1      43.855   2.449  12.386  0.00  0.00    +0.000 OA
ATOM     37  H   UNL     1      44.635   1.879  12.253  0.00  0.00    +0.000 HD
ENDBRANCH  35  36
ENDBRANCH  28  35
ENDBRANCH  26  28
ENDBRANCH  25  26
ENDBRANCH   4  25
TORSDOF 11
ENDMDL
MODEL 3
REMARK VINA RESULT:    -8.018      2.567      3.389
REMARK INTER + INTRA:         -13.727
REMARK INTER:                 -12.480
REMARK INTRA:                  -1.247
REMARK UNBOUND:                -1.021
REMARK  Name = 
REMARK  11 active torsions:
REMARK  status: ('A' for Active; 'I' for Inactive)
REMARK    1  A    between atoms: N_1  and  C_2
REMARK    2  A    between atoms: C_2  and  C_3
REMARK    3  A    between atoms: C_2  and  C_21
REMARK    4  A    between atoms: C_3  and  C_4
REMARK    5  A    between atoms: C_7  and  C_8
REMARK    6  A    between atoms: C_8  and  N_9
REMARK    7  A    between atoms: N_9  and  CA_10
REMARK    8  A    between atoms: CA_10  and  C_11
REMARK    9  A    between atoms: CA_10  and  C_13
REMARK   10  A    between atoms: C_11  and  O_12
REMARK   11  A    between atoms: C_21  and  C_23
REMARK                            x       y       z     vdW  Elec       q    Type
REMARK                         _______ _______ _______ _____ _____    ______ ____
ROOT
ATOM      1  C   UNL     1      46.635   7.643  12.966  0.00  0.00    +0.000 A 
ATOM      2  C   UNL     1      46.187   6.385  13.379  0.00  0.00    +0.000 A 
ATOM      3  C   UNL     1      45.028   5.832  12.831  0.00  0.00    +0.000 A 
ATOM      4  C   UNL     1      44.281   6.532  11.873  0.00  0.00    +0.000 A 
ATOM      5  C   UNL     1      44.705   7.814  11.497  0.00  0.00    +0.000 A 
ATOM      6  C   UNL     1      45.874   8.363  12.035  0.00  0.00    +0.000 A 
ENDROOT
BRANCH   1   7
ATOM      7  C   UNL     1      47.955   8.176  13.474  0.00  0.00    +0.000 C 
BRANCH   7   8
ATOM      8  C   UNL     1      48.962   7.050  13.768  0.00  0.00    +0.000 C 
BRANCH   8   9
ATOM      9  N   UNL     1      49.749   6.756  12.543  0.00  0.00    +0.000 NA
ATOM     10  H   UNL     1      50.738   6.726  12.803  0.00  0.00    +0.000 HD
ATOM     11  H   UNL     1      49.660   7.564  11.915  0.00  0.00    +0.000 HD
ENDBRANCH   8   9
BRANCH   8  12
ATOM     12  C   UNL     1      49.938   7.432  14.908  0.00  0.00    +0.000 C 
ATOM     13  O   UNL     1      51.129   7.638  14.642  0.00  0.00    +0.000 OA
BRANCH  12  14
ATOM     14  C   UNL     1      49.454   7.613  16.289  0.00  0.00    +0.000 A 
ATOM     15  C   UNL     1      49.770   8.761  17.000  0.00  0.00    +0.000 A 
ATOM     16  S   UNL     1      49.000   8.845  18.524  0.00  0.00    +0.000 S 
ATOM     17  C   UNL     1      48.265   7.328  18.298  0.00  0.00    +0.000 A 
ATOM     18  N   UNL     1      47.413   6.808  19.222  0.00  0.00    +0.000 NA
ATOM     19  C   UNL     1      46.924   5.655  18.906  0.00  0.00    +0.000 A 
ATOM     20  N   UNL     1      47.242   4.955  17.767  0.00  0.00    +0.000 N 
ATOM     21  C   UNL     1      48.217   5.371  16.898  0.00  0.00    +0.000 A 
ATOM     22  O   UNL     1      48.703   4.614  16.064  0.00  0.00    +0.000 OA
ATOM     23  C   UNL     1      48.661   6.739  17.109  0.00  0.00    +0.000 A 
ATOM     24  H   UNL     1      46.899   4.016  17.633  0.00  0.00    +0.000 HD
ENDBRANCH  12  14
ENDBRANCH   8  12
ENDBRANCH   7   8
ENDBRANCH   1   7
BRANCH   4  25
ATOM     25  C   UNL     1      43.082   5.880  11.216  0.00  0.00    +0.000 C 
BRANCH  25  26
ATOM     26  N   UNL     1      43.491   5.009  10.116  0.00  0.00    +0.000 NA
ATOM     27  H   UNL     1      44.031   5.576   9.458  0.00  0.00    +0.000 HD
BRANCH  26  28
ATOM     28  CA  UNL     1      44.345   3.871  10.527  0.00  0.00    +0.000 C 
BRANCH  28  29
ATOM     29  C   UNL     1      45.164   3.373   9.333  0.00  0.00    +0.000 A 
ATOM     30  C   UNL     1      45.713   4.287   8.420  0.00  0.00    +0.000 A 
ATOM     31  C   UNL     1      46.466   3.841   7.327  0.00  0.00    +0.000 A 
ATOM     32  C   UNL     1      46.678   2.477   7.131  0.00  0.00    +0.000 A 
ATOM     33  C   UNL     1      46.152   1.558   8.032  0.00  0.00    +0.000 A 
ATOM     34  C   UNL     1      45.410   2.002   9.127  0.00  0.00    +0.000 A 
ENDBRANCH  28  29
BRANCH  28  35
ATOM     35  C   UNL     1      43.530   2.699  11.143  0.00  0.00    +0.000 C 
BRANCH  35  36
ATOM     36  O   UNL     1      43.901   2.438  12.498  0.00  0.00    +0.000 OA
ATOM     37  H   UNL     1      43.504   3.159  13.021  0.00  0.00    +0.000 HD
ENDBRANCH  35  36
ENDBRANCH  28  35
ENDBRANCH  26  28
ENDBRANCH  25  26
ENDBRANCH   4  25
TORSDOF 11
ENDMDL
MODEL 4
REMARK VINA RESULT:    -7.286      2.945      3.804
REMARK INTER + INTRA:         -12.566
REMARK INTER:                 -11.118
REMARK INTRA:                  -1.449
REMARK UNBOUND:                -1.021
REMARK  Name = 
REMARK  11 active torsions:
REMARK  status: ('A' for Active; 'I' for Inactive)
REMARK    1  A    between atoms: N_1  and  C_2
REMARK    2  A    between atoms: C_2  and  C_3
REMARK    3  A    between atoms: C_2  and  C_21
REMARK    4  A    between atoms: C_3  and  C_4
REMARK    5  A    between atoms: C_7  and  C_8
REMARK    6  A    between atoms: C_8  and  N_9
REMARK    7  A    between atoms: N_9  and  CA_10
REMARK    8  A    between atoms: CA_10  and  C_11
REMARK    9  A    between atoms: CA_10  and  C_13
REMARK   10  A    between atoms: C_11  and  O_12
REMARK   11  A    between atoms: C_21  and  C_23
REMARK                            x       y       z     vdW  Elec       q    Type
REMARK                         _______ _______ _______ _____ _____    ______ ____
ROOT
ATOM      1  C   UNL     1      46.822   7.173  13.215  0.00  0.00    +0.000 A 
ATOM      2  C   UNL     1      46.305   7.827  12.093  0.00  0.00    +0.000 A 
ATOM      3  C   UNL     1      45.215   7.294  11.403  0.00  0.00    +0.000 A 
ATOM      4  C   UNL     1      44.629   6.085  11.808  0.00  0.00    +0.000 A 
ATOM      5  C   UNL     1      45.181   5.406  12.903  0.00  0.00    +0.000 A 
ATOM      6  C   UNL     1      46.265   5.948  13.604  0.00  0.00    +0.000 A 
ENDROOT
BRANCH   1   7
ATOM      7  C   UNL     1      47.921   7.823  14.025  0.00  0.00    +0.000 C 
BRANCH   7   8
ATOM      8  C   UNL     1      49.229   7.013  13.983  0.00  0.00    +0.000 C 
BRANCH   8   9
ATOM      9  N   UNL     1      50.212   7.703  13.108  0.00  0.00    +0.000 NA
ATOM     10  H   UNL     1      49.733   7.972  12.246  0.00  0.00    +0.000 HD
ATOM     11  H   UNL     1      50.912   7.009  12.822  0.00  0.00    +0.000 HD
ENDBRANCH   8   9
BRANCH   8  12
ATOM     12  C   UNL     1      49.849   6.845  15.393  0.00  0.00    +0.000 C 
ATOM     13  O   UNL     1      51.061   7.039  15.548  0.00  0.00    +0.000 OA
BRANCH  12  14
ATOM     14  C   UNL     1      49.003   6.520  16.556  0.00  0.00    +0.000 A 
ATOM     15  C   UNL     1      48.465   5.250  16.701  0.00  0.00    +0.000 A 
ATOM     16  S   UNL     1      47.637   5.031  18.180  0.00  0.00    +0.000 S 
ATOM     17  C   UNL     1      47.930   6.641  18.645  0.00  0.00    +0.000 A 
ATOM     18  N   UNL     1      47.525   7.115  19.854  0.00  0.00    +0.000 NA
ATOM     19  C   UNL     1      47.829   8.352  20.071  0.00  0.00    +0.000 A 
ATOM     20  N   UNL     1      48.466   9.170  19.170  0.00  0.00    +0.000 N 
ATOM     21  C   UNL     1      48.739   8.776  17.886  0.00  0.00    +0.000 A 
ATOM     22  O   UNL     1      49.024   9.587  17.009  0.00  0.00    +0.000 OA
ATOM     23  C   UNL     1      48.587   7.350  17.653  0.00  0.00    +0.000 A 
ATOM     24  H   UNL     1      48.582  10.152  19.367  0.00  0.00    +0.000 HD
ENDBRANCH  12  14
ENDBRANCH   8  12
ENDBRANCH   7   8
ENDBRANCH   1   7
BRANCH   4  25
ATOM     25  C   UNL     1      43.388   5.569  11.111  0.00  0.00    +0.000 C 
BRANCH  25  26
ATOM     26  N   UNL     1      43.735   4.766   9.940  0.00  0.00    +0.000 NA
ATOM     27  H   UNL     1      44.279   5.358   9.309  0.00  0.00    +0.000 HD
BRANCH  26  28
ATOM     28  CA  UNL     1      44.555   3.571  10.245  0.00  0.00    +0.000 C 
BRANCH  28  29
ATOM     29  C   UNL     1      45.365   3.162   9.011  0.00  0.00    +0.000 A 
ATOM     30  C   UNL     1      45.708   1.817   8.802  0.00  0.00    +0.000 A 
ATOM     31  C   UNL     1      46.446   1.434   7.675  0.00  0.00    +0.000 A 
ATOM     32  C   UNL     1      46.851   2.389   6.744  0.00  0.00    +0.000 A 
ATOM     33  C   UNL     1      46.510   3.725   6.929  0.00  0.00    +0.000 A 
ATOM     34  C   UNL     1      45.767   4.106   8.047  0.00  0.00    +0.000 A 
ENDBRANCH  28  29
BRANCH  28  35
ATOM     35  C   UNL     1      43.707   2.370  10.750  0.00  0.00    +0.000 C 
BRANCH  35  36
ATOM     36  O   UNL     1      43.708   2.270  12.175  0.00  0.00    +0.000 OA
ATOM     37  H   UNL     1      43.178   3.025  12.490  0.00  0.00    +0.000 HD
ENDBRANCH  35  36
ENDBRANCH  28  35
ENDBRANCH  26  28
ENDBRANCH  25  26
ENDBRANCH   4  25
TORSDOF 11
ENDMDL
MODEL 5
REMARK VINA RESULT:    -7.210      3.283      9.699
REMARK INTER + INTRA:         -12.446
REMARK INTER:                 -10.383
REMARK INTRA:                  -2.063
REMARK UNBOUND:                -1.021
REMARK  Name = 
REMARK  11 active torsions:
REMARK  status: ('A' for Active; 'I' for Inactive)
REMARK    1  A    between atoms: N_1  and  C_2
REMARK    2  A    between atoms: C_2  and  C_3
REMARK    3  A    between atoms: C_2  and  C_21
REMARK    4  A    between atoms: C_3  and  C_4
REMARK    5  A    between atoms: C_7  and  C_8
REMARK    6  A    between atoms: C_8  and  N_9
REMARK    7  A    between atoms: N_9  and  CA_10
REMARK    8  A    between atoms: CA_10  and  C_11
REMARK    9  A    between atoms: CA_10  and  C_13
REMARK   10  A    between atoms: C_11  and  O_12
REMARK   11  A    between atoms: C_21  and  C_23
REMARK                            x       y       z     vdW  Elec       q    Type
REMARK                         _______ _______ _______ _____ _____    ______ ____
ROOT
ATOM      1  C   UNL     1      47.306   6.001  13.901  0.00  0.00    +0.000 A 
ATOM      2  C   UNL     1      46.793   4.743  14.231  0.00  0.00    +0.000 A 
ATOM      3  C   UNL     1      47.170   4.114  15.418  0.00  0.00    +0.000 A 
ATOM      4  C   UNL     1      48.085   4.720  16.293  0.00  0.00    +0.000 A 
ATOM      5  C   UNL     1      48.637   5.957  15.936  0.00  0.00    +0.000 A 
ATOM      6  C   UNL     1      48.247   6.595  14.752  0.00  0.00    +0.000 A 
ENDROOT
BRANCH   1   7
ATOM      7  C   UNL     1      46.795   6.725  12.676  0.00  0.00    +0.000 C 
BRANCH   7   8
ATOM      8  C   UNL     1      45.348   7.216  12.852  0.00  0.00    +0.000 C 
BRANCH   8   9
ATOM      9  N   UNL     1      45.322   8.701  12.836  0.00  0.00    +0.000 NA
ATOM     10  H   UNL     1      45.383   9.007  11.863  0.00  0.00    +0.000 HD
ATOM     11  H   UNL     1      46.188   9.031  13.278  0.00  0.00    +0.000 HD
ENDBRANCH   8   9
BRANCH   8  12
ATOM     12  C   UNL     1      44.419   6.689  11.731  0.00  0.00    +0.000 C 
ATOM     13  O   UNL     1      43.822   7.498  11.009  0.00  0.00    +0.000 OA
BRANCH  12  14
ATOM     14  C   UNL     1      44.287   5.243  11.476  0.00  0.00    +0.000 A 
ATOM     15  C   UNL     1      43.676   4.417  12.407  0.00  0.00    +0.000 A 
ATOM     16  S   UNL     1      43.493   2.807  11.866  0.00  0.00    +0.000 S 
ATOM     17  C   UNL     1      44.272   3.154  10.394  0.00  0.00    +0.000 A 
ATOM     18  N   UNL     1      44.412   2.210   9.425  0.00  0.00    +0.000 NA
ATOM     19  C   UNL     1      45.012   2.626   8.360  0.00  0.00    +0.000 A 
ATOM     20  N   UNL     1      45.522   3.890   8.191  0.00  0.00    +0.000 N 
ATOM     21  C   UNL     1      45.546   4.813   9.204  0.00  0.00    +0.000 A 
ATOM     22  O   UNL     1      46.257   5.812   9.151  0.00  0.00    +0.000 OA
ATOM     23  C   UNL     1      44.725   4.462  10.351  0.00  0.00    +0.000 A 
ATOM     24  H   UNL     1      46.067   4.116   7.373  0.00  0.00    +0.000 HD
ENDBRANCH  12  14
ENDBRANCH   8  12
ENDBRANCH   7   8
ENDBRANCH   1   7
BRANCH   4  25
ATOM     25  C   UNL     1      48.411   4.072  17.623  0.00  0.00    +0.000 C 
BRANCH  25  26
ATOM     26  N   UNL     1      47.675   4.707  18.714  0.00  0.00    +0.000 NA
ATOM     27  H   UNL     1      47.185   3.970  19.227  0.00  0.00    +0.000 HD
BRANCH  26  28
ATOM     28  CA  UNL     1      48.530   5.429  19.684  0.00  0.00    +0.000 C 
BRANCH  28  29
ATOM     29  C   UNL     1      48.586   6.917  19.327  0.00  0.00    +0.000 A 
ATOM     30  C   UNL     1      49.823   7.554  19.139  0.00  0.00    +0.000 A 
ATOM     31  C   UNL     1      49.884   8.914  18.811  0.00  0.00    +0.000 A 
ATOM     32  C   UNL     1      48.712   9.654  18.667  0.00  0.00    +0.000 A 
ATOM     33  C   UNL     1      47.478   9.036  18.837  0.00  0.00    +0.000 A 
ATOM     34  C   UNL     1      47.416   7.679  19.156  0.00  0.00    +0.000 A 
ENDBRANCH  28  29
BRANCH  28  35
ATOM     35  C   UNL     1      49.968   4.845  19.771  0.00  0.00    +0.000 C 
BRANCH  35  36
ATOM     36  O   UNL     1      50.340   4.525  21.113  0.00  0.00    +0.000 OA
ATOM     37  H   UNL     1      49.774   5.080  21.680  0.00  0.00    +0.000 HD
ENDBRANCH  35  36
ENDBRANCH  28  35
ENDBRANCH  26  28
ENDBRANCH  25  26
ENDBRANCH   4  25
TORSDOF 11
ENDMDL
MODEL 6
REMARK VINA RESULT:    -7.178      1.970      2.368
REMARK INTER + INTRA:         -12.395
REMARK INTER:                 -11.622
REMARK INTRA:                  -0.773
REMARK UNBOUND:                -1.021
REMARK  Name = 
REMARK  11 active torsions:
REMARK  status: ('A' for Active; 'I' for Inactive)
REMARK    1  A    between atoms: N_1  and  C_2
REMARK    2  A    between atoms: C_2  and  C_3
REMARK    3  A    between atoms: C_2  and  C_21
REMARK    4  A    between atoms: C_3  and  C_4
REMARK    5  A    between atoms: C_7  and  C_8
REMARK    6  A    between atoms: C_8  and  N_9
REMARK    7  A    between atoms: N_9  and  CA_10
REMARK    8  A    between atoms: CA_10  and  C_11
REMARK    9  A    between atoms: CA_10  and  C_13
REMARK   10  A    between atoms: C_11  and  O_12
REMARK   11  A    between atoms: C_21  and  C_23
REMARK                            x       y       z     vdW  Elec       q    Type
REMARK                         _______ _______ _______ _____ _____    ______ ____
ROOT
ATOM      1  C   UNL     1      46.551   7.376  12.937  0.00  0.00    +0.000 A 
ATOM      2  C   UNL     1      45.746   8.108  12.059  0.00  0.00    +0.000 A 
ATOM      3  C   UNL     1      44.665   7.502  11.419  0.00  0.00    +0.000 A 
ATOM      4  C   UNL     1      44.376   6.145  11.625  0.00  0.00    +0.000 A 
ATOM      5  C   UNL     1      45.215   5.400  12.465  0.00  0.00    +0.000 A 
ATOM      6  C   UNL     1      46.290   6.012  13.120  0.00  0.00    +0.000 A 
ENDROOT
BRANCH   1   7
ATOM      7  C   UNL     1      47.642   8.074  13.718  0.00  0.00    +0.000 C 
BRANCH   7   8
ATOM      8  C   UNL     1      48.707   7.090  14.234  0.00  0.00    +0.000 C 
BRANCH   8   9
ATOM      9  N   UNL     1      49.762   6.915  13.203  0.00  0.00    +0.000 NA
ATOM     10  H   UNL     1      49.945   5.913  13.107  0.00  0.00    +0.000 HD
ATOM     11  H   UNL     1      50.631   7.313  13.578  0.00  0.00    +0.000 HD
ENDBRANCH   8   9
BRANCH   8  12
ATOM     12  C   UNL     1      49.367   7.590  15.543  0.00  0.00    +0.000 C 
ATOM     13  O   UNL     1      48.801   8.463  16.212  0.00  0.00    +0.000 OA
BRANCH  12  14
ATOM     14  C   UNL     1      50.626   6.996  16.029  0.00  0.00    +0.000 A 
ATOM     15  C   UNL     1      51.842   7.604  15.756  0.00  0.00    +0.000 A 
ATOM     16  S   UNL     1      53.166   6.844  16.524  0.00  0.00    +0.000 S 
ATOM     17  C   UNL     1      52.160   5.651  17.201  0.00  0.00    +0.000 A 
ATOM     18  N   UNL     1      52.654   4.692  18.029  0.00  0.00    +0.000 NA
ATOM     19  C   UNL     1      51.767   3.865  18.474  0.00  0.00    +0.000 A 
ATOM     20  N   UNL     1      50.437   3.885  18.133  0.00  0.00    +0.000 N 
ATOM     21  C   UNL     1      49.936   4.730  17.178  0.00  0.00    +0.000 A 
ATOM     22  O   UNL     1      48.837   4.546  16.665  0.00  0.00    +0.000 OA
ATOM     23  C   UNL     1      50.846   5.794  16.786  0.00  0.00    +0.000 A 
ATOM     24  H   UNL     1      49.821   3.148  18.440  0.00  0.00    +0.000 HD
ENDBRANCH  12  14
ENDBRANCH   8  12
ENDBRANCH   7   8
ENDBRANCH   1   7
BRANCH   4  25
ATOM     25  C   UNL     1      43.143   5.525  11.000  0.00  0.00    +0.000 C 
BRANCH  25  26
ATOM     26  N   UNL     1      43.500   4.652   9.883  0.00  0.00    +0.000 NA
ATOM     27  H   UNL     1      44.005   5.218   9.197  0.00  0.00    +0.000 HD
BRANCH  26  28
ATOM     28  CA  UNL     1      44.378   3.517  10.254  0.00  0.00    +0.000 C 
BRANCH  28  29
ATOM     29  C   UNL     1      45.265   3.132   9.068  0.00  0.00    +0.000 A 
ATOM     30  C   UNL     1      45.623   1.790   8.857  0.00  0.00    +0.000 A 
ATOM     31  C   UNL     1      46.433   1.428   7.774  0.00  0.00    +0.000 A 
ATOM     32  C   UNL     1      46.897   2.400   6.890  0.00  0.00    +0.000 A 
ATOM     33  C   UNL     1      46.544   3.732   7.076  0.00  0.00    +0.000 A 
ATOM     34  C   UNL     1      45.729   4.092   8.150  0.00  0.00    +0.000 A 
ENDBRANCH  28  29
BRANCH  28  35
ATOM     35  C   UNL     1      43.582   2.279  10.753  0.00  0.00    +0.000 C 
BRANCH  35  36
ATOM     36  O   UNL     1      43.440   2.264  12.174  0.00  0.00    +0.000 OA
ATOM     37  H   UNL     1      44.236   1.812  12.511  0.00  0.00    +0.000 HD
ENDBRANCH  35  36
ENDBRANCH  28  35
ENDBRANCH  26  28
ENDBRANCH  25  26
ENDBRANCH   4  25
TORSDOF 11
ENDMDL
MODEL 7
REMARK VINA RESULT:    -6.951      3.524      8.926
REMARK INTER + INTRA:         -12.036
REMARK INTER:                 -10.666
REMARK INTRA:                  -1.370
REMARK UNBOUND:                -1.021
REMARK  Name = 
REMARK  11 active torsions:
REMARK  status: ('A' for Active; 'I' for Inactive)
REMARK    1  A    between atoms: N_1  and  C_2
REMARK    2  A    between atoms: C_2  and  C_3
REMARK    3  A    between atoms: C_2  and  C_21
REMARK    4  A    between atoms: C_3  and  C_4
REMARK    5  A    between atoms: C_7  and  C_8
REMARK    6  A    between atoms: C_8  and  N_9
REMARK    7  A    between atoms: N_9  and  CA_10
REMARK    8  A    between atoms: CA_10  and  C_11
REMARK    9  A    between atoms: CA_10  and  C_13
REMARK   10  A    between atoms: C_11  and  O_12
REMARK   11  A    between atoms: C_21  and  C_23
REMARK                            x       y       z     vdW  Elec       q    Type
REMARK                         _______ _______ _______ _____ _____    ______ ____
ROOT
ATOM      1  C   UNL     1      48.871   7.875  14.224  0.00  0.00    +0.000 A 
ATOM      2  C   UNL     1      49.881   7.108  14.813  0.00  0.00    +0.000 A 
ATOM      3  C   UNL     1      50.071   7.130  16.196  0.00  0.00    +0.000 A 
ATOM      4  C   UNL     1      49.269   7.934  17.018  0.00  0.00    +0.000 A 
ATOM      5  C   UNL     1      48.290   8.740  16.421  0.00  0.00    +0.000 A 
ATOM      6  C   UNL     1      48.089   8.707  15.036  0.00  0.00    +0.000 A 
ENDROOT
BRANCH   1   7
ATOM      7  C   UNL     1      48.595   7.747  12.743  0.00  0.00    +0.000 C 
BRANCH   7   8
ATOM      8  C   UNL     1      47.817   6.463  12.406  0.00  0.00    +0.000 C 
BRANCH   8   9
ATOM      9  N   UNL     1      47.545   5.705  13.653  0.00  0.00    +0.000 NA
ATOM     10  H   UNL     1      47.758   6.314  14.446  0.00  0.00    +0.000 HD
ATOM     11  H   UNL     1      48.229   4.942  13.708  0.00  0.00    +0.000 HD
ENDBRANCH   8   9
BRANCH   8  12
ATOM     12  C   UNL     1      46.470   6.773  11.707  0.00  0.00    +0.000 C 
ATOM     13  O   UNL     1      46.031   7.929  11.723  0.00  0.00    +0.000 OA
BRANCH  12  14
ATOM     14  C   UNL     1      45.740   5.722  10.973  0.00  0.00    +0.000 A 
ATOM     15  C   UNL     1      45.878   5.598   9.599  0.00  0.00    +0.000 A 
ATOM     16  S   UNL     1      45.067   4.238   8.958  0.00  0.00    +0.000 S 
ATOM     17  C   UNL     1      44.466   3.805  10.489  0.00  0.00    +0.000 A 
ATOM     18  N   UNL     1      43.718   2.683  10.667  0.00  0.00    +0.000 NA
ATOM     19  C   UNL     1      43.345   2.480  11.887  0.00  0.00    +0.000 A 
ATOM     20  N   UNL     1      43.618   3.319  12.939  0.00  0.00    +0.000 N 
ATOM     21  C   UNL     1      44.224   4.537  12.769  0.00  0.00    +0.000 A 
ATOM     22  O   UNL     1      44.194   5.400  13.641  0.00  0.00    +0.000 OA
ATOM     23  C   UNL     1      44.823   4.728  11.459  0.00  0.00    +0.000 A 
ATOM     24  H   UNL     1      43.210   3.149  13.846  0.00  0.00    +0.000 HD
ENDBRANCH  12  14
ENDBRANCH   8  12
ENDBRANCH   7   8
ENDBRANCH   1   7
BRANCH   4  25
ATOM     25  C   UNL     1      49.421   7.875  18.524  0.00  0.00    +0.000 C 
BRANCH  25  26
ATOM     26  N   UNL     1      48.497   6.906  19.111  0.00  0.00    +0.000 NA
ATOM     27  H   UNL     1      47.793   6.683  18.404  0.00  0.00    +0.000 HD
BRANCH  26  28
ATOM     28  CA  UNL     1      49.132   5.633  19.523  0.00  0.00    +0.000 C 
BRANCH  28  29
ATOM     29  C   UNL     1      48.895   4.561  18.456  0.00  0.00    +0.000 A 
ATOM     30  C   UNL     1      47.675   4.507  17.763  0.00  0.00    +0.000 A 
ATOM     31  C   UNL     1      47.450   3.531  16.785  0.00  0.00    +0.000 A 
ATOM     32  C   UNL     1      48.440   2.596  16.487  0.00  0.00    +0.000 A 
ATOM     33  C   UNL     1      49.659   2.641  17.154  0.00  0.00    +0.000 A 
ATOM     34  C   UNL     1      49.887   3.619  18.123  0.00  0.00    +0.000 A 
ENDBRANCH  28  29
BRANCH  28  35
ATOM     35  C   UNL     1      48.633   5.131  20.907  0.00  0.00    +0.000 C 
BRANCH  35  36
ATOM     36  O   UNL     1      48.341   3.732  20.900  0.00  0.00    +0.000 OA
ATOM     37  H   UNL     1      48.180   3.495  21.832  0.00  0.00    +0.000 HD
ENDBRANCH  35  36
ENDBRANCH  28  35
ENDBRANCH  26  28
ENDBRANCH  25  26
ENDBRANCH   4  25
TORSDOF 11
ENDMDL
MODEL 8
REMARK VINA RESULT:    -6.885      2.533      3.973
REMARK INTER + INTRA:         -11.930
REMARK INTER:                 -10.403
REMARK INTRA:                  -1.527
REMARK UNBOUND:                -1.021
REMARK  Name = 
REMARK  11 active torsions:
REMARK  status: ('A' for Active; 'I' for Inactive)
REMARK    1  A    between atoms: N_1  and  C_2
REMARK    2  A    between atoms: C_2  and  C_3
REMARK    3  A    between atoms: C_2  and  C_21
REMARK    4  A    between atoms: C_3  and  C_4
REMARK    5  A    between atoms: C_7  and  C_8
REMARK    6  A    between atoms: C_8  and  N_9
REMARK    7  A    between atoms: N_9  and  CA_10
REMARK    8  A    between atoms: CA_10  and  C_11
REMARK    9  A    between atoms: CA_10  and  C_13
REMARK   10  A    between atoms: C_11  and  O_12
REMARK   11  A    between atoms: C_21  and  C_23
REMARK                            x       y       z     vdW  Elec       q    Type
REMARK                         _______ _______ _______ _____ _____    ______ ____
ROOT
ATOM      1  C   UNL     1      49.235   8.056  14.415  0.00  0.00    +0.000 A 
ATOM      2  C   UNL     1      48.558   9.120  13.812  0.00  0.00    +0.000 A 
ATOM      3  C   UNL     1      47.332   8.909  13.178  0.00  0.00    +0.000 A 
ATOM      4  C   UNL     1      46.767   7.628  13.115  0.00  0.00    +0.000 A 
ATOM      5  C   UNL     1      47.472   6.554  13.675  0.00  0.00    +0.000 A 
ATOM      6  C   UNL     1      48.694   6.768  14.324  0.00  0.00    +0.000 A 
ENDROOT
BRANCH   1   7
ATOM      7  C   UNL     1      50.498   8.319  15.204  0.00  0.00    +0.000 C 
BRANCH   7   8
ATOM      8  C   UNL     1      51.145   7.020  15.715  0.00  0.00    +0.000 C 
BRANCH   8   9
ATOM      9  N   UNL     1      52.601   7.040  15.420  0.00  0.00    +0.000 NA
ATOM     10  H   UNL     1      52.724   6.839  14.425  0.00  0.00    +0.000 HD
ATOM     11  H   UNL     1      53.027   6.245  15.910  0.00  0.00    +0.000 HD
ENDBRANCH   8   9
BRANCH   8  12
ATOM     12  C   UNL     1      50.948   6.838  17.241  0.00  0.00    +0.000 C 
ATOM     13  O   UNL     1      51.867   7.143  18.010  0.00  0.00    +0.000 OA
BRANCH  12  14
ATOM     14  C   UNL     1      49.661   6.367  17.786  0.00  0.00    +0.000 A 
ATOM     15  C   UNL     1      48.860   7.219  18.532  0.00  0.00    +0.000 A 
ATOM     16  S   UNL     1      47.352   6.533  18.952  0.00  0.00    +0.000 S 
ATOM     17  C   UNL     1      47.747   5.062  18.193  0.00  0.00    +0.000 A 
ATOM     18  N   UNL     1      46.860   4.033  18.136  0.00  0.00    +0.000 NA
ATOM     19  C   UNL     1      47.298   2.987  17.517  0.00  0.00    +0.000 A 
ATOM     20  N   UNL     1      48.559   2.862  16.985  0.00  0.00    +0.000 N 
ATOM     21  C   UNL     1      49.530   3.812  17.168  0.00  0.00    +0.000 A 
ATOM     22  O   UNL     1      50.715   3.571  16.961  0.00  0.00    +0.000 OA
ATOM     23  C   UNL     1      49.038   5.076  17.692  0.00  0.00    +0.000 A 
ATOM     24  H   UNL     1      48.867   1.981  16.604  0.00  0.00    +0.000 HD
ENDBRANCH  12  14
ENDBRANCH   8  12
ENDBRANCH   7   8
ENDBRANCH   1   7
BRANCH   4  25
ATOM     25  C   UNL     1      45.392   7.430  12.510  0.00  0.00    +0.000 C 
BRANCH  25  26
ATOM     26  N   UNL     1      45.447   6.533  11.357  0.00  0.00    +0.000 NA
ATOM     27  H   UNL     1      46.415   6.219  11.254  0.00  0.00    +0.000 HD
BRANCH  26  28
ATOM     28  CA  UNL     1      44.600   5.324  11.488  0.00  0.00    +0.000 C 
BRANCH  28  29
ATOM     29  C   UNL     1      44.840   4.386  10.302  0.00  0.00    +0.000 A 
ATOM     30  C   UNL     1      45.536   4.838   9.170  0.00  0.00    +0.000 A 
ATOM     31  C   UNL     1      45.762   3.987   8.081  0.00  0.00    +0.000 A 
ATOM     32  C   UNL     1      45.295   2.674   8.109  0.00  0.00    +0.000 A 
ATOM     33  C   UNL     1      44.614   2.205   9.227  0.00  0.00    +0.000 A 
ATOM     34  C   UNL     1      44.397   3.050  10.316  0.00  0.00    +0.000 A 
ENDBRANCH  28  29
BRANCH  28  35
ATOM     35  C   UNL     1      43.087   5.658  11.609  0.00  0.00    +0.000 C 
BRANCH  35  36
ATOM     36  O   UNL     1      42.603   5.494  12.942  0.00  0.00    +0.000 OA
ATOM     37  H   UNL     1      42.130   6.321  13.152  0.00  0.00    +0.000 HD
ENDBRANCH  35  36
ENDBRANCH  28  35
ENDBRANCH  26  28
ENDBRANCH  25  26
ENDBRANCH   4  25
TORSDOF 11
ENDMDL
MODEL 9
REMARK VINA RESULT:    -6.884      2.694      3.652
REMARK INTER + INTRA:         -11.929
REMARK INTER:                 -10.848
REMARK INTRA:                  -1.082
REMARK UNBOUND:                -1.021
REMARK  Name = 
REMARK  11 active torsions:
REMARK  status: ('A' for Active; 'I' for Inactive)
REMARK    1  A    between atoms: N_1  and  C_2
REMARK    2  A    between atoms: C_2  and  C_3
REMARK    3  A    between atoms: C_2  and  C_21
REMARK    4  A    between atoms: C_3  and  C_4
REMARK    5  A    between atoms: C_7  and  C_8
REMARK    6  A    between atoms: C_8  and  N_9
REMARK    7  A    between atoms: N_9  and  CA_10
REMARK    8  A    between atoms: CA_10  and  C_11
REMARK    9  A    between atoms: CA_10  and  C_13
REMARK   10  A    between atoms: C_11  and  O_12
REMARK   11  A    between atoms: C_21  and  C_23
REMARK                            x       y       z     vdW  Elec       q    Type
REMARK                         _______ _______ _______ _____ _____    ______ ____
ROOT
ATOM      1  C   UNL     1      47.638   7.034  13.193  0.00  0.00    +0.000 A 
ATOM      2  C   UNL     1      47.071   7.813  12.180  0.00  0.00    +0.000 A 
ATOM      3  C   UNL     1      45.809   7.501  11.671  0.00  0.00    +0.000 A 
ATOM      4  C   UNL     1      45.096   6.392  12.148  0.00  0.00    +0.000 A 
ATOM      5  C   UNL     1      45.688   5.583  13.128  0.00  0.00    +0.000 A 
ATOM      6  C   UNL     1      46.947   5.904  13.650  0.00  0.00    +0.000 A 
ENDROOT
BRANCH   1   7
ATOM      7  C   UNL     1      48.948   7.454  13.821  0.00  0.00    +0.000 C 
BRANCH   7   8
ATOM      8  C   UNL     1      48.837   8.807  14.546  0.00  0.00    +0.000 C 
BRANCH   8   9
ATOM      9  N   UNL     1      47.525   8.893  15.239  0.00  0.00    +0.000 NA
ATOM     10  H   UNL     1      47.677   8.687  16.229  0.00  0.00    +0.000 HD
ATOM     11  H   UNL     1      46.939   8.126  14.890  0.00  0.00    +0.000 HD
ENDBRANCH   8   9
BRANCH   8  12
ATOM     12  C   UNL     1      49.965   8.997  15.590  0.00  0.00    +0.000 C 
ATOM     13  O   UNL     1      50.411  10.131  15.801  0.00  0.00    +0.000 OA
BRANCH  12  14
ATOM     14  C   UNL     1      50.468   7.854  16.375  0.00  0.00    +0.000 A 
ATOM     15  C   UNL     1      51.517   7.082  15.900  0.00  0.00    +0.000 A 
ATOM     16  S   UNL     1      52.046   5.900  17.015  0.00  0.00    +0.000 S 
ATOM     17  C   UNL     1      50.855   6.352  18.144  0.00  0.00    +0.000 A 
ATOM     18  N   UNL     1      50.775   5.761  19.366  0.00  0.00    +0.000 NA
ATOM     19  C   UNL     1      49.829   6.218  20.117  0.00  0.00    +0.000 A 
ATOM     20  N   UNL     1      48.929   7.186  19.741  0.00  0.00    +0.000 N 
ATOM     21  C   UNL     1      48.877   7.683  18.465  0.00  0.00    +0.000 A 
ATOM     22  O   UNL     1      47.902   8.307  18.055  0.00  0.00    +0.000 OA
ATOM     23  C   UNL     1      50.025   7.341  17.643  0.00  0.00    +0.000 A 
ATOM     24  H   UNL     1      48.155   7.423  20.342  0.00  0.00    +0.000 HD
ENDBRANCH  12  14
ENDBRANCH   8  12
ENDBRANCH   7   8
ENDBRANCH   1   7
BRANCH   4  25
ATOM     25  C   UNL     1      43.689   6.122  11.657  0.00  0.00    +0.000 C 
BRANCH  25  26
ATOM     26  N   UNL     1      43.696   5.222  10.505  0.00  0.00    +0.000 NA
ATOM     27  H   UNL     1      44.195   5.693   9.747  0.00  0.00    +0.000 HD
BRANCH  26  28
ATOM     28  CA  UNL     1      44.375   3.928  10.748  0.00  0.00    +0.000 C 
BRANCH  28  29
ATOM     29  C   UNL     1      45.112   3.477   9.485  0.00  0.00    +0.000 A 
ATOM     30  C   UNL     1      45.652   4.427   8.602  0.00  0.00    +0.000 A 
ATOM     31  C   UNL     1      46.330   4.024   7.445  0.00  0.00    +0.000 A 
ATOM     32  C   UNL     1      46.475   2.669   7.153  0.00  0.00    +0.000 A 
ATOM     33  C   UNL     1      45.956   1.714   8.022  0.00  0.00    +0.000 A 
ATOM     34  C   UNL     1      45.290   2.115   9.180  0.00  0.00    +0.000 A 
ENDBRANCH  28  29
BRANCH  28  35
ATOM     35  C   UNL     1      43.399   2.816  11.225  0.00  0.00    +0.000 C 
BRANCH  35  36
ATOM     36  O   UNL     1      43.748   2.308  12.514  0.00  0.00    +0.000 OA
ATOM     37  H   UNL     1      44.647   1.943  12.416  0.00  0.00    +0.000 HD
ENDBRANCH  35  36
ENDBRANCH  28  35
ENDBRANCH  26  28
ENDBRANCH  25  26
ENDBRANCH   4  25
TORSDOF 11
ENDMDL
