MODEL 1
REMARK VINA RESULT:    -7.746      0.000      0.000
REMARK INTER + INTRA:         -11.284
REMARK INTER:                 -10.462
REMARK INTRA:                  -0.821
REMARK UNBOUND:                -0.821
REMARK  Name = 
REMARK  7 active torsions:
REMARK  status: ('A' for Active; 'I' for Inactive)
REMARK    1  A    between atoms: C_1  and  C_2
REMARK    2  A    between atoms: C_2  and  C_3
REMARK    3  A    between atoms: C_2  and  C_15
REMARK    4  A    between atoms: C_3  and  N_4
REMARK    5  A    between atoms: N_4  and  C_5
REMARK    6  A    between atoms: C_8  and  C_9
REMARK    7  A    between atoms: C_19  and  C_20
REMARK                            x       y       z     vdW  Elec       q    Type
REMARK                         _______ _______ _______ _____ _____    ______ ____
ROOT
ATOM      1  N   UNL     1      43.927   5.054   9.862  0.00  0.00    +0.000 N 
ATOM      2  H   UNL     1      43.326   5.522   9.186  0.00  0.00    +0.000 HD
ENDROOT
BRANCH   1   3
ATOM      3  C   UNL     1      44.773   4.164   9.178  0.00  0.00    +0.000 A 
ATOM      4  N   UNL     1      45.585   4.660   8.217  0.00  0.00    +0.000 NA
ATOM      5  C   UNL     1      46.392   3.802   7.547  0.00  0.00    +0.000 A 
ATOM      6  C   UNL     1      46.454   2.442   7.792  0.00  0.00    +0.000 A 
ATOM      7  C   UNL     1      45.643   1.936   8.809  0.00  0.00    +0.000 A 
ATOM      8  C   UNL     1      44.794   2.798   9.506  0.00  0.00    +0.000 A 
ATOM      9 CL   UNL     1      43.779   2.139  10.740  0.00  0.00    +0.000 Cl
BRANCH   6  10
ATOM     10  C   UNL     1      47.319   1.519   7.021  0.00  0.00    +0.000 C 
ATOM     11  N   UNL     1      48.346   2.033   6.282  0.00  0.00    +0.000 N 
ATOM     12  O   UNL     1      47.114   0.311   7.031  0.00  0.00    +0.000 OA
ATOM     13  H   UNL     1      48.579   3.007   6.169  0.00  0.00    +0.000 HD
ATOM     14  H   UNL     1      48.889   1.367   5.744  0.00  0.00    +0.000 HD
ENDBRANCH   6  10
ENDBRANCH   1   3
BRANCH   1  15
ATOM     15  C   UNL     1      44.628   5.991  10.728  0.00  0.00    +0.000 C 
BRANCH  15  17
ATOM     16  C   UNL     1      43.192   5.160  12.694  0.00  0.00    +0.000 C 
ATOM     17  C   UNL     1      44.544   5.460  12.129  0.00  0.00    +0.000 C 
BRANCH  17  18
ATOM     18  C   UNL     1      45.701   5.616  13.021  0.00  0.00    +0.000 A 
ATOM     19  C   UNL     1      46.574   6.696  12.853  0.00  0.00    +0.000 A 
ATOM     20  C   UNL     1      47.716   6.822  13.644  0.00  0.00    +0.000 A 
ATOM     21  C   UNL     1      47.989   5.876  14.629  0.00  0.00    +0.000 A 
ATOM     22  C   UNL     1      47.113   4.805  14.830  0.00  0.00    +0.000 A 
ATOM     23  C   UNL     1      45.975   4.675  14.024  0.00  0.00    +0.000 A 
BRANCH  22  24
ATOM     24  C   UNL     1      47.389   3.833  15.850  0.00  0.00    +0.000 C 
ATOM     25  N   UNL     1      47.615   3.048  16.672  0.00  0.00    +0.000 NA
ENDBRANCH  22  24
ENDBRANCH  17  18
ENDBRANCH  15  17
ENDBRANCH   1  15
TORSDOF 6
ENDMDL
MODEL 2
REMARK VINA RESULT:    -7.253      2.140      3.278
REMARK INTER + INTRA:         -10.617
REMARK INTER:                 -10.589
REMARK INTRA:                  -0.028
REMARK UNBOUND:                -0.821
REMARK  Name = 
REMARK  7 active torsions:
REMARK  status: ('A' for Active; 'I' for Inactive)
REMARK    1  A    between atoms: C_1  and  C_2
REMARK    2  A    between atoms: C_2  and  C_3
REMARK    3  A    between atoms: C_2  and  C_15
REMARK    4  A    between atoms: C_3  and  N_4
REMARK    5  A    between atoms: N_4  and  C_5
REMARK    6  A    between atoms: C_8  and  C_9
REMARK    7  A    between atoms: C_19  and  C_20
REMARK                            x       y       z     vdW  Elec       q    Type
REMARK                         _______ _______ _______ _____ _____    ______ ____
ROOT
ATOM      1  N   UNL     1      44.086   5.139   9.937  0.00  0.00    +0.000 N 
ATOM      2  H   UNL     1      44.381   6.089   9.721  0.00  0.00    +0.000 HD
ENDROOT
BRANCH   1   3
ATOM      3  C   UNL     1      44.894   4.239   9.221  0.00  0.00    +0.000 A 
ATOM      4  N   UNL     1      45.782   4.740   8.332  0.00  0.00    +0.000 NA
ATOM      5  C   UNL     1      46.553   3.874   7.632  0.00  0.00    +0.000 A 
ATOM      6  C   UNL     1      46.506   2.500   7.777  0.00  0.00    +0.000 A 
ATOM      7  C   UNL     1      45.617   1.984   8.722  0.00  0.00    +0.000 A 
ATOM      8  C   UNL     1      44.803   2.856   9.448  0.00  0.00    +0.000 A 
ATOM      9 CL   UNL     1      43.689   2.189  10.589  0.00  0.00    +0.000 Cl
BRANCH   6  10
ATOM     10  C   UNL     1      47.336   1.571   6.974  0.00  0.00    +0.000 C 
ATOM     11  N   UNL     1      48.403   2.065   6.281  0.00  0.00    +0.000 N 
ATOM     12  O   UNL     1      47.066   0.377   6.917  0.00  0.00    +0.000 OA
ATOM     13  H   UNL     1      48.690   3.030   6.223  0.00  0.00    +0.000 HD
ATOM     14  H   UNL     1      48.920   1.400   5.718  0.00  0.00    +0.000 HD
ENDBRANCH   6  10
ENDBRANCH   1   3
BRANCH   1  15
ATOM     15  C   UNL     1      44.036   4.882  11.369  0.00  0.00    +0.000 C 
BRANCH  15  17
ATOM     16  C   UNL     1      46.028   4.074  12.781  0.00  0.00    +0.000 C 
ATOM     17  C   UNL     1      45.409   5.129  11.920  0.00  0.00    +0.000 C 
BRANCH  17  18
ATOM     18  C   UNL     1      45.936   6.501  11.935  0.00  0.00    +0.000 A 
ATOM     19  C   UNL     1      47.317   6.719  11.999  0.00  0.00    +0.000 A 
ATOM     20  C   UNL     1      47.833   8.012  12.087  0.00  0.00    +0.000 A 
ATOM     21  C   UNL     1      46.972   9.107  12.091  0.00  0.00    +0.000 A 
ATOM     22  C   UNL     1      45.590   8.909  11.999  0.00  0.00    +0.000 A 
ATOM     23  C   UNL     1      45.076   7.608  11.926  0.00  0.00    +0.000 A 
BRANCH  22  24
ATOM     24  C   UNL     1      44.702  10.036  11.997  0.00  0.00    +0.000 C 
ATOM     25  N   UNL     1      43.984  10.946  11.997  0.00  0.00    +0.000 NA
ENDBRANCH  22  24
ENDBRANCH  17  18
ENDBRANCH  15  17
ENDBRANCH   1  15
TORSDOF 6
ENDMDL
MODEL 3
REMARK VINA RESULT:    -7.216      1.931      2.478
REMARK INTER + INTRA:         -10.568
REMARK INTER:                  -9.687
REMARK INTRA:                  -0.882
REMARK UNBOUND:                -0.821
REMARK  Name = 
REMARK  7 active torsions:
REMARK  status: ('A' for Active; 'I' for Inactive)
REMARK    1  A    between atoms: C_1  and  C_2
REMARK    2  A    between atoms: C_2  and  C_3
REMARK    3  A    between atoms: C_2  and  C_15
REMARK    4  A    between atoms: C_3  and  N_4
REMARK    5  A    between atoms: N_4  and  C_5
REMARK    6  A    between atoms: C_8  and  C_9
REMARK    7  A    between atoms: C_19  and  C_20
REMARK                            x       y       z     vdW  Elec       q    Type
REMARK                         _______ _______ _______ _____ _____    ______ ____
ROOT
ATOM      1  N   UNL     1      43.805   4.650   9.782  0.00  0.00    +0.000 N 
ATOM      2  H   UNL     1      43.069   5.007   9.175  0.00  0.00    +0.000 HD
ENDROOT
BRANCH   1   3
ATOM      3  C   UNL     1      44.791   4.040   8.988  0.00  0.00    +0.000 A 
ATOM      4  N   UNL     1      45.588   4.829   8.232  0.00  0.00    +0.000 NA
ATOM      5  C   UNL     1      46.531   4.242   7.457  0.00  0.00    +0.000 A 
ATOM      6  C   UNL     1      46.748   2.877   7.397  0.00  0.00    +0.000 A 
ATOM      7  C   UNL     1      45.951   2.065   8.206  0.00  0.00    +0.000 A 
ATOM      8  C   UNL     1      44.965   2.645   9.005  0.00  0.00    +0.000 A 
ATOM      9 CL   UNL     1      43.972   1.614   9.973  0.00  0.00    +0.000 Cl
BRANCH   6  10
ATOM     10  C   UNL     1      47.763   2.256   6.514  0.00  0.00    +0.000 C 
ATOM     11  N   UNL     1      48.113   2.890   5.357  0.00  0.00    +0.000 N 
ATOM     12  O   UNL     1      48.275   1.182   6.805  0.00  0.00    +0.000 OA
ATOM     13  H   UNL     1      47.728   3.751   5.001  0.00  0.00    +0.000 HD
ATOM     14  H   UNL     1      48.785   2.411   4.768  0.00  0.00    +0.000 HD
ENDBRANCH   6  10
ENDBRANCH   1   3
BRANCH   1  15
ATOM     15  C   UNL     1      44.319   5.666  10.690  0.00  0.00    +0.000 C 
BRANCH  15  17
ATOM     16  C   UNL     1      43.948   4.028  12.638  0.00  0.00    +0.000 C 
ATOM     17  C   UNL     1      44.856   4.959  11.899  0.00  0.00    +0.000 C 
BRANCH  17  18
ATOM     18  C   UNL     1      46.074   5.471  12.542  0.00  0.00    +0.000 A 
ATOM     19  C   UNL     1      46.473   4.967  13.785  0.00  0.00    +0.000 A 
ATOM     20  C   UNL     1      47.586   5.490  14.444  0.00  0.00    +0.000 A 
ATOM     21  C   UNL     1      48.327   6.512  13.856  0.00  0.00    +0.000 A 
ATOM     22  C   UNL     1      47.961   7.007  12.601  0.00  0.00    +0.000 A 
ATOM     23  C   UNL     1      46.833   6.490  11.950  0.00  0.00    +0.000 A 
BRANCH  22  24
ATOM     24  C   UNL     1      48.728   8.056  11.991  0.00  0.00    +0.000 C 
ATOM     25  N   UNL     1      49.348   8.902  11.499  0.00  0.00    +0.000 NA
ENDBRANCH  22  24
ENDBRANCH  17  18
ENDBRANCH  15  17
ENDBRANCH   1  15
TORSDOF 6
ENDMDL
MODEL 4
REMARK VINA RESULT:    -6.660      2.233      3.055
REMARK INTER + INTRA:          -9.817
REMARK INTER:                  -8.812
REMARK INTRA:                  -1.005
REMARK UNBOUND:                -0.821
REMARK  Name = 
REMARK  7 active torsions:
REMARK  status: ('A' for Active; 'I' for Inactive)
REMARK    1  A    between atoms: C_1  and  C_2
REMARK    2  A    between atoms: C_2  and  C_3
REMARK    3  A    between atoms: C_2  and  C_15
REMARK    4  A    between atoms: C_3  and  N_4
REMARK    5  A    between atoms: N_4  and  C_5
REMARK    6  A    between atoms: C_8  and  C_9
REMARK    7  A    between atoms: C_19  and  C_20
REMARK                            x       y       z     vdW  Elec       q    Type
REMARK                         _______ _______ _______ _____ _____    ______ ____
ROOT
ATOM      1  N   UNL     1      43.834   3.816  10.591  0.00  0.00    +0.000 N 
ATOM      2  H   UNL     1      43.800   4.824  10.451  0.00  0.00    +0.000 HD
ENDROOT
BRANCH   1   3
ATOM      3  C   UNL     1      44.699   3.255   9.636  0.00  0.00    +0.000 A 
ATOM      4  N   UNL     1      44.574   1.938   9.351  0.00  0.00    +0.000 NA
ATOM      5  C   UNL     1      45.416   1.392   8.441  0.00  0.00    +0.000 A 
ATOM      6  C   UNL     1      46.392   2.099   7.762  0.00  0.00    +0.000 A 
ATOM      7  C   UNL     1      46.496   3.466   8.028  0.00  0.00    +0.000 A 
ATOM      8  C   UNL     1      45.648   4.050   8.971  0.00  0.00    +0.000 A 
ATOM      9 CL   UNL     1      45.818   5.737   9.303  0.00  0.00    +0.000 Cl
BRANCH   6  10
ATOM     10  C   UNL     1      47.323   1.472   6.796  0.00  0.00    +0.000 C 
ATOM     11  N   UNL     1      48.464   2.136   6.446  0.00  0.00    +0.000 N 
ATOM     12  O   UNL     1      47.073   0.378   6.303  0.00  0.00    +0.000 OA
ATOM     13  H   UNL     1      48.747   3.052   6.757  0.00  0.00    +0.000 HD
ATOM     14  H   UNL     1      49.053   1.684   5.756  0.00  0.00    +0.000 HD
ENDBRANCH   6  10
ENDBRANCH   1   3
BRANCH   1  15
ATOM     15  C   UNL     1      44.151   3.455  11.965  0.00  0.00    +0.000 C 
BRANCH  15  17
ATOM     16  C   UNL     1      42.779   5.236  13.214  0.00  0.00    +0.000 C 
ATOM     17  C   UNL     1      44.111   4.711  12.783  0.00  0.00    +0.000 C 
BRANCH  17  18
ATOM     18  C   UNL     1      45.294   5.584  12.806  0.00  0.00    +0.000 A 
ATOM     19  C   UNL     1      46.550   5.053  13.119  0.00  0.00    +0.000 A 
ATOM     20  C   UNL     1      47.670   5.877  13.216  0.00  0.00    +0.000 A 
ATOM     21  C   UNL     1      47.552   7.245  12.981  0.00  0.00    +0.000 A 
ATOM     22  C   UNL     1      46.310   7.789  12.639  0.00  0.00    +0.000 A 
ATOM     23  C   UNL     1      45.184   6.959  12.557  0.00  0.00    +0.000 A 
BRANCH  22  24
ATOM     24  C   UNL     1      46.188   9.198  12.390  0.00  0.00    +0.000 C 
ATOM     25  N   UNL     1      46.090  10.334  12.188  0.00  0.00    +0.000 NA
ENDBRANCH  22  24
ENDBRANCH  17  18
ENDBRANCH  15  17
ENDBRANCH   1  15
TORSDOF 6
ENDMDL
MODEL 5
REMARK VINA RESULT:    -6.484      3.578      6.530
REMARK INTER + INTRA:          -9.579
REMARK INTER:                  -8.665
REMARK INTRA:                  -0.914
REMARK UNBOUND:                -0.821
REMARK  Name = 
REMARK  7 active torsions:
REMARK  status: ('A' for Active; 'I' for Inactive)
REMARK    1  A    between atoms: C_1  and  C_2
REMARK    2  A    between atoms: C_2  and  C_3
REMARK    3  A    between atoms: C_2  and  C_15
REMARK    4  A    between atoms: C_3  and  N_4
REMARK    5  A    between atoms: N_4  and  C_5
REMARK    6  A    between atoms: C_8  and  C_9
REMARK    7  A    between atoms: C_19  and  C_20
REMARK                            x       y       z     vdW  Elec       q    Type
REMARK                         _______ _______ _______ _____ _____    ______ ____
ROOT
ATOM      1  N   UNL     1      45.229   5.210  13.077  0.00  0.00    +0.000 N 
ATOM      2  H   UNL     1      44.991   5.257  14.066  0.00  0.00    +0.000 HD
ENDROOT
BRANCH   1   3
ATOM      3  C   UNL     1      46.366   6.003  12.845  0.00  0.00    +0.000 A 
ATOM      4  N   UNL     1      47.550   5.595  13.356  0.00  0.00    +0.000 NA
ATOM      5  C   UNL     1      48.644   6.365  13.145  0.00  0.00    +0.000 A 
ATOM      6  C   UNL     1      48.637   7.543  12.421  0.00  0.00    +0.000 A 
ATOM      7  C   UNL     1      47.423   7.946  11.862  0.00  0.00    +0.000 A 
ATOM      8  C   UNL     1      46.278   7.175  12.075  0.00  0.00    +0.000 A 
ATOM      9 CL   UNL     1      44.782   7.712  11.397  0.00  0.00    +0.000 Cl
BRANCH   6  10
ATOM     10  C   UNL     1      49.841   8.386  12.234  0.00  0.00    +0.000 C 
ATOM     11  N   UNL     1      51.045   7.783  12.007  0.00  0.00    +0.000 N 
ATOM     12  O   UNL     1      49.768   9.608  12.294  0.00  0.00    +0.000 OA
ATOM     13  H   UNL     1      51.227   6.791  11.979  0.00  0.00    +0.000 HD
ATOM     14  H   UNL     1      51.846   8.397  11.919  0.00  0.00    +0.000 HD
ENDBRANCH   6  10
ENDBRANCH   1   3
BRANCH   1  15
ATOM     15  C   UNL     1      45.354   3.840  12.599  0.00  0.00    +0.000 C 
BRANCH  15  17
ATOM     16  C   UNL     1      43.051   3.371  11.553  0.00  0.00    +0.000 C 
ATOM     17  C   UNL     1      44.497   3.710  11.375  0.00  0.00    +0.000 C 
BRANCH  17  18
ATOM     18  C   UNL     1      45.144   3.530  10.067  0.00  0.00    +0.000 A 
ATOM     19  C   UNL     1      45.360   4.634   9.235  0.00  0.00    +0.000 A 
ATOM     20  C   UNL     1      45.907   4.473   7.962  0.00  0.00    +0.000 A 
ATOM     21  C   UNL     1      46.265   3.205   7.513  0.00  0.00    +0.000 A 
ATOM     22  C   UNL     1      46.083   2.093   8.342  0.00  0.00    +0.000 A 
ATOM     23  C   UNL     1      45.519   2.258   9.613  0.00  0.00    +0.000 A 
BRANCH  22  24
ATOM     24  C   UNL     1      46.457   0.786   7.882  0.00  0.00    +0.000 C 
ATOM     25  N   UNL     1      46.759  -0.270   7.512  0.00  0.00    +0.000 NA
ENDBRANCH  22  24
ENDBRANCH  17  18
ENDBRANCH  15  17
ENDBRANCH   1  15
TORSDOF 6
ENDMDL
MODEL 6
REMARK VINA RESULT:    -6.408      2.251      2.872
REMARK INTER + INTRA:          -9.476
REMARK INTER:                  -8.812
REMARK INTRA:                  -0.664
REMARK UNBOUND:                -0.821
REMARK  Name = 
REMARK  7 active torsions:
REMARK  status: ('A' for Active; 'I' for Inactive)
REMARK    1  A    between atoms: C_1  and  C_2
REMARK    2  A    between atoms: C_2  and  C_3
REMARK    3  A    between atoms: C_2  and  C_15
REMARK    4  A    between atoms: C_3  and  N_4
REMARK    5  A    between atoms: N_4  and  C_5
REMARK    6  A    between atoms: C_8  and  C_9
REMARK    7  A    between atoms: C_19  and  C_20
REMARK                            x       y       z     vdW  Elec       q    Type
REMARK                         _______ _______ _______ _____ _____    ______ ____
ROOT
ATOM      1  N   UNL     1      43.757   5.215  10.439  0.00  0.00    +0.000 N 
ATOM      2  H   UNL     1      42.846   5.323   9.997  0.00  0.00    +0.000 HD
ENDROOT
BRANCH   1   3
ATOM      3  C   UNL     1      44.528   4.323   9.674  0.00  0.00    +0.000 A 
ATOM      4  N   UNL     1      45.327   4.830   8.707  0.00  0.00    +0.000 NA
ATOM      5  C   UNL     1      46.062   3.971   7.960  0.00  0.00    +0.000 A 
ATOM      6  C   UNL     1      46.064   2.599   8.131  0.00  0.00    +0.000 A 
ATOM      7  C   UNL     1      45.268   2.078   9.154  0.00  0.00    +0.000 A 
ATOM      8  C   UNL     1      44.493   2.942   9.930  0.00  0.00    +0.000 A 
ATOM      9 CL   UNL     1      43.495   2.268  11.169  0.00  0.00    +0.000 Cl
BRANCH   6  10
ATOM     10  C   UNL     1      46.850   1.677   7.278  0.00  0.00    +0.000 C 
ATOM     11  N   UNL     1      47.417   2.155   6.132  0.00  0.00    +0.000 N 
ATOM     12  O   UNL     1      46.981   0.498   7.583  0.00  0.00    +0.000 OA
ATOM     13  H   UNL     1      47.339   3.091   5.765  0.00  0.00    +0.000 HD
ATOM     14  H   UNL     1      47.916   1.481   5.562  0.00  0.00    +0.000 HD
ENDBRANCH   6  10
ENDBRANCH   1   3
BRANCH   1  15
ATOM     15  C   UNL     1      44.407   6.492  10.697  0.00  0.00    +0.000 C 
BRANCH  15  17
ATOM     16  C   UNL     1      44.824   5.426  13.001  0.00  0.00    +0.000 C 
ATOM     17  C   UNL     1      45.296   6.312  11.891  0.00  0.00    +0.000 C 
BRANCH  17  18
ATOM     18  C   UNL     1      46.382   7.275  12.124  0.00  0.00    +0.000 A 
ATOM     19  C   UNL     1      46.118   8.482  12.780  0.00  0.00    +0.000 A 
ATOM     20  C   UNL     1      47.119   9.439  12.947  0.00  0.00    +0.000 A 
ATOM     21  C   UNL     1      48.406   9.190  12.476  0.00  0.00    +0.000 A 
ATOM     22  C   UNL     1      48.696   7.976  11.844  0.00  0.00    +0.000 A 
ATOM     23  C   UNL     1      47.683   7.025  11.666  0.00  0.00    +0.000 A 
BRANCH  22  24
ATOM     24  C   UNL     1      50.023   7.716  11.365  0.00  0.00    +0.000 C 
ATOM     25  N   UNL     1      51.096   7.506  10.979  0.00  0.00    +0.000 NA
ENDBRANCH  22  24
ENDBRANCH  17  18
ENDBRANCH  15  17
ENDBRANCH   1  15
TORSDOF 6
ENDMDL
MODEL 7
REMARK VINA RESULT:    -6.280      4.520      7.943
REMARK INTER + INTRA:          -9.304
REMARK INTER:                  -8.810
REMARK INTRA:                  -0.494
REMARK UNBOUND:                -0.821
REMARK  Name = 
REMARK  7 active torsions:
REMARK  status: ('A' for Active; 'I' for Inactive)
REMARK    1  A    between atoms: C_1  and  C_2
REMARK    2  A    between atoms: C_2  and  C_3
REMARK    3  A    between atoms: C_2  and  C_15
REMARK    4  A    between atoms: C_3  and  N_4
REMARK    5  A    between atoms: N_4  and  C_5
REMARK    6  A    between atoms: C_8  and  C_9
REMARK    7  A    between atoms: C_19  and  C_20
REMARK                            x       y       z     vdW  Elec       q    Type
REMARK                         _______ _______ _______ _____ _____    ______ ____
ROOT
ATOM      1  N   UNL     1      47.727   5.034  16.587  0.00  0.00    +0.000 N 
ATOM      2  H   UNL     1      47.204   5.179  17.448  0.00  0.00    +0.000 HD
ENDROOT
BRANCH   1   3
ATOM      3  C   UNL     1      48.801   4.167  16.850  0.00  0.00    +0.000 A 
ATOM      4  N   UNL     1      48.708   2.883  16.434  0.00  0.00    +0.000 NA
ATOM      5  C   UNL     1      49.736   2.042  16.698  0.00  0.00    +0.000 A 
ATOM      6  C   UNL     1      50.895   2.413  17.356  0.00  0.00    +0.000 A 
ATOM      7  C   UNL     1      51.008   3.748  17.752  0.00  0.00    +0.000 A 
ATOM      8  C   UNL     1      49.956   4.631  17.502  0.00  0.00    +0.000 A 
ATOM      9 CL   UNL     1      50.110   6.269  18.030  0.00  0.00    +0.000 Cl
BRANCH   6  10
ATOM     10  C   UNL     1      51.992   1.466  17.663  0.00  0.00    +0.000 C 
ATOM     11  N   UNL     1      51.681   0.218  18.122  0.00  0.00    +0.000 N 
ATOM     12  O   UNL     1      53.163   1.796  17.525  0.00  0.00    +0.000 OA
ATOM     13  H   UNL     1      50.759  -0.143  18.312  0.00  0.00    +0.000 HD
ATOM     14  H   UNL     1      52.464  -0.383  18.352  0.00  0.00    +0.000 HD
ENDBRANCH   6  10
ENDBRANCH   1   3
BRANCH   1  15
ATOM     15  C   UNL     1      46.878   4.610  15.483  0.00  0.00    +0.000 C 
BRANCH  15  17
ATOM     16  C   UNL     1      48.265   6.510  14.443  0.00  0.00    +0.000 C 
ATOM     17  C   UNL     1      47.301   5.380  14.267  0.00  0.00    +0.000 C 
BRANCH  17  18
ATOM     18  C   UNL     1      46.496   5.277  13.042  0.00  0.00    +0.000 A 
ATOM     19  C   UNL     1      46.627   6.241  12.036  0.00  0.00    +0.000 A 
ATOM     20  C   UNL     1      45.821   6.201  10.898  0.00  0.00    +0.000 A 
ATOM     21  C   UNL     1      44.885   5.182  10.743  0.00  0.00    +0.000 A 
ATOM     22  C   UNL     1      44.760   4.193  11.725  0.00  0.00    +0.000 A 
ATOM     23  C   UNL     1      45.561   4.246  12.873  0.00  0.00    +0.000 A 
BRANCH  22  24
ATOM     24  C   UNL     1      43.800   3.138  11.563  0.00  0.00    +0.000 C 
ATOM     25  N   UNL     1      43.024   2.288  11.434  0.00  0.00    +0.000 NA
ENDBRANCH  22  24
ENDBRANCH  17  18
ENDBRANCH  15  17
ENDBRANCH   1  15
TORSDOF 6
ENDMDL
MODEL 8
REMARK VINA RESULT:    -6.220      3.701      7.755
REMARK INTER + INTRA:          -9.223
REMARK INTER:                  -8.694
REMARK INTRA:                  -0.529
REMARK UNBOUND:                -0.821
REMARK  Name = 
REMARK  7 active torsions:
REMARK  status: ('A' for Active; 'I' for Inactive)
REMARK    1  A    between atoms: C_1  and  C_2
REMARK    2  A    between atoms: C_2  and  C_3
REMARK    3  A    between atoms: C_2  and  C_15
REMARK    4  A    between atoms: C_3  and  N_4
REMARK    5  A    between atoms: N_4  and  C_5
REMARK    6  A    between atoms: C_8  and  C_9
REMARK    7  A    between atoms: C_19  and  C_20
REMARK                            x       y       z     vdW  Elec       q    Type
REMARK                         _______ _______ _______ _____ _____    ______ ____
ROOT
ATOM      1  N   UNL     1      46.963   5.620  13.270  0.00  0.00    +0.000 N 
ATOM      2  H   UNL     1      47.493   6.427  12.948  0.00  0.00    +0.000 HD
ENDROOT
BRANCH   1   3
ATOM      3  C   UNL     1      47.440   5.238  14.535  0.00  0.00    +0.000 A 
ATOM      4  N   UNL     1      47.126   4.006  14.996  0.00  0.00    +0.000 NA
ATOM      5  C   UNL     1      47.575   3.641  16.222  0.00  0.00    +0.000 A 
ATOM      6  C   UNL     1      48.354   4.444  17.035  0.00  0.00    +0.000 A 
ATOM      7  C   UNL     1      48.710   5.702  16.543  0.00  0.00    +0.000 A 
ATOM      8  C   UNL     1      48.250   6.105  15.288  0.00  0.00    +0.000 A 
ATOM      9 CL   UNL     1      48.680   7.678  14.717  0.00  0.00    +0.000 Cl
BRANCH   6  10
ATOM     10  C   UNL     1      48.803   4.036  18.386  0.00  0.00    +0.000 C 
ATOM     11  N   UNL     1      48.217   2.956  18.982  0.00  0.00    +0.000 N 
ATOM     12  O   UNL     1      49.678   4.661  18.973  0.00  0.00    +0.000 OA
ATOM     13  H   UNL     1      47.465   2.397  18.611  0.00  0.00    +0.000 HD
ATOM     14  H   UNL     1      48.532   2.735  19.920  0.00  0.00    +0.000 HD
ENDBRANCH   6  10
ENDBRANCH   1   3
BRANCH   1  15
ATOM     15  C   UNL     1      45.525   5.842  13.220  0.00  0.00    +0.000 C 
BRANCH  15  17
ATOM     16  C   UNL     1      44.636   7.452  11.422  0.00  0.00    +0.000 C 
ATOM     17  C   UNL     1      45.158   6.099  11.789  0.00  0.00    +0.000 C 
BRANCH  17  18
ATOM     18  C   UNL     1      44.946   4.955  10.890  0.00  0.00    +0.000 A 
ATOM     19  C   UNL     1      44.195   3.856  11.321  0.00  0.00    +0.000 A 
ATOM     20  C   UNL     1      44.042   2.732  10.510  0.00  0.00    +0.000 A 
ATOM     21  C   UNL     1      44.625   2.702   9.245  0.00  0.00    +0.000 A 
ATOM     22  C   UNL     1      45.355   3.803   8.786  0.00  0.00    +0.000 A 
ATOM     23  C   UNL     1      45.518   4.923   9.610  0.00  0.00    +0.000 A 
BRANCH  22  24
ATOM     24  C   UNL     1      45.951   3.775   7.480  0.00  0.00    +0.000 C 
ATOM     25  N   UNL     1      46.430   3.751   6.425  0.00  0.00    +0.000 NA
ENDBRANCH  22  24
ENDBRANCH  17  18
ENDBRANCH  15  17
ENDBRANCH   1  15
TORSDOF 6
ENDMDL
MODEL 9
REMARK VINA RESULT:    -6.033      3.726      7.305
REMARK INTER + INTRA:          -8.970
REMARK INTER:                  -8.474
REMARK INTRA:                  -0.496
REMARK UNBOUND:                -0.821
REMARK  Name = 
REMARK  7 active torsions:
REMARK  status: ('A' for Active; 'I' for Inactive)
REMARK    1  A    between atoms: C_1  and  C_2
REMARK    2  A    between atoms: C_2  and  C_3
REMARK    3  A    between atoms: C_2  and  C_15
REMARK    4  A    between atoms: C_3  and  N_4
REMARK    5  A    between atoms: N_4  and  C_5
REMARK    6  A    between atoms: C_8  and  C_9
REMARK    7  A    between atoms: C_19  and  C_20
REMARK                            x       y       z     vdW  Elec       q    Type
REMARK                         _______ _______ _______ _____ _____    ______ ____
ROOT
ATOM      1  N   UNL     1      48.141   7.167  13.628  0.00  0.00    +0.000 N 
ATOM      2  H   UNL     1      47.689   8.028  13.931  0.00  0.00    +0.000 HD
ENDROOT
BRANCH   1   3
ATOM      3  C   UNL     1      48.028   6.211  14.652  0.00  0.00    +0.000 A 
ATOM      4  N   UNL     1      47.378   5.056  14.384  0.00  0.00    +0.000 NA
ATOM      5  C   UNL     1      47.257   4.138  15.374  0.00  0.00    +0.000 A 
ATOM      6  C   UNL     1      47.773   4.296  16.647  0.00  0.00    +0.000 A 
ATOM      7  C   UNL     1      48.477   5.472  16.913  0.00  0.00    +0.000 A 
ATOM      8  C   UNL     1      48.605   6.438  15.913  0.00  0.00    +0.000 A 
ATOM      9 CL   UNL     1      49.455   7.897  16.278  0.00  0.00    +0.000 Cl
BRANCH   6  10
ATOM     10  C   UNL     1      47.597   3.293  17.723  0.00  0.00    +0.000 C 
ATOM     11  N   UNL     1      48.501   3.250  18.745  0.00  0.00    +0.000 N 
ATOM     12  O   UNL     1      46.664   2.499  17.695  0.00  0.00    +0.000 OA
ATOM     13  H   UNL     1      49.324   3.824  18.846  0.00  0.00    +0.000 HD
ATOM     14  H   UNL     1      48.360   2.526  19.439  0.00  0.00    +0.000 HD
ENDBRANCH   6  10
ENDBRANCH   1   3
BRANCH   1  15
ATOM     15  C   UNL     1      47.658   6.710  12.333  0.00  0.00    +0.000 C 
BRANCH  15  17
ATOM     16  C   UNL     1      45.848   8.498  12.710  0.00  0.00    +0.000 C 
ATOM     17  C   UNL     1      46.227   7.141  12.208  0.00  0.00    +0.000 C 
BRANCH  17  18
ATOM     18  C   UNL     1      45.193   6.123  11.973  0.00  0.00    +0.000 A 
ATOM     19  C   UNL     1      44.125   5.993  12.868  0.00  0.00    +0.000 A 
ATOM     20  C   UNL     1      43.173   4.987  12.702  0.00  0.00    +0.000 A 
ATOM     21  C   UNL     1      43.267   4.109  11.625  0.00  0.00    +0.000 A 
ATOM     22  C   UNL     1      44.311   4.243  10.705  0.00  0.00    +0.000 A 
ATOM     23  C   UNL     1      45.274   5.245  10.884  0.00  0.00    +0.000 A 
BRANCH  22  24
ATOM     24  C   UNL     1      44.406   3.343   9.590  0.00  0.00    +0.000 C 
ATOM     25  N   UNL     1      44.484   2.617   8.691  0.00  0.00    +0.000 NA
ENDBRANCH  22  24
ENDBRANCH  17  18
ENDBRANCH  15  17
ENDBRANCH   1  15
TORSDOF 6
ENDMDL
