MODEL 1
REMARK VINA RESULT:    -8.523      0.000      0.000
REMARK INTER + INTRA:         -12.324
REMARK INTER:                 -11.264
REMARK INTRA:                  -1.060
REMARK UNBOUND:                -1.060
REMARK  Name = 
REMARK  7 active torsions:
REMARK  status: ('A' for Active; 'I' for Inactive)
REMARK    1  A    between atoms: C_1  and  C_2
REMARK    2  A    between atoms: C_2  and  C_3
REMARK    3  A    between atoms: C_7  and  C_8
REMARK    4  A    between atoms: C_8  and  C_9
REMARK    5  A    between atoms: C_9  and  N_10
REMARK    6  A    between atoms: C_14  and  C_15
REMARK    7  A    between atoms: C_23  and  O_24
REMARK                            x       y       z     vdW  Elec       q    Type
REMARK                         _______ _______ _______ _____ _____    ______ ____
ROOT
ATOM      1  C   UNL     1      46.885   6.605  12.928  0.00  0.00    +0.000 A 
ATOM      2  C   UNL     1      47.476   5.487  13.536  0.00  0.00    +0.000 A 
ATOM      3  C   UNL     1      46.763   4.296  13.706  0.00  0.00    +0.000 A 
ATOM      4  C   UNL     1      45.435   4.199  13.287  0.00  0.00    +0.000 A 
ATOM      5  C   UNL     1      44.811   5.287  12.673  0.00  0.00    +0.000 A 
ATOM      6  C   UNL     1      45.567   6.457  12.476  0.00  0.00    +0.000 A 
ENDROOT
BRANCH   1   8
ATOM      7  C   UNL     1      47.949   8.351  14.325  0.00  0.00    +0.000 C 
ATOM      8  C   UNL     1      47.609   7.969  12.862  0.00  0.00    +0.000 C 
ATOM      9  C   UNL     1      48.897   7.851  12.005  0.00  0.00    +0.000 C 
ATOM     10  C   UNL     1      49.631   9.181  11.820  0.00  0.00    +0.000 C 
ATOM     11  C   UNL     1      48.724  10.270  11.254  0.00  0.00    +0.000 C 
ATOM     12  C   UNL     1      47.451  10.434  12.073  0.00  0.00    +0.000 C 
ATOM     13  C   UNL     1      46.728   9.103  12.245  0.00  0.00    +0.000 C 
BRANCH  11  14
ATOM     14  O   UNL     1      49.424  11.508  11.219  0.00  0.00    +0.000 OA
ATOM     15  H   UNL     1      49.969  11.568  12.022  0.00  0.00    +0.000 HD
ENDBRANCH  11  14
ENDBRANCH   1   8
BRANCH   5  16
ATOM     16  C   UNL     1      43.338   5.213  12.294  0.00  0.00    +0.000 C 
BRANCH  16  17
ATOM     17  C   UNL     1      43.082   4.479  10.972  0.00  0.00    +0.000 C 
BRANCH  17  18
ATOM     18  N   UNL     1      43.841   5.018   9.843  0.00  0.00    +0.000 N 
ATOM     19  C   UNL     1      44.622   4.004   9.237  0.00  0.00    +0.000 A 
ATOM     20  C   UNL     1      45.415   4.334   8.144  0.00  0.00    +0.000 A 
ATOM     21  C   UNL     1      46.191   3.341   7.536  0.00  0.00    +0.000 A 
ATOM     22  C   UNL     1      46.166   2.036   8.030  0.00  0.00    +0.000 A 
ATOM     23  C   UNL     1      45.340   1.794   9.111  0.00  0.00    +0.000 A 
ATOM     24  N   UNL     1      44.576   2.739   9.709  0.00  0.00    +0.000 NA
ATOM     25  H   UNL     1      44.467   5.768  10.128  0.00  0.00    +0.000 HD
BRANCH  22  26
ATOM     26  C   UNL     1      47.010   0.994   7.400  0.00  0.00    +0.000 C 
ATOM     27  N   UNL     1      46.753  -0.325   7.661  0.00  0.00    +0.000 N 
ATOM     28  O   UNL     1      47.937   1.297   6.655  0.00  0.00    +0.000 OA
ATOM     29  H   UNL     1      46.025  -0.687   8.257  0.00  0.00    +0.000 HD
ATOM     30  H   UNL     1      47.361  -0.998   7.213  0.00  0.00    +0.000 HD
ENDBRANCH  22  26
ENDBRANCH  17  18
ENDBRANCH  16  17
ENDBRANCH   5  16
TORSDOF 6
ENDMDL
MODEL 2
REMARK VINA RESULT:    -8.070      3.615      7.550
REMARK INTER + INTRA:         -11.725
REMARK INTER:                 -10.983
REMARK INTRA:                  -0.742
REMARK UNBOUND:                -1.060
REMARK  Name = 
REMARK  7 active torsions:
REMARK  status: ('A' for Active; 'I' for Inactive)
REMARK    1  A    between atoms: C_1  and  C_2
REMARK    2  A    between atoms: C_2  and  C_3
REMARK    3  A    between atoms: C_7  and  C_8
REMARK    4  A    between atoms: C_8  and  C_9
REMARK    5  A    between atoms: C_9  and  N_10
REMARK    6  A    between atoms: C_14  and  C_15
REMARK    7  A    between atoms: C_23  and  O_24
REMARK                            x       y       z     vdW  Elec       q    Type
REMARK                         _______ _______ _______ _____ _____    ______ ____
ROOT
ATOM      1  C   UNL     1      44.960   4.348   9.537  0.00  0.00    +0.000 A 
ATOM      2  C   UNL     1      43.803   3.953  10.226  0.00  0.00    +0.000 A 
ATOM      3  C   UNL     1      43.394   4.615  11.388  0.00  0.00    +0.000 A 
ATOM      4  C   UNL     1      44.142   5.677  11.899  0.00  0.00    +0.000 A 
ATOM      5  C   UNL     1      45.297   6.104  11.240  0.00  0.00    +0.000 A 
ATOM      6  C   UNL     1      45.659   5.448  10.051  0.00  0.00    +0.000 A 
ENDROOT
BRANCH   1   8
ATOM      7  C   UNL     1      44.301   3.310   7.387  0.00  0.00    +0.000 C 
ATOM      8  C   UNL     1      45.504   3.539   8.337  0.00  0.00    +0.000 C 
ATOM      9  C   UNL     1      46.632   4.331   7.624  0.00  0.00    +0.000 C 
ATOM     10  C   UNL     1      47.284   3.562   6.473  0.00  0.00    +0.000 C 
ATOM     11  C   UNL     1      47.800   2.194   6.908  0.00  0.00    +0.000 C 
ATOM     12  C   UNL     1      46.721   1.371   7.599  0.00  0.00    +0.000 C 
ATOM     13  C   UNL     1      46.084   2.147   8.747  0.00  0.00    +0.000 C 
BRANCH  11  14
ATOM     14  O   UNL     1      48.282   1.480   5.775  0.00  0.00    +0.000 OA
ATOM     15  H   UNL     1      48.973   0.866   6.078  0.00  0.00    +0.000 HD
ENDBRANCH  11  14
ENDBRANCH   1   8
BRANCH   5  16
ATOM     16  C   UNL     1      46.160   7.204  11.843  0.00  0.00    +0.000 C 
BRANCH  16  17
ATOM     17  C   UNL     1      47.642   6.824  11.963  0.00  0.00    +0.000 C 
BRANCH  17  18
ATOM     18  N   UNL     1      48.266   7.279  13.206  0.00  0.00    +0.000 N 
ATOM     19  C   UNL     1      48.080   6.326  14.237  0.00  0.00    +0.000 A 
ATOM     20  C   UNL     1      48.607   6.590  15.496  0.00  0.00    +0.000 A 
ATOM     21  C   UNL     1      48.429   5.656  16.522  0.00  0.00    +0.000 A 
ATOM     22  C   UNL     1      47.727   4.475  16.278  0.00  0.00    +0.000 A 
ATOM     23  C   UNL     1      47.250   4.288  14.994  0.00  0.00    +0.000 A 
ATOM     24  N   UNL     1      47.417   5.176  13.985  0.00  0.00    +0.000 NA
ATOM     25  H   UNL     1      47.880   8.165  13.525  0.00  0.00    +0.000 HD
BRANCH  22  26
ATOM     26  C   UNL     1      47.519   3.501  17.375  0.00  0.00    +0.000 C 
ATOM     27  N   UNL     1      48.505   3.321  18.307  0.00  0.00    +0.000 N 
ATOM     28  O   UNL     1      46.480   2.852  17.453  0.00  0.00    +0.000 OA
ATOM     29  H   UNL     1      49.394   3.793  18.337  0.00  0.00    +0.000 HD
ATOM     30  H   UNL     1      48.318   2.639  19.031  0.00  0.00    +0.000 HD
ENDBRANCH  22  26
ENDBRANCH  17  18
ENDBRANCH  16  17
ENDBRANCH   5  16
TORSDOF 6
ENDMDL
MODEL 3
REMARK VINA RESULT:    -7.675      3.991      8.037
REMARK INTER + INTRA:         -11.203
REMARK INTER:                 -10.460
REMARK INTRA:                  -0.743
REMARK UNBOUND:                -1.060
REMARK  Name = 
REMARK  7 active torsions:
REMARK  status: ('A' for Active; 'I' for Inactive)
REMARK    1  A    between atoms: C_1  and  C_2
REMARK    2  A    between atoms: C_2  and  C_3
REMARK    3  A    between atoms: C_7  and  C_8
REMARK    4  A    between atoms: C_8  and  C_9
REMARK    5  A    between atoms: C_9  and  N_10
REMARK    6  A    between atoms: C_14  and  C_15
REMARK    7  A    between atoms: C_23  and  O_24
REMARK                            x       y       z     vdW  Elec       q    Type
REMARK                         _______ _______ _______ _____ _____    ______ ____
ROOT
ATOM      1  C   UNL     1      44.859   4.524   9.809  0.00  0.00    +0.000 A 
ATOM      2  C   UNL     1      43.580   4.381  10.367  0.00  0.00    +0.000 A 
ATOM      3  C   UNL     1      43.209   5.090  11.514  0.00  0.00    +0.000 A 
ATOM      4  C   UNL     1      44.115   5.947  12.141  0.00  0.00    +0.000 A 
ATOM      5  C   UNL     1      45.397   6.121  11.614  0.00  0.00    +0.000 A 
ATOM      6  C   UNL     1      45.726   5.429  10.436  0.00  0.00    +0.000 A 
ENDROOT
BRANCH   1   8
ATOM      7  C   UNL     1      44.134   3.547   7.652  0.00  0.00    +0.000 C 
ATOM      8  C   UNL     1      45.332   3.642   8.630  0.00  0.00    +0.000 C 
ATOM      9  C   UNL     1      46.563   4.287   7.940  0.00  0.00    +0.000 C 
ATOM     10  C   UNL     1      47.147   3.433   6.812  0.00  0.00    +0.000 C 
ATOM     11  C   UNL     1      47.486   2.018   7.272  0.00  0.00    +0.000 C 
ATOM     12  C   UNL     1      46.301   1.337   7.943  0.00  0.00    +0.000 C 
ATOM     13  C   UNL     1      45.733   2.197   9.067  0.00  0.00    +0.000 C 
BRANCH  11  14
ATOM     14  O   UNL     1      47.908   1.239   6.158  0.00  0.00    +0.000 OA
ATOM     15  H   UNL     1      48.373   1.827   5.539  0.00  0.00    +0.000 HD
ENDBRANCH  11  14
ENDBRANCH   1   8
BRANCH   5  16
ATOM     16  C   UNL     1      46.414   6.988  12.345  0.00  0.00    +0.000 C 
BRANCH  16  17
ATOM     17  C   UNL     1      47.439   6.181  13.152  0.00  0.00    +0.000 C 
BRANCH  17  18
ATOM     18  N   UNL     1      46.873   5.001  13.808  0.00  0.00    +0.000 N 
ATOM     19  C   UNL     1      47.438   4.825  15.094  0.00  0.00    +0.000 A 
ATOM     20  C   UNL     1      47.019   3.748  15.868  0.00  0.00    +0.000 A 
ATOM     21  C   UNL     1      47.570   3.564  17.140  0.00  0.00    +0.000 A 
ATOM     22  C   UNL     1      48.530   4.454  17.621  0.00  0.00    +0.000 A 
ATOM     23  C   UNL     1      48.878   5.504  16.791  0.00  0.00    +0.000 A 
ATOM     24  N   UNL     1      48.352   5.704  15.559  0.00  0.00    +0.000 NA
ATOM     25  H   UNL     1      47.040   4.151  13.273  0.00  0.00    +0.000 HD
BRANCH  22  26
ATOM     26  C   UNL     1      49.130   4.240  18.958  0.00  0.00    +0.000 C 
ATOM     27  N   UNL     1      48.372   3.682  19.952  0.00  0.00    +0.000 N 
ATOM     28  O   UNL     1      50.293   4.562  19.188  0.00  0.00    +0.000 OA
ATOM     29  H   UNL     1      47.412   3.386  19.877  0.00  0.00    +0.000 HD
ATOM     30  H   UNL     1      48.824   3.564  20.849  0.00  0.00    +0.000 HD
ENDBRANCH  22  26
ENDBRANCH  17  18
ENDBRANCH  16  17
ENDBRANCH   5  16
TORSDOF 6
ENDMDL
MODEL 4
REMARK VINA RESULT:    -7.619      4.338      7.725
REMARK INTER + INTRA:         -11.129
REMARK INTER:                  -9.942
REMARK INTRA:                  -1.187
REMARK UNBOUND:                -1.060
REMARK  Name = 
REMARK  7 active torsions:
REMARK  status: ('A' for Active; 'I' for Inactive)
REMARK    1  A    between atoms: C_1  and  C_2
REMARK    2  A    between atoms: C_2  and  C_3
REMARK    3  A    between atoms: C_7  and  C_8
REMARK    4  A    between atoms: C_8  and  C_9
REMARK    5  A    between atoms: C_9  and  N_10
REMARK    6  A    between atoms: C_14  and  C_15
REMARK    7  A    between atoms: C_23  and  O_24
REMARK                            x       y       z     vdW  Elec       q    Type
REMARK                         _______ _______ _______ _____ _____    ______ ____
ROOT
ATOM      1  C   UNL     1      45.467   7.160  11.589  0.00  0.00    +0.000 A 
ATOM      2  C   UNL     1      44.587   8.231  11.371  0.00  0.00    +0.000 A 
ATOM      3  C   UNL     1      44.947   9.540  11.705  0.00  0.00    +0.000 A 
ATOM      4  C   UNL     1      46.191   9.809  12.280  0.00  0.00    +0.000 A 
ATOM      5  C   UNL     1      47.097   8.772  12.509  0.00  0.00    +0.000 A 
ATOM      6  C   UNL     1      46.725   7.472  12.123  0.00  0.00    +0.000 A 
ENDROOT
BRANCH   1   8
ATOM      7  C   UNL     1      45.519   5.313   9.941  0.00  0.00    +0.000 C 
ATOM      8  C   UNL     1      45.032   5.694  11.361  0.00  0.00    +0.000 C 
ATOM      9  C   UNL     1      45.671   4.773  12.433  0.00  0.00    +0.000 C 
ATOM     10  C   UNL     1      45.222   3.313  12.329  0.00  0.00    +0.000 C 
ATOM     11  C   UNL     1      43.703   3.170  12.355  0.00  0.00    +0.000 C 
ATOM     12  C   UNL     1      43.031   4.046  11.305  0.00  0.00    +0.000 C 
ATOM     13  C   UNL     1      43.483   5.497  11.424  0.00  0.00    +0.000 C 
BRANCH  11  14
ATOM     14  O   UNL     1      43.345   1.811  12.133  0.00  0.00    +0.000 OA
ATOM     15  H   UNL     1      43.227   1.684  11.176  0.00  0.00    +0.000 HD
ENDBRANCH  11  14
ENDBRANCH   1   8
BRANCH   5  16
ATOM     16  C   UNL     1      48.417   9.050  13.216  0.00  0.00    +0.000 C 
BRANCH  16  17
ATOM     17  C   UNL     1      49.272   7.794  13.434  0.00  0.00    +0.000 C 
BRANCH  17  18
ATOM     18  N   UNL     1      49.871   7.715  14.766  0.00  0.00    +0.000 N 
ATOM     19  C   UNL     1      49.298   6.655  15.510  0.00  0.00    +0.000 A 
ATOM     20  C   UNL     1      49.746   6.429  16.807  0.00  0.00    +0.000 A 
ATOM     21  C   UNL     1      49.187   5.385  17.552  0.00  0.00    +0.000 A 
ATOM     22  C   UNL     1      48.189   4.586  16.993  0.00  0.00    +0.000 A 
ATOM     23  C   UNL     1      47.814   4.872  15.694  0.00  0.00    +0.000 A 
ATOM     24  N   UNL     1      48.347   5.874  14.954  0.00  0.00    +0.000 NA
ATOM     25  H   UNL     1      49.741   8.575  15.294  0.00  0.00    +0.000 HD
BRANCH  22  26
ATOM     26  C   UNL     1      47.582   3.498  17.795  0.00  0.00    +0.000 C 
ATOM     27  N   UNL     1      48.198   3.089  18.947  0.00  0.00    +0.000 N 
ATOM     28  O   UNL     1      46.540   2.956  17.437  0.00  0.00    +0.000 OA
ATOM     29  H   UNL     1      49.054   3.457  19.331  0.00  0.00    +0.000 HD
ATOM     30  H   UNL     1      47.748   2.338  19.454  0.00  0.00    +0.000 HD
ENDBRANCH  22  26
ENDBRANCH  17  18
ENDBRANCH  16  17
ENDBRANCH   5  16
TORSDOF 6
ENDMDL
MODEL 5
REMARK VINA RESULT:    -7.104      1.647      2.581
REMARK INTER + INTRA:         -10.447
REMARK INTER:                  -9.589
REMARK INTRA:                  -0.858
REMARK UNBOUND:                -1.060
REMARK  Name = 
REMARK  7 active torsions:
REMARK  status: ('A' for Active; 'I' for Inactive)
REMARK    1  A    between atoms: C_1  and  C_2
REMARK    2  A    between atoms: C_2  and  C_3
REMARK    3  A    between atoms: C_7  and  C_8
REMARK    4  A    between atoms: C_8  and  C_9
REMARK    5  A    between atoms: C_9  and  N_10
REMARK    6  A    between atoms: C_14  and  C_15
REMARK    7  A    between atoms: C_23  and  O_24
REMARK                            x       y       z     vdW  Elec       q    Type
REMARK                         _______ _______ _______ _____ _____    ______ ____
ROOT
ATOM      1  C   UNL     1      46.720   8.611  12.165  0.00  0.00    +0.000 A 
ATOM      2  C   UNL     1      45.821   9.572  11.678  0.00  0.00    +0.000 A 
ATOM      3  C   UNL     1      44.495   9.237  11.383  0.00  0.00    +0.000 A 
ATOM      4  C   UNL     1      44.041   7.928  11.553  0.00  0.00    +0.000 A 
ATOM      5  C   UNL     1      44.902   6.943  12.041  0.00  0.00    +0.000 A 
ATOM      6  C   UNL     1      46.217   7.319  12.370  0.00  0.00    +0.000 A 
ENDROOT
BRANCH   1   8
ATOM      7  C   UNL     1      48.419   9.177  13.875  0.00  0.00    +0.000 C 
ATOM      8  C   UNL     1      48.220   8.929  12.359  0.00  0.00    +0.000 C 
ATOM      9  C   UNL     1      49.087   7.738  11.872  0.00  0.00    +0.000 C 
ATOM     10  C   UNL     1      50.592   8.007  11.951  0.00  0.00    +0.000 C 
ATOM     11  C   UNL     1      50.993   9.281  11.214  0.00  0.00    +0.000 C 
ATOM     12  C   UNL     1      50.178  10.484  11.671  0.00  0.00    +0.000 C 
ATOM     13  C   UNL     1      48.682  10.204  11.582  0.00  0.00    +0.000 C 
BRANCH  11  14
ATOM     14  O   UNL     1      52.376   9.543  11.425  0.00  0.00    +0.000 OA
ATOM     15  H   UNL     1      52.512   9.696  12.375  0.00  0.00    +0.000 HD
ENDBRANCH  11  14
ENDBRANCH   1   8
BRANCH   5  16
ATOM     16  C   UNL     1      44.434   5.498  12.144  0.00  0.00    +0.000 C 
BRANCH  16  17
ATOM     17  C   UNL     1      43.763   4.978  10.866  0.00  0.00    +0.000 C 
BRANCH  17  18
ATOM     18  N   UNL     1      43.980   3.550  10.628  0.00  0.00    +0.000 N 
ATOM     19  C   UNL     1      44.842   3.353   9.522  0.00  0.00    +0.000 A 
ATOM     20  C   UNL     1      45.162   2.054   9.145  0.00  0.00    +0.000 A 
ATOM     21  C   UNL     1      46.012   1.846   8.055  0.00  0.00    +0.000 A 
ATOM     22  C   UNL     1      46.529   2.937   7.355  0.00  0.00    +0.000 A 
ATOM     23  C   UNL     1      46.171   4.194   7.806  0.00  0.00    +0.000 A 
ATOM     24  N   UNL     1      45.354   4.416   8.864  0.00  0.00    +0.000 NA
ATOM     25  H   UNL     1      43.109   3.059  10.438  0.00  0.00    +0.000 HD
BRANCH  22  26
ATOM     26  C   UNL     1      47.409   2.713   6.184  0.00  0.00    +0.000 C 
ATOM     27  N   UNL     1      48.693   2.282   6.383  0.00  0.00    +0.000 N 
ATOM     28  O   UNL     1      47.004   2.914   5.043  0.00  0.00    +0.000 OA
ATOM     29  H   UNL     1      49.130   2.091   7.271  0.00  0.00    +0.000 HD
ATOM     30  H   UNL     1      49.256   2.151   5.553  0.00  0.00    +0.000 HD
ENDBRANCH  22  26
ENDBRANCH  17  18
ENDBRANCH  16  17
ENDBRANCH   5  16
TORSDOF 6
ENDMDL
MODEL 6
REMARK VINA RESULT:    -7.082      5.147      7.973
REMARK INTER + INTRA:         -10.419
REMARK INTER:                  -9.822
REMARK INTRA:                  -0.597
REMARK UNBOUND:                -1.060
REMARK  Name = 
REMARK  7 active torsions:
REMARK  status: ('A' for Active; 'I' for Inactive)
REMARK    1  A    between atoms: C_1  and  C_2
REMARK    2  A    between atoms: C_2  and  C_3
REMARK    3  A    between atoms: C_7  and  C_8
REMARK    4  A    between atoms: C_8  and  C_9
REMARK    5  A    between atoms: C_9  and  N_10
REMARK    6  A    between atoms: C_14  and  C_15
REMARK    7  A    between atoms: C_23  and  O_24
REMARK                            x       y       z     vdW  Elec       q    Type
REMARK                         _______ _______ _______ _____ _____    ______ ____
ROOT
ATOM      1  C   UNL     1      46.405   6.828  12.588  0.00  0.00    +0.000 A 
ATOM      2  C   UNL     1      46.148   8.192  12.378  0.00  0.00    +0.000 A 
ATOM      3  C   UNL     1      46.878   9.176  13.051  0.00  0.00    +0.000 A 
ATOM      4  C   UNL     1      47.873   8.821  13.964  0.00  0.00    +0.000 A 
ATOM      5  C   UNL     1      48.163   7.475  14.198  0.00  0.00    +0.000 A 
ATOM      6  C   UNL     1      47.443   6.508  13.474  0.00  0.00    +0.000 A 
ENDROOT
BRANCH   1   8
ATOM      7  C   UNL     1      45.717   5.827  10.430  0.00  0.00    +0.000 C 
ATOM      8  C   UNL     1      45.514   5.730  11.963  0.00  0.00    +0.000 C 
ATOM      9  C   UNL     1      45.936   4.334  12.491  0.00  0.00    +0.000 C 
ATOM     10  C   UNL     1      45.046   3.196  11.985  0.00  0.00    +0.000 C 
ATOM     11  C   UNL     1      43.569   3.441  12.277  0.00  0.00    +0.000 C 
ATOM     12  C   UNL     1      43.104   4.797  11.760  0.00  0.00    +0.000 C 
ATOM     13  C   UNL     1      43.995   5.920  12.276  0.00  0.00    +0.000 C 
BRANCH  11  14
ATOM     14  O   UNL     1      42.784   2.415  11.678  0.00  0.00    +0.000 OA
ATOM     15  H   UNL     1      43.027   1.570  12.094  0.00  0.00    +0.000 HD
ENDBRANCH  11  14
ENDBRANCH   1   8
BRANCH   5  16
ATOM     16  C   UNL     1      49.186   7.084  15.256  0.00  0.00    +0.000 C 
BRANCH  16  17
ATOM     17  C   UNL     1      48.562   6.750  16.618  0.00  0.00    +0.000 C 
BRANCH  17  18
ATOM     18  N   UNL     1      47.993   5.403  16.689  0.00  0.00    +0.000 N 
ATOM     19  C   UNL     1      49.004   4.448  16.956  0.00  0.00    +0.000 A 
ATOM     20  C   UNL     1      48.648   3.108  17.057  0.00  0.00    +0.000 A 
ATOM     21  C   UNL     1      49.637   2.155  17.320  0.00  0.00    +0.000 A 
ATOM     22  C   UNL     1      50.966   2.552  17.475  0.00  0.00    +0.000 A 
ATOM     23  C   UNL     1      51.229   3.905  17.372  0.00  0.00    +0.000 A 
ATOM     24  N   UNL     1      50.284   4.844  17.124  0.00  0.00    +0.000 NA
ATOM     25  H   UNL     1      47.532   5.138  15.822  0.00  0.00    +0.000 HD
BRANCH  22  26
ATOM     26  C   UNL     1      52.015   1.536  17.728  0.00  0.00    +0.000 C 
ATOM     27  N   UNL     1      51.647   0.265  18.079  0.00  0.00    +0.000 N 
ATOM     28  O   UNL     1      53.205   1.820  17.633  0.00  0.00    +0.000 OA
ATOM     29  H   UNL     1      50.705  -0.076  18.190  0.00  0.00    +0.000 HD
ATOM     30  H   UNL     1      52.399  -0.389  18.248  0.00  0.00    +0.000 HD
ENDBRANCH  22  26
ENDBRANCH  17  18
ENDBRANCH  16  17
ENDBRANCH   5  16
TORSDOF 6
ENDMDL
MODEL 7
REMARK VINA RESULT:    -6.921      2.820      7.313
REMARK INTER + INTRA:         -10.207
REMARK INTER:                  -9.360
REMARK INTRA:                  -0.847
REMARK UNBOUND:                -1.060
REMARK  Name = 
REMARK  7 active torsions:
REMARK  status: ('A' for Active; 'I' for Inactive)
REMARK    1  A    between atoms: C_1  and  C_2
REMARK    2  A    between atoms: C_2  and  C_3
REMARK    3  A    between atoms: C_7  and  C_8
REMARK    4  A    between atoms: C_8  and  C_9
REMARK    5  A    between atoms: C_9  and  N_10
REMARK    6  A    between atoms: C_14  and  C_15
REMARK    7  A    between atoms: C_23  and  O_24
REMARK                            x       y       z     vdW  Elec       q    Type
REMARK                         _______ _______ _______ _____ _____    ______ ____
ROOT
ATOM      1  C   UNL     1      44.716   3.714   9.745  0.00  0.00    +0.000 A 
ATOM      2  C   UNL     1      44.124   2.869  10.696  0.00  0.00    +0.000 A 
ATOM      3  C   UNL     1      43.677   3.366  11.925  0.00  0.00    +0.000 A 
ATOM      4  C   UNL     1      43.827   4.718  12.239  0.00  0.00    +0.000 A 
ATOM      5  C   UNL     1      44.407   5.593  11.319  0.00  0.00    +0.000 A 
ATOM      6  C   UNL     1      44.807   5.073  10.075  0.00  0.00    +0.000 A 
ENDROOT
BRANCH   1   8
ATOM      7  C   UNL     1      44.181   3.000   7.435  0.00  0.00    +0.000 C 
ATOM      8  C   UNL     1      45.344   3.158   8.447  0.00  0.00    +0.000 C 
ATOM      9  C   UNL     1      46.418   4.140   7.908  0.00  0.00    +0.000 C 
ATOM     10  C   UNL     1      47.150   3.623   6.667  0.00  0.00    +0.000 C 
ATOM     11  C   UNL     1      47.765   2.245   6.889  0.00  0.00    +0.000 C 
ATOM     12  C   UNL     1      46.742   1.240   7.403  0.00  0.00    +0.000 C 
ATOM     13  C   UNL     1      46.025   1.766   8.641  0.00  0.00    +0.000 C 
BRANCH  11  14
ATOM     14  O   UNL     1      48.323   1.766   5.670  0.00  0.00    +0.000 OA
ATOM     15  H   UNL     1      48.032   2.357   4.954  0.00  0.00    +0.000 HD
ENDBRANCH  11  14
ENDBRANCH   1   8
BRANCH   5  16
ATOM     16  C   UNL     1      44.650   7.049  11.694  0.00  0.00    +0.000 C 
BRANCH  16  17
ATOM     17  C   UNL     1      45.882   7.254  12.586  0.00  0.00    +0.000 C 
BRANCH  17  18
ATOM     18  N   UNL     1      46.435   8.607  12.522  0.00  0.00    +0.000 N 
ATOM     19  C   UNL     1      47.798   8.572  12.140  0.00  0.00    +0.000 A 
ATOM     20  C   UNL     1      48.492   9.771  12.028  0.00  0.00    +0.000 A 
ATOM     21  C   UNL     1      49.840   9.750  11.652  0.00  0.00    +0.000 A 
ATOM     22  C   UNL     1      50.473   8.534  11.396  0.00  0.00    +0.000 A 
ATOM     23  C   UNL     1      49.705   7.391  11.518  0.00  0.00    +0.000 A 
ATOM     24  N   UNL     1      48.398   7.391  11.875  0.00  0.00    +0.000 NA
ATOM     25  H   UNL     1      46.372   9.087  13.417  0.00  0.00    +0.000 HD
BRANCH  22  26
ATOM     26  C   UNL     1      51.908   8.514  11.023  0.00  0.00    +0.000 C 
ATOM     27  N   UNL     1      52.783   7.766  11.764  0.00  0.00    +0.000 N 
ATOM     28  O   UNL     1      52.320   9.163  10.066  0.00  0.00    +0.000 OA
ATOM     29  H   UNL     1      52.557   7.202  12.568  0.00  0.00    +0.000 HD
ATOM     30  H   UNL     1      53.751   7.792  11.474  0.00  0.00    +0.000 HD
ENDBRANCH  22  26
ENDBRANCH  17  18
ENDBRANCH  16  17
ENDBRANCH   5  16
TORSDOF 6
ENDMDL
MODEL 8
REMARK VINA RESULT:    -6.628      4.456      8.433
REMARK INTER + INTRA:          -9.818
REMARK INTER:                  -8.676
REMARK INTRA:                  -1.142
REMARK UNBOUND:                -1.060
REMARK  Name = 
REMARK  7 active torsions:
REMARK  status: ('A' for Active; 'I' for Inactive)
REMARK    1  A    between atoms: C_1  and  C_2
REMARK    2  A    between atoms: C_2  and  C_3
REMARK    3  A    between atoms: C_7  and  C_8
REMARK    4  A    between atoms: C_8  and  C_9
REMARK    5  A    between atoms: C_9  and  N_10
REMARK    6  A    between atoms: C_14  and  C_15
REMARK    7  A    between atoms: C_23  and  O_24
REMARK                            x       y       z     vdW  Elec       q    Type
REMARK                         _______ _______ _______ _____ _____    ______ ____
ROOT
ATOM      1  C   UNL     1      46.194   6.836  12.267  0.00  0.00    +0.000 A 
ATOM      2  C   UNL     1      45.412   7.986  12.454  0.00  0.00    +0.000 A 
ATOM      3  C   UNL     1      45.995   9.255  12.512  0.00  0.00    +0.000 A 
ATOM      4  C   UNL     1      47.379   9.404  12.400  0.00  0.00    +0.000 A 
ATOM      5  C   UNL     1      48.193   8.286  12.208  0.00  0.00    +0.000 A 
ATOM      6  C   UNL     1      47.574   7.027  12.110  0.00  0.00    +0.000 A 
ENDROOT
BRANCH   1   8
ATOM      7  C   UNL     1      46.530   4.586  13.246  0.00  0.00    +0.000 C 
ATOM      8  C   UNL     1      45.583   5.418  12.346  0.00  0.00    +0.000 C 
ATOM      9  C   UNL     1      44.156   5.483  12.952  0.00  0.00    +0.000 C 
ATOM     10  C   UNL     1      43.445   4.128  12.986  0.00  0.00    +0.000 C 
ATOM     11  C   UNL     1      43.401   3.461  11.615  0.00  0.00    +0.000 C 
ATOM     12  C   UNL     1      44.785   3.359  10.986  0.00  0.00    +0.000 C 
ATOM     13  C   UNL     1      45.478   4.717  10.953  0.00  0.00    +0.000 C 
BRANCH  11  14
ATOM     14  O   UNL     1      42.841   2.158  11.733  0.00  0.00    +0.000 OA
ATOM     15  H   UNL     1      43.572   1.526  11.844  0.00  0.00    +0.000 HD
ENDBRANCH  11  14
ENDBRANCH   1   8
BRANCH   5  16
ATOM     16  C   UNL     1      49.708   8.437  12.173  0.00  0.00    +0.000 C 
BRANCH  16  17
ATOM     17  C   UNL     1      50.319   8.794  13.534  0.00  0.00    +0.000 C 
BRANCH  17  18
ATOM     18  N   UNL     1      50.838   7.639  14.267  0.00  0.00    +0.000 N 
ATOM     19  C   UNL     1      50.054   7.386  15.420  0.00  0.00    +0.000 A 
ATOM     20  C   UNL     1      50.400   6.321  16.243  0.00  0.00    +0.000 A 
ATOM     21  C   UNL     1      49.634   6.061  17.385  0.00  0.00    +0.000 A 
ATOM     22  C   UNL     1      48.538   6.868  17.688  0.00  0.00    +0.000 A 
ATOM     23  C   UNL     1      48.257   7.897  16.808  0.00  0.00    +0.000 A 
ATOM     24  N   UNL     1      48.982   8.161  15.694  0.00  0.00    +0.000 NA
ATOM     25  H   UNL     1      51.800   7.777  14.566  0.00  0.00    +0.000 HD
BRANCH  22  26
ATOM     26  C   UNL     1      47.745   6.606  18.912  0.00  0.00    +0.000 C 
ATOM     27  N   UNL     1      46.714   5.707  18.864  0.00  0.00    +0.000 N 
ATOM     28  O   UNL     1      47.997   7.187  19.964  0.00  0.00    +0.000 OA
ATOM     29  H   UNL     1      46.417   5.180  18.058  0.00  0.00    +0.000 HD
ATOM     30  H   UNL     1      46.198   5.569  19.723  0.00  0.00    +0.000 HD
ENDBRANCH  22  26
ENDBRANCH  17  18
ENDBRANCH  16  17
ENDBRANCH   5  16
TORSDOF 6
ENDMDL
MODEL 9
REMARK VINA RESULT:    -6.518      3.517      8.158
REMARK INTER + INTRA:          -9.673
REMARK INTER:                  -8.941
REMARK INTRA:                  -0.732
REMARK UNBOUND:                -1.060
REMARK  Name = 
REMARK  7 active torsions:
REMARK  status: ('A' for Active; 'I' for Inactive)
REMARK    1  A    between atoms: C_1  and  C_2
REMARK    2  A    between atoms: C_2  and  C_3
REMARK    3  A    between atoms: C_7  and  C_8
REMARK    4  A    between atoms: C_8  and  C_9
REMARK    5  A    between atoms: C_9  and  N_10
REMARK    6  A    between atoms: C_14  and  C_15
REMARK    7  A    between atoms: C_23  and  O_24
REMARK                            x       y       z     vdW  Elec       q    Type
REMARK                         _______ _______ _______ _____ _____    ______ ____
ROOT
ATOM      1  C   UNL     1      44.948   4.288   9.516  0.00  0.00    +0.000 A 
ATOM      2  C   UNL     1      43.891   3.787  10.290  0.00  0.00    +0.000 A 
ATOM      3  C   UNL     1      43.471   4.445  11.451  0.00  0.00    +0.000 A 
ATOM      4  C   UNL     1      44.109   5.612  11.874  0.00  0.00    +0.000 A 
ATOM      5  C   UNL     1      45.163   6.146  11.129  0.00  0.00    +0.000 A 
ATOM      6  C   UNL     1      45.534   5.487   9.944  0.00  0.00    +0.000 A 
ENDROOT
BRANCH   1   8
ATOM      7  C   UNL     1      44.330   3.264   7.347  0.00  0.00    +0.000 C 
ATOM      8  C   UNL     1      45.517   3.498   8.315  0.00  0.00    +0.000 C 
ATOM      9  C   UNL     1      46.644   4.312   7.624  0.00  0.00    +0.000 C 
ATOM     10  C   UNL     1      47.320   3.564   6.474  0.00  0.00    +0.000 C 
ATOM     11  C   UNL     1      47.849   2.198   6.901  0.00  0.00    +0.000 C 
ATOM     12  C   UNL     1      46.771   1.354   7.571  0.00  0.00    +0.000 C 
ATOM     13  C   UNL     1      46.111   2.110   8.718  0.00  0.00    +0.000 C 
BRANCH  11  14
ATOM     14  O   UNL     1      48.354   1.502   5.767  0.00  0.00    +0.000 OA
ATOM     15  H   UNL     1      49.322   1.450   5.853  0.00  0.00    +0.000 HD
ENDBRANCH  11  14
ENDBRANCH   1   8
BRANCH   5  16
ATOM     16  C   UNL     1      45.917   7.368  11.635  0.00  0.00    +0.000 C 
BRANCH  16  17
ATOM     17  C   UNL     1      45.938   7.486  13.164  0.00  0.00    +0.000 C 
BRANCH  17  18
ATOM     18  N   UNL     1      46.501   8.746  13.650  0.00  0.00    +0.000 N 
ATOM     19  C   UNL     1      47.768   8.530  14.245  0.00  0.00    +0.000 A 
ATOM     20  C   UNL     1      48.457   9.620  14.766  0.00  0.00    +0.000 A 
ATOM     21  C   UNL     1      49.709   9.419  15.357  0.00  0.00    +0.000 A 
ATOM     22  C   UNL     1      50.253   8.136  15.421  0.00  0.00    +0.000 A 
ATOM     23  C   UNL     1      49.506   7.113  14.867  0.00  0.00    +0.000 A 
ATOM     24  N   UNL     1      48.296   7.287  14.284  0.00  0.00    +0.000 NA
ATOM     25  H   UNL     1      45.902   9.191  14.340  0.00  0.00    +0.000 HD
BRANCH  22  26
ATOM     26  C   UNL     1      51.567   7.924  16.072  0.00  0.00    +0.000 C 
ATOM     27  N   UNL     1      51.947   8.746  17.099  0.00  0.00    +0.000 N 
ATOM     28  O   UNL     1      52.319   7.029  15.698  0.00  0.00    +0.000 OA
ATOM     29  H   UNL     1      51.415   9.511  17.482  0.00  0.00    +0.000 HD
ATOM     30  H   UNL     1      52.856   8.566  17.505  0.00  0.00    +0.000 HD
ENDBRANCH  22  26
ENDBRANCH  17  18
ENDBRANCH  16  17
ENDBRANCH   5  16
TORSDOF 6
ENDMDL
