MODEL 1
REMARK VINA RESULT:    -7.594      0.000      0.000
REMARK INTER + INTRA:         -10.176
REMARK INTER:                  -9.813
REMARK INTRA:                  -0.363
REMARK UNBOUND:                -0.363
REMARK  Name = 
REMARK  5 active torsions:
REMARK  status: ('A' for Active; 'I' for Inactive)
REMARK    1  A    between atoms: C_2  and  C_3
REMARK    2  A    between atoms: N_7  and  C_8
REMARK    3  A    between atoms: C_8  and  C_9
REMARK    4  A    between atoms: C_12  and  O_13
REMARK    5  A    between atoms: O_13  and  C_14
REMARK                            x       y       z     vdW  Elec       q    Type
REMARK                         _______ _______ _______ _____ _____    ______ ____
ROOT
ATOM      1  C   UNL     1      44.068   4.813  11.660  0.00  0.00    +0.000 C 
ATOM      2  C   UNL     1      43.278   6.069  11.295  0.00  0.00    +0.000 C 
ATOM      3  C   UNL     1      42.546   4.801  11.582  0.00  0.00    +0.000 C 
ENDROOT
BRANCH   1   8
ATOM      4  C   UNL     1      48.057   6.224  14.563  0.00  0.00    +0.000 A 
ATOM      5  C   UNL     1      47.333   6.847  13.587  0.00  0.00    +0.000 A 
ATOM      6  N   UNL     1      46.216   6.324  13.044  0.00  0.00    +0.000 NA
ATOM      7  C   UNL     1      45.789   5.129  13.497  0.00  0.00    +0.000 A 
ATOM      8  N   UNL     1      44.659   4.530  12.967  0.00  0.00    +0.000 N 
ATOM      9  N   UNL     1      46.421   4.463  14.484  0.00  0.00    +0.000 NA
ATOM     10  C   UNL     1      47.549   5.019  14.983  0.00  0.00    +0.000 A 
ATOM     11  H   UNL     1      44.384   3.720  13.508  0.00  0.00    +0.000 HD
BRANCH   4  13
ATOM     12  N   UNL     1      50.216   7.242  15.531  0.00  0.00    +0.000 NA
ATOM     13  C   UNL     1      49.244   6.786  15.090  0.00  0.00    +0.000 C 
ENDBRANCH   4  13
ENDBRANCH   1   8
BRANCH   1  14
ATOM     14  C   UNL     1      44.866   4.271  10.473  0.00  0.00    +0.000 A 
ATOM     15  C   UNL     1      44.751   2.935  10.058  0.00  0.00    +0.000 A 
ATOM     16  C   UNL     1      45.168   2.535   8.786  0.00  0.00    +0.000 A 
ATOM     17  C   UNL     1      45.703   3.469   7.905  0.00  0.00    +0.000 A 
ATOM     18  C   UNL     1      46.004   4.748   8.370  0.00  0.00    +0.000 A 
ATOM     19  C   UNL     1      45.596   5.143   9.646  0.00  0.00    +0.000 A 
BRANCH  17  20
ATOM     20  O   UNL     1      45.991   3.232   6.596  0.00  0.00    +0.000 OA
BRANCH  20  21
ATOM     21  C   UNL     1      47.145   2.452   6.298  0.00  0.00    +0.000 C 
ATOM     22  F   UNL     1      48.203   2.674   7.108  0.00  0.00    +0.000 F 
ATOM     23  F   UNL     1      46.826   1.140   6.395  0.00  0.00    +0.000 F 
ATOM     24  F   UNL     1      47.524   2.697   5.024  0.00  0.00    +0.000 F 
ENDBRANCH  20  21
ENDBRANCH  17  20
ENDBRANCH   1  14
TORSDOF 5
ENDMDL
MODEL 2
REMARK VINA RESULT:    -7.439      4.933      7.136
REMARK INTER + INTRA:          -9.977
REMARK INTER:                  -9.713
REMARK INTRA:                  -0.263
REMARK UNBOUND:                -0.363
REMARK  Name = 
REMARK  5 active torsions:
REMARK  status: ('A' for Active; 'I' for Inactive)
REMARK    1  A    between atoms: C_2  and  C_3
REMARK    2  A    between atoms: N_7  and  C_8
REMARK    3  A    between atoms: C_8  and  C_9
REMARK    4  A    between atoms: C_12  and  O_13
REMARK    5  A    between atoms: O_13  and  C_14
REMARK                            x       y       z     vdW  Elec       q    Type
REMARK                         _______ _______ _______ _____ _____    ______ ____
ROOT
ATOM      1  C   UNL     1      43.921   5.537  11.454  0.00  0.00    +0.000 C 
ATOM      2  C   UNL     1      42.765   4.739  12.055  0.00  0.00    +0.000 C 
ATOM      3  C   UNL     1      42.562   6.177  11.713  0.00  0.00    +0.000 C 
ENDROOT
BRANCH   1   8
ATOM      4  C   UNL     1      46.034   2.246   8.132  0.00  0.00    +0.000 A 
ATOM      5  C   UNL     1      45.250   2.096   9.240  0.00  0.00    +0.000 A 
ATOM      6  N   UNL     1      44.685   3.129   9.894  0.00  0.00    +0.000 NA
ATOM      7  C   UNL     1      44.899   4.373   9.423  0.00  0.00    +0.000 A 
ATOM      8  N   UNL     1      44.362   5.479  10.061  0.00  0.00    +0.000 N 
ATOM      9  N   UNL     1      45.627   4.610   8.314  0.00  0.00    +0.000 NA
ATOM     10  C   UNL     1      46.191   3.541   7.703  0.00  0.00    +0.000 A 
ATOM     11  H   UNL     1      44.482   6.317   9.509  0.00  0.00    +0.000 HD
BRANCH   4  13
ATOM     12  N   UNL     1      47.143   0.242   6.954  0.00  0.00    +0.000 NA
ATOM     13  C   UNL     1      46.639   1.142   7.486  0.00  0.00    +0.000 C 
ENDBRANCH   4  13
ENDBRANCH   1   8
BRANCH   1  14
ATOM     14  C   UNL     1      45.045   5.769  12.465  0.00  0.00    +0.000 A 
ATOM     15  C   UNL     1      45.659   4.701  13.139  0.00  0.00    +0.000 A 
ATOM     16  C   UNL     1      46.901   4.858  13.759  0.00  0.00    +0.000 A 
ATOM     17  C   UNL     1      47.552   6.086  13.711  0.00  0.00    +0.000 A 
ATOM     18  C   UNL     1      46.870   7.198  13.220  0.00  0.00    +0.000 A 
ATOM     19  C   UNL     1      45.624   7.042  12.610  0.00  0.00    +0.000 A 
BRANCH  17  20
ATOM     20  O   UNL     1      48.826   6.311  14.134  0.00  0.00    +0.000 OA
BRANCH  20  21
ATOM     21  C   UNL     1      49.018   6.707  15.489  0.00  0.00    +0.000 C 
ATOM     22  F   UNL     1      48.668   7.984  15.760  0.00  0.00    +0.000 F 
ATOM     23  F   UNL     1      48.281   5.903  16.290  0.00  0.00    +0.000 F 
ATOM     24  F   UNL     1      50.320   6.542  15.814  0.00  0.00    +0.000 F 
ENDBRANCH  20  21
ENDBRANCH  17  20
ENDBRANCH   1  14
TORSDOF 5
ENDMDL
MODEL 3
REMARK VINA RESULT:    -7.387      1.198      1.869
REMARK INTER + INTRA:          -9.909
REMARK INTER:                  -9.628
REMARK INTRA:                  -0.281
REMARK UNBOUND:                -0.363
REMARK  Name = 
REMARK  5 active torsions:
REMARK  status: ('A' for Active; 'I' for Inactive)
REMARK    1  A    between atoms: C_2  and  C_3
REMARK    2  A    between atoms: N_7  and  C_8
REMARK    3  A    between atoms: C_8  and  C_9
REMARK    4  A    between atoms: C_12  and  O_13
REMARK    5  A    between atoms: O_13  and  C_14
REMARK                            x       y       z     vdW  Elec       q    Type
REMARK                         _______ _______ _______ _____ _____    ______ ____
ROOT
ATOM      1  C   UNL     1      43.695   5.438  11.450  0.00  0.00    +0.000 C 
ATOM      2  C   UNL     1      42.197   5.561  11.724  0.00  0.00    +0.000 C 
ATOM      3  C   UNL     1      43.089   4.986  12.773  0.00  0.00    +0.000 C 
ENDROOT
BRANCH   1   8
ATOM      4  C   UNL     1      48.016   6.728  13.899  0.00  0.00    +0.000 A 
ATOM      5  C   UNL     1      47.444   5.536  13.560  0.00  0.00    +0.000 A 
ATOM      6  N   UNL     1      46.350   5.433  12.780  0.00  0.00    +0.000 NA
ATOM      7  C   UNL     1      45.800   6.568  12.305  0.00  0.00    +0.000 A 
ATOM      8  N   UNL     1      44.664   6.532  11.514  0.00  0.00    +0.000 N 
ATOM      9  N   UNL     1      46.322   7.784  12.559  0.00  0.00    +0.000 NA
ATOM     10  C   UNL     1      47.409   7.837  13.363  0.00  0.00    +0.000 A 
ATOM     11  H   UNL     1      44.464   7.440  11.116  0.00  0.00    +0.000 HD
BRANCH   4  13
ATOM     12  N   UNL     1      50.072   6.855  15.447  0.00  0.00    +0.000 NA
ATOM     13  C   UNL     1      49.147   6.802  14.746  0.00  0.00    +0.000 C 
ENDBRANCH   4  13
ENDBRANCH   1   8
BRANCH   1  14
ATOM     14  C   UNL     1      43.999   4.384  10.384  0.00  0.00    +0.000 A 
ATOM     15  C   UNL     1      44.339   4.743   9.071  0.00  0.00    +0.000 A 
ATOM     16  C   UNL     1      44.970   3.837   8.214  0.00  0.00    +0.000 A 
ATOM     17  C   UNL     1      45.276   2.556   8.661  0.00  0.00    +0.000 A 
ATOM     18  C   UNL     1      44.771   2.125   9.887  0.00  0.00    +0.000 A 
ATOM     19  C   UNL     1      44.131   3.030  10.738  0.00  0.00    +0.000 A 
BRANCH  17  20
ATOM     20  O   UNL     1      46.027   1.650   7.978  0.00  0.00    +0.000 OA
BRANCH  20  21
ATOM     21  C   UNL     1      47.063   2.143   7.134  0.00  0.00    +0.000 C 
ATOM     22  F   UNL     1      47.505   3.382   7.445  0.00  0.00    +0.000 F 
ATOM     23  F   UNL     1      48.122   1.304   7.202  0.00  0.00    +0.000 F 
ATOM     24  F   UNL     1      46.621   2.155   5.857  0.00  0.00    +0.000 F 
ENDBRANCH  20  21
ENDBRANCH  17  20
ENDBRANCH   1  14
TORSDOF 5
ENDMDL
MODEL 4
REMARK VINA RESULT:    -7.282      1.342      1.880
REMARK INTER + INTRA:          -9.774
REMARK INTER:                  -9.510
REMARK INTRA:                  -0.263
REMARK UNBOUND:                -0.363
REMARK  Name = 
REMARK  5 active torsions:
REMARK  status: ('A' for Active; 'I' for Inactive)
REMARK    1  A    between atoms: C_2  and  C_3
REMARK    2  A    between atoms: N_7  and  C_8
REMARK    3  A    between atoms: C_8  and  C_9
REMARK    4  A    between atoms: C_12  and  O_13
REMARK    5  A    between atoms: O_13  and  C_14
REMARK                            x       y       z     vdW  Elec       q    Type
REMARK                         _______ _______ _______ _____ _____    ______ ____
ROOT
ATOM      1  C   UNL     1      44.510   4.364  12.177  0.00  0.00    +0.000 C 
ATOM      2  C   UNL     1      43.184   5.011  12.574  0.00  0.00    +0.000 C 
ATOM      3  C   UNL     1      43.417   3.570  12.883  0.00  0.00    +0.000 C 
ENDROOT
BRANCH   1   8
ATOM      4  C   UNL     1      47.925   7.988  13.415  0.00  0.00    +0.000 A 
ATOM      5  C   UNL     1      46.585   8.003  13.159  0.00  0.00    +0.000 A 
ATOM      6  N   UNL     1      45.849   6.887  12.985  0.00  0.00    +0.000 NA
ATOM      7  C   UNL     1      46.472   5.696  13.079  0.00  0.00    +0.000 A 
ATOM      8  N   UNL     1      45.776   4.513  12.892  0.00  0.00    +0.000 N 
ATOM      9  N   UNL     1      47.784   5.587  13.367  0.00  0.00    +0.000 NA
ATOM     10  C   UNL     1      48.483   6.737  13.513  0.00  0.00    +0.000 A 
ATOM     11  H   UNL     1      46.340   3.711  13.141  0.00  0.00    +0.000 HD
BRANCH   4  13
ATOM     12  N   UNL     1      49.280  10.163  13.681  0.00  0.00    +0.000 NA
ATOM     13  C   UNL     1      48.674   9.180  13.562  0.00  0.00    +0.000 C 
ENDBRANCH   4  13
ENDBRANCH   1   8
BRANCH   1  14
ATOM     14  C   UNL     1      44.650   4.228  10.660  0.00  0.00    +0.000 A 
ATOM     15  C   UNL     1      45.422   5.129   9.909  0.00  0.00    +0.000 A 
ATOM     16  C   UNL     1      45.856   4.809   8.621  0.00  0.00    +0.000 A 
ATOM     17  C   UNL     1      45.529   3.577   8.063  0.00  0.00    +0.000 A 
ATOM     18  C   UNL     1      44.606   2.760   8.714  0.00  0.00    +0.000 A 
ATOM     19  C   UNL     1      44.164   3.087   9.998  0.00  0.00    +0.000 A 
BRANCH  17  20
ATOM     20  O   UNL     1      46.027   3.093   6.892  0.00  0.00    +0.000 OA
BRANCH  20  21
ATOM     21  C   UNL     1      47.102   2.160   6.959  0.00  0.00    +0.000 C 
ATOM     22  F   UNL     1      47.055   1.319   8.015  0.00  0.00    +0.000 F 
ATOM     23  F   UNL     1      47.098   1.405   5.836  0.00  0.00    +0.000 F 
ATOM     24  F   UNL     1      48.270   2.838   7.004  0.00  0.00    +0.000 F 
ENDBRANCH  20  21
ENDBRANCH  17  20
ENDBRANCH   1  14
TORSDOF 5
ENDMDL
MODEL 5
REMARK VINA RESULT:    -7.070      3.992      6.533
REMARK INTER + INTRA:          -9.499
REMARK INTER:                  -8.762
REMARK INTRA:                  -0.737
REMARK UNBOUND:                -0.363
REMARK  Name = 
REMARK  5 active torsions:
REMARK  status: ('A' for Active; 'I' for Inactive)
REMARK    1  A    between atoms: C_2  and  C_3
REMARK    2  A    between atoms: N_7  and  C_8
REMARK    3  A    between atoms: C_8  and  C_9
REMARK    4  A    between atoms: C_12  and  O_13
REMARK    5  A    between atoms: O_13  and  C_14
REMARK                            x       y       z     vdW  Elec       q    Type
REMARK                         _______ _______ _______ _____ _____    ______ ____
ROOT
ATOM      1  C   UNL     1      44.003   4.929  12.081  0.00  0.00    +0.000 C 
ATOM      2  C   UNL     1      42.657   5.105  12.782  0.00  0.00    +0.000 C 
ATOM      3  C   UNL     1      42.828   5.610  11.389  0.00  0.00    +0.000 C 
ENDROOT
BRANCH   1   8
ATOM      4  C   UNL     1      45.996   3.230   7.668  0.00  0.00    +0.000 A 
ATOM      5  C   UNL     1      45.998   4.440   8.300  0.00  0.00    +0.000 A 
ATOM      6  N   UNL     1      45.518   4.628   9.545  0.00  0.00    +0.000 NA
ATOM      7  C   UNL     1      45.018   3.562  10.200  0.00  0.00    +0.000 A 
ATOM      8  N   UNL     1      44.492   3.692  11.475  0.00  0.00    +0.000 N 
ATOM      9  N   UNL     1      45.011   2.324   9.667  0.00  0.00    +0.000 NA
ATOM     10  C   UNL     1      45.486   2.190   8.407  0.00  0.00    +0.000 A 
ATOM     11  H   UNL     1      44.299   2.789  11.887  0.00  0.00    +0.000 HD
BRANCH   4  13
ATOM     12  N   UNL     1      46.884   2.951   5.266  0.00  0.00    +0.000 NA
ATOM     13  C   UNL     1      46.480   3.073   6.347  0.00  0.00    +0.000 C 
ENDBRANCH   4  13
ENDBRANCH   1   8
BRANCH   1  14
ATOM     14  C   UNL     1      45.093   5.804  12.704  0.00  0.00    +0.000 A 
ATOM     15  C   UNL     1      46.216   5.242  13.332  0.00  0.00    +0.000 A 
ATOM     16  C   UNL     1      47.368   5.998  13.562  0.00  0.00    +0.000 A 
ATOM     17  C   UNL     1      47.418   7.328  13.161  0.00  0.00    +0.000 A 
ATOM     18  C   UNL     1      46.251   7.949  12.719  0.00  0.00    +0.000 A 
ATOM     19  C   UNL     1      45.096   7.194  12.500  0.00  0.00    +0.000 A 
BRANCH  17  20
ATOM     20  O   UNL     1      48.532   8.110  13.185  0.00  0.00    +0.000 OA
BRANCH  20  21
ATOM     21  C   UNL     1      49.177   8.390  11.946  0.00  0.00    +0.000 C 
ATOM     22  F   UNL     1      48.907   7.511  10.956  0.00  0.00    +0.000 F 
ATOM     23  F   UNL     1      48.793   9.615  11.519  0.00  0.00    +0.000 F 
ATOM     24  F   UNL     1      50.513   8.415  12.143  0.00  0.00    +0.000 F 
ENDBRANCH  20  21
ENDBRANCH  17  20
ENDBRANCH   1  14
TORSDOF 5
ENDMDL
MODEL 6
REMARK VINA RESULT:    -6.376      2.082      2.689
REMARK INTER + INTRA:          -8.603
REMARK INTER:                  -8.838
REMARK INTRA:                   0.236
REMARK UNBOUND:                -0.363
REMARK  Name = 
REMARK  5 active torsions:
REMARK  status: ('A' for Active; 'I' for Inactive)
REMARK    1  A    between atoms: C_2  and  C_3
REMARK    2  A    between atoms: N_7  and  C_8
REMARK    3  A    between atoms: C_8  and  C_9
REMARK    4  A    between atoms: C_12  and  O_13
REMARK    5  A    between atoms: O_13  and  C_14
REMARK                            x       y       z     vdW  Elec       q    Type
REMARK                         _______ _______ _______ _____ _____    ______ ____
ROOT
ATOM      1  C   UNL     1      43.882   5.732  11.328  0.00  0.00    +0.000 C 
ATOM      2  C   UNL     1      42.606   5.097  11.877  0.00  0.00    +0.000 C 
ATOM      3  C   UNL     1      43.772   5.301  12.785  0.00  0.00    +0.000 C 
ENDROOT
BRANCH   1   8
ATOM      4  C   UNL     1      47.114   9.520  12.568  0.00  0.00    +0.000 A 
ATOM      5  C   UNL     1      47.245   8.166  12.460  0.00  0.00    +0.000 A 
ATOM      6  N   UNL     1      46.277   7.363  11.976  0.00  0.00    +0.000 NA
ATOM      7  C   UNL     1      45.125   7.931  11.570  0.00  0.00    +0.000 A 
ATOM      8  N   UNL     1      44.084   7.159  11.080  0.00  0.00    +0.000 N 
ATOM      9  N   UNL     1      44.925   9.263  11.606  0.00  0.00    +0.000 NA
ATOM     10  C   UNL     1      45.919  10.026  12.119  0.00  0.00    +0.000 A 
ATOM     11  H   UNL     1      43.356   7.735  10.680  0.00  0.00    +0.000 HD
BRANCH   4  13
ATOM     12  N   UNL     1      48.985  10.996  13.547  0.00  0.00    +0.000 NA
ATOM     13  C   UNL     1      48.139  10.332  13.111  0.00  0.00    +0.000 C 
ENDBRANCH   4  13
ENDBRANCH   1   8
BRANCH   1  14
ATOM     14  C   UNL     1      44.604   4.810  10.343  0.00  0.00    +0.000 A 
ATOM     15  C   UNL     1      44.167   3.497  10.111  0.00  0.00    +0.000 A 
ATOM     16  C   UNL     1      44.570   2.791   8.974  0.00  0.00    +0.000 A 
ATOM     17  C   UNL     1      45.414   3.393   8.047  0.00  0.00    +0.000 A 
ATOM     18  C   UNL     1      46.009   4.614   8.361  0.00  0.00    +0.000 A 
ATOM     19  C   UNL     1      45.613   5.312   9.504  0.00  0.00    +0.000 A 
BRANCH  17  20
ATOM     20  O   UNL     1      45.740   2.869   6.833  0.00  0.00    +0.000 OA
BRANCH  20  21
ATOM     21  C   UNL     1      46.953   2.129   6.731  0.00  0.00    +0.000 C 
ATOM     22  F   UNL     1      48.011   2.837   6.276  0.00  0.00    +0.000 F 
ATOM     23  F   UNL     1      47.279   1.650   7.953  0.00  0.00    +0.000 F 
ATOM     24  F   UNL     1      46.757   1.077   5.907  0.00  0.00    +0.000 F 
ENDBRANCH  20  21
ENDBRANCH  17  20
ENDBRANCH   1  14
TORSDOF 5
ENDMDL
MODEL 7
REMARK VINA RESULT:    -6.174      4.899      7.215
REMARK INTER + INTRA:          -8.341
REMARK INTER:                  -8.443
REMARK INTRA:                   0.102
REMARK UNBOUND:                -0.363
REMARK  Name = 
REMARK  5 active torsions:
REMARK  status: ('A' for Active; 'I' for Inactive)
REMARK    1  A    between atoms: C_2  and  C_3
REMARK    2  A    between atoms: N_7  and  C_8
REMARK    3  A    between atoms: C_8  and  C_9
REMARK    4  A    between atoms: C_12  and  O_13
REMARK    5  A    between atoms: O_13  and  C_14
REMARK                            x       y       z     vdW  Elec       q    Type
REMARK                         _______ _______ _______ _____ _____    ______ ____
ROOT
ATOM      1  C   UNL     1      43.991   4.501  11.327  0.00  0.00    +0.000 C 
ATOM      2  C   UNL     1      43.301   3.473  12.221  0.00  0.00    +0.000 C 
ATOM      3  C   UNL     1      42.681   4.818  12.037  0.00  0.00    +0.000 C 
ENDROOT
BRANCH   1   8
ATOM      4  C   UNL     1      46.539   2.537   7.328  0.00  0.00    +0.000 A 
ATOM      5  C   UNL     1      46.340   2.126   8.615  0.00  0.00    +0.000 A 
ATOM      6  N   UNL     1      45.504   2.745   9.471  0.00  0.00    +0.000 NA
ATOM      7  C   UNL     1      44.824   3.820   9.028  0.00  0.00    +0.000 A 
ATOM      8  N   UNL     1      43.963   4.512   9.865  0.00  0.00    +0.000 N 
ATOM      9  N   UNL     1      44.930   4.271   7.763  0.00  0.00    +0.000 NA
ATOM     10  C   UNL     1      45.797   3.628   6.947  0.00  0.00    +0.000 A 
ATOM     11  H   UNL     1      43.419   5.192   9.351  0.00  0.00    +0.000 HD
BRANCH   4  13
ATOM     12  N   UNL     1      48.193   1.354   5.748  0.00  0.00    +0.000 NA
ATOM     13  C   UNL     1      47.448   1.883   6.464  0.00  0.00    +0.000 C 
ENDBRANCH   4  13
ENDBRANCH   1   8
BRANCH   1  14
ATOM     14  C   UNL     1      45.298   5.010  11.939  0.00  0.00    +0.000 A 
ATOM     15  C   UNL     1      46.093   5.964  11.286  0.00  0.00    +0.000 A 
ATOM     16  C   UNL     1      47.059   6.696  11.980  0.00  0.00    +0.000 A 
ATOM     17  C   UNL     1      47.241   6.489  13.343  0.00  0.00    +0.000 A 
ATOM     18  C   UNL     1      46.602   5.415  13.958  0.00  0.00    +0.000 A 
ATOM     19  C   UNL     1      45.644   4.676  13.260  0.00  0.00    +0.000 A 
BRANCH  17  20
ATOM     20  O   UNL     1      48.031   7.250  14.149  0.00  0.00    +0.000 OA
BRANCH  20  21
ATOM     21  C   UNL     1      47.732   8.639  14.258  0.00  0.00    +0.000 C 
ATOM     22  F   UNL     1      47.958   9.172  15.478  0.00  0.00    +0.000 F 
ATOM     23  F   UNL     1      48.490   9.321  13.368  0.00  0.00    +0.000 F 
ATOM     24  F   UNL     1      46.434   8.834  13.938  0.00  0.00    +0.000 F 
ENDBRANCH  20  21
ENDBRANCH  17  20
ENDBRANCH   1  14
TORSDOF 5
ENDMDL
MODEL 8
REMARK VINA RESULT:    -5.679      2.338      3.735
REMARK INTER + INTRA:          -7.701
REMARK INTER:                  -8.200
REMARK INTRA:                   0.499
REMARK UNBOUND:                -0.363
REMARK  Name = 
REMARK  5 active torsions:
REMARK  status: ('A' for Active; 'I' for Inactive)
REMARK    1  A    between atoms: C_2  and  C_3
REMARK    2  A    between atoms: N_7  and  C_8
REMARK    3  A    between atoms: C_8  and  C_9
REMARK    4  A    between atoms: C_12  and  O_13
REMARK    5  A    between atoms: O_13  and  C_14
REMARK                            x       y       z     vdW  Elec       q    Type
REMARK                         _______ _______ _______ _____ _____    ______ ____
ROOT
ATOM      1  C   UNL     1      46.974   6.676  12.952  0.00  0.00    +0.000 C 
ATOM      2  C   UNL     1      47.883   7.164  11.825  0.00  0.00    +0.000 C 
ATOM      3  C   UNL     1      46.924   8.116  12.456  0.00  0.00    +0.000 C 
ENDROOT
BRANCH   1   8
ATOM      4  C   UNL     1      51.142   7.010  15.928  0.00  0.00    +0.000 A 
ATOM      5  C   UNL     1      50.749   7.637  14.781  0.00  0.00    +0.000 A 
ATOM      6  N   UNL     1      49.526   7.489  14.235  0.00  0.00    +0.000 NA
ATOM      7  C   UNL     1      48.644   6.686  14.863  0.00  0.00    +0.000 A 
ATOM      8  N   UNL     1      47.377   6.477  14.344  0.00  0.00    +0.000 N 
ATOM      9  N   UNL     1      48.934   6.059  16.020  0.00  0.00    +0.000 NA
ATOM     10  C   UNL     1      50.182   6.224  16.518  0.00  0.00    +0.000 A 
ATOM     11  H   UNL     1      46.789   5.979  14.998  0.00  0.00    +0.000 HD
BRANCH   4  13
ATOM     12  N   UNL     1      53.517   7.280  16.887  0.00  0.00    +0.000 NA
ATOM     13  C   UNL     1      52.445   7.163  16.458  0.00  0.00    +0.000 C 
ENDBRANCH   4  13
ENDBRANCH   1   8
BRANCH   1  14
ATOM     14  C   UNL     1      45.917   5.691  12.451  0.00  0.00    +0.000 A 
ATOM     15  C   UNL     1      45.042   6.021  11.405  0.00  0.00    +0.000 A 
ATOM     16  C   UNL     1      44.348   5.032  10.703  0.00  0.00    +0.000 A 
ATOM     17  C   UNL     1      44.523   3.693  11.035  0.00  0.00    +0.000 A 
ATOM     18  C   UNL     1      45.231   3.366  12.191  0.00  0.00    +0.000 A 
ATOM     19  C   UNL     1      45.915   4.358  12.897  0.00  0.00    +0.000 A 
BRANCH  17  20
ATOM     20  O   UNL     1      44.031   2.642  10.325  0.00  0.00    +0.000 OA
BRANCH  20  21
ATOM     21  C   UNL     1      44.719   2.259   9.137  0.00  0.00    +0.000 C 
ATOM     22  F   UNL     1      46.063   2.385   9.197  0.00  0.00    +0.000 F 
ATOM     23  F   UNL     1      44.443   0.962   8.869  0.00  0.00    +0.000 F 
ATOM     24  F   UNL     1      44.265   3.005   8.106  0.00  0.00    +0.000 F 
ENDBRANCH  20  21
ENDBRANCH  17  20
ENDBRANCH   1  14
TORSDOF 5
ENDMDL
MODEL 9
REMARK VINA RESULT:    -5.632      6.143      8.947
REMARK INTER + INTRA:          -7.641
REMARK INTER:                  -6.965
REMARK INTRA:                  -0.676
REMARK UNBOUND:                -0.363
REMARK  Name = 
REMARK  5 active torsions:
REMARK  status: ('A' for Active; 'I' for Inactive)
REMARK    1  A    between atoms: C_2  and  C_3
REMARK    2  A    between atoms: N_7  and  C_8
REMARK    3  A    between atoms: C_8  and  C_9
REMARK    4  A    between atoms: C_12  and  O_13
REMARK    5  A    between atoms: O_13  and  C_14
REMARK                            x       y       z     vdW  Elec       q    Type
REMARK                         _______ _______ _______ _____ _____    ______ ____
ROOT
ATOM      1  C   UNL     1      48.230   7.757  13.715  0.00  0.00    +0.000 C 
ATOM      2  C   UNL     1      49.252   8.502  12.859  0.00  0.00    +0.000 C 
ATOM      3  C   UNL     1      49.092   7.028  12.691  0.00  0.00    +0.000 C 
ENDROOT
BRANCH   1   8
ATOM      4  C   UNL     1      44.492   4.468  12.472  0.00  0.00    +0.000 A 
ATOM      5  C   UNL     1      45.698   4.333  13.099  0.00  0.00    +0.000 A 
ATOM      6  N   UNL     1      46.473   5.378  13.449  0.00  0.00    +0.000 NA
ATOM      7  C   UNL     1      46.028   6.619  13.172  0.00  0.00    +0.000 A 
ATOM      8  N   UNL     1      46.785   7.735  13.490  0.00  0.00    +0.000 N 
ATOM      9  N   UNL     1      44.833   6.846  12.591  0.00  0.00    +0.000 NA
ATOM     10  C   UNL     1      44.100   5.763  12.240  0.00  0.00    +0.000 A 
ATOM     11  H   UNL     1      46.257   8.587  13.361  0.00  0.00    +0.000 HD
BRANCH   4  13
ATOM     12  N   UNL     1      43.081   2.432  11.766  0.00  0.00    +0.000 NA
ATOM     13  C   UNL     1      43.717   3.347  12.089  0.00  0.00    +0.000 C 
ENDBRANCH   4  13
ENDBRANCH   1   8
BRANCH   1  14
ATOM     14  C   UNL     1      48.642   7.706  15.188  0.00  0.00    +0.000 A 
ATOM     15  C   UNL     1      48.275   8.718  16.089  0.00  0.00    +0.000 A 
ATOM     16  C   UNL     1      48.316   8.507  17.469  0.00  0.00    +0.000 A 
ATOM     17  C   UNL     1      48.721   7.274  17.971  0.00  0.00    +0.000 A 
ATOM     18  C   UNL     1      49.272   6.334  17.102  0.00  0.00    +0.000 A 
ATOM     19  C   UNL     1      49.240   6.552  15.722  0.00  0.00    +0.000 A 
BRANCH  17  20
ATOM     20  O   UNL     1      48.647   6.901  19.278  0.00  0.00    +0.000 OA
BRANCH  20  21
ATOM     21  C   UNL     1      47.615   5.994  19.655  0.00  0.00    +0.000 C 
ATOM     22  F   UNL     1      46.590   5.908  18.779  0.00  0.00    +0.000 F 
ATOM     23  F   UNL     1      48.144   4.756  19.786  0.00  0.00    +0.000 F 
ATOM     24  F   UNL     1      47.121   6.367  20.856  0.00  0.00    +0.000 F 
ENDBRANCH  20  21
ENDBRANCH  17  20
ENDBRANCH   1  14
TORSDOF 5
ENDMDL
