MODEL 1
REMARK VINA RESULT:    -8.707      0.000      0.000
REMARK INTER + INTRA:         -12.327
REMARK INTER:                 -11.760
REMARK INTRA:                  -0.566
REMARK UNBOUND:                -0.566
REMARK  Name = 
REMARK  7 active torsions:
REMARK  status: ('A' for Active; 'I' for Inactive)
REMARK    1  A    between atoms: C_1  and  C_2
REMARK    2  A    between atoms: C_2  and  N_3
REMARK    3  A    between atoms: C_2  and  C_16
REMARK    4  A    between atoms: C_4  and  C_6
REMARK    5  A    between atoms: C_19  and  O_20
REMARK    6  A    between atoms: O_20  and  C_21
REMARK    7  A    between atoms: C_21  and  C_22
REMARK                            x       y       z     vdW  Elec       q    Type
REMARK                         _______ _______ _______ _____ _____    ______ ____
ROOT
ATOM      1  C   UNL     1      47.602   8.891  12.280  0.00  0.00    +0.000 C 
ATOM      2  C   UNL     1      46.574   8.048  13.038  0.00  0.00    +0.000 C 
ENDROOT
BRANCH   2   3
ATOM      3  C   UNL     1      45.975   6.914  12.221  0.00  0.00    +0.000 A 
ATOM      4  C   UNL     1      45.035   6.073  12.837  0.00  0.00    +0.000 A 
ATOM      5  C   UNL     1      44.455   5.006  12.147  0.00  0.00    +0.000 A 
ATOM      6  C   UNL     1      44.797   4.757  10.823  0.00  0.00    +0.000 A 
ATOM      7  C   UNL     1      45.740   5.574  10.198  0.00  0.00    +0.000 A 
ATOM      8  C   UNL     1      46.327   6.642  10.891  0.00  0.00    +0.000 A 
BRANCH   6   9
ATOM      9  O   UNL     1      44.304   3.722  10.073  0.00  0.00    +0.000 OA
BRANCH   9  10
ATOM     10  C   UNL     1      44.450   3.885   8.655  0.00  0.00    +0.000 C 
BRANCH  10  11
ATOM     11  C   UNL     1      45.579   3.042   8.103  0.00  0.00    +0.000 A 
ATOM     12  C   UNL     1      46.487   3.574   7.191  0.00  0.00    +0.000 A 
ATOM     13  C   UNL     1      47.467   2.746   6.652  0.00  0.00    +0.000 A 
ATOM     14  C   UNL     1      47.514   1.410   7.031  0.00  0.00    +0.000 A 
ATOM     15  C   UNL     1      46.575   0.955   7.940  0.00  0.00    +0.000 A 
ATOM     16  N   UNL     1      45.610   1.735   8.476  0.00  0.00    +0.000 NA
ENDBRANCH  10  11
ENDBRANCH   9  10
ENDBRANCH   6   9
ENDBRANCH   2   3
BRANCH   2  17
ATOM     17  N   UNL     1      47.161   7.531  14.260  0.00  0.00    +0.000 N 
ATOM     18  C   UNL     1      48.248   6.696  14.283  0.00  0.00    +0.000 C 
ATOM     19  O   UNL     1      48.834   6.328  13.271  0.00  0.00    +0.000 OA
ATOM     20  H   UNL     1      46.715   7.790  15.130  0.00  0.00    +0.000 HD
BRANCH  18  21
ATOM     21  C   UNL     1      48.699   6.289  15.616  0.00  0.00    +0.000 A 
ATOM     22  C   UNL     1      49.642   7.040  16.306  0.00  0.00    +0.000 A 
ATOM     23  S   UNL     1      50.044   6.388  17.831  0.00  0.00    +0.000 S 
ATOM     24  C   UNL     1      49.010   5.055  17.598  0.00  0.00    +0.000 A 
ATOM     25  N   UNL     1      48.912   4.066  18.532  0.00  0.00    +0.000 NA
ATOM     26  C   UNL     1      48.121   3.102  18.194  0.00  0.00    +0.000 A 
ATOM     27  N   UNL     1      47.406   3.041  17.030  0.00  0.00    +0.000 N 
ATOM     28  C   UNL     1      47.426   4.041  16.088  0.00  0.00    +0.000 A 
ATOM     29  O   UNL     1      46.685   4.003  15.115  0.00  0.00    +0.000 OA
ATOM     30  C   UNL     1      48.337   5.129  16.391  0.00  0.00    +0.000 A 
ATOM     31  H   UNL     1      46.776   2.275  16.846  0.00  0.00    +0.000 HD
ENDBRANCH  18  21
ENDBRANCH   2  17
TORSDOF 6
ENDMDL
MODEL 2
REMARK VINA RESULT:    -7.978      1.872      2.359
REMARK INTER + INTRA:         -11.342
REMARK INTER:                 -10.443
REMARK INTRA:                  -0.899
REMARK UNBOUND:                -0.566
REMARK  Name = 
REMARK  7 active torsions:
REMARK  status: ('A' for Active; 'I' for Inactive)
REMARK    1  A    between atoms: C_1  and  C_2
REMARK    2  A    between atoms: C_2  and  N_3
REMARK    3  A    between atoms: C_2  and  C_16
REMARK    4  A    between atoms: C_4  and  C_6
REMARK    5  A    between atoms: C_19  and  O_20
REMARK    6  A    between atoms: O_20  and  C_21
REMARK    7  A    between atoms: C_21  and  C_22
REMARK                            x       y       z     vdW  Elec       q    Type
REMARK                         _______ _______ _______ _____ _____    ______ ____
ROOT
ATOM      1  C   UNL     1      49.503   7.387  13.033  0.00  0.00    +0.000 C 
ATOM      2  C   UNL     1      48.061   7.495  13.537  0.00  0.00    +0.000 C 
ENDROOT
BRANCH   2   3
ATOM      3  C   UNL     1      47.101   6.509  12.890  0.00  0.00    +0.000 A 
ATOM      4  C   UNL     1      46.482   6.875  11.684  0.00  0.00    +0.000 A 
ATOM      5  C   UNL     1      45.581   6.021  11.043  0.00  0.00    +0.000 A 
ATOM      6  C   UNL     1      45.282   4.778  11.589  0.00  0.00    +0.000 A 
ATOM      7  C   UNL     1      45.877   4.402  12.794  0.00  0.00    +0.000 A 
ATOM      8  C   UNL     1      46.777   5.261  13.442  0.00  0.00    +0.000 A 
BRANCH   6   9
ATOM      9  O   UNL     1      44.394   3.885  11.050  0.00  0.00    +0.000 OA
BRANCH   9  10
ATOM     10  C   UNL     1      44.099   4.097   9.662  0.00  0.00    +0.000 C 
BRANCH  10  11
ATOM     11  C   UNL     1      45.096   3.404   8.759  0.00  0.00    +0.000 A 
ATOM     12  C   UNL     1      45.336   2.037   8.877  0.00  0.00    +0.000 A 
ATOM     13  C   UNL     1      46.313   1.452   8.077  0.00  0.00    +0.000 A 
ATOM     14  C   UNL     1      47.027   2.243   7.185  0.00  0.00    +0.000 A 
ATOM     15  C   UNL     1      46.732   3.593   7.128  0.00  0.00    +0.000 A 
ATOM     16  N   UNL     1      45.792   4.189   7.895  0.00  0.00    +0.000 NA
ENDBRANCH  10  11
ENDBRANCH   9  10
ENDBRANCH   6   9
ENDBRANCH   2   3
BRANCH   2  17
ATOM     17  N   UNL     1      48.029   7.352  14.980  0.00  0.00    +0.000 N 
ATOM     18  C   UNL     1      48.539   8.285  15.845  0.00  0.00    +0.000 C 
ATOM     19  O   UNL     1      49.051   9.336  15.474  0.00  0.00    +0.000 OA
ATOM     20  H   UNL     1      47.627   6.500  15.349  0.00  0.00    +0.000 HD
BRANCH  18  21
ATOM     21  C   UNL     1      48.403   7.964  17.268  0.00  0.00    +0.000 A 
ATOM     22  C   UNL     1      48.005   8.934  18.178  0.00  0.00    +0.000 A 
ATOM     23  S   UNL     1      47.925   8.363  19.785  0.00  0.00    +0.000 S 
ATOM     24  C   UNL     1      48.467   6.816  19.323  0.00  0.00    +0.000 A 
ATOM     25  N   UNL     1      48.664   5.832  20.247  0.00  0.00    +0.000 NA
ATOM     26  C   UNL     1      49.117   4.729  19.750  0.00  0.00    +0.000 A 
ATOM     27  N   UNL     1      49.370   4.508  18.424  0.00  0.00    +0.000 N 
ATOM     28  C   UNL     1      49.130   5.447  17.450  0.00  0.00    +0.000 A 
ATOM     29  O   UNL     1      49.260   5.172  16.266  0.00  0.00    +0.000 OA
ATOM     30  C   UNL     1      48.666   6.726  17.957  0.00  0.00    +0.000 A 
ATOM     31  H   UNL     1      49.688   3.608  18.098  0.00  0.00    +0.000 HD
ENDBRANCH  18  21
ENDBRANCH   2  17
TORSDOF 6
ENDMDL
MODEL 3
REMARK VINA RESULT:    -7.901      4.571      8.570
REMARK INTER + INTRA:         -11.238
REMARK INTER:                 -10.297
REMARK INTRA:                  -0.941
REMARK UNBOUND:                -0.566
REMARK  Name = 
REMARK  7 active torsions:
REMARK  status: ('A' for Active; 'I' for Inactive)
REMARK    1  A    between atoms: C_1  and  C_2
REMARK    2  A    between atoms: C_2  and  N_3
REMARK    3  A    between atoms: C_2  and  C_16
REMARK    4  A    between atoms: C_4  and  C_6
REMARK    5  A    between atoms: C_19  and  O_20
REMARK    6  A    between atoms: O_20  and  C_21
REMARK    7  A    between atoms: C_21  and  C_22
REMARK                            x       y       z     vdW  Elec       q    Type
REMARK                         _______ _______ _______ _____ _____    ______ ____
ROOT
ATOM      1  C   UNL     1      47.709   5.904  18.524  0.00  0.00    +0.000 C 
ATOM      2  C   UNL     1      48.600   5.711  17.294  0.00  0.00    +0.000 C 
ENDROOT
BRANCH   2   3
ATOM      3  C   UNL     1      49.422   4.432  17.317  0.00  0.00    +0.000 A 
ATOM      4  C   UNL     1      50.787   4.522  17.631  0.00  0.00    +0.000 A 
ATOM      5  C   UNL     1      51.601   3.387  17.659  0.00  0.00    +0.000 A 
ATOM      6  C   UNL     1      51.069   2.134  17.378  0.00  0.00    +0.000 A 
ATOM      7  C   UNL     1      49.718   2.026  17.051  0.00  0.00    +0.000 A 
ATOM      8  C   UNL     1      48.900   3.165  17.017  0.00  0.00    +0.000 A 
BRANCH   6   9
ATOM      9  O   UNL     1      51.791   0.970  17.355  0.00  0.00    +0.000 OA
BRANCH   9  10
ATOM     10  C   UNL     1      53.182   1.121  17.675  0.00  0.00    +0.000 C 
BRANCH  10  11
ATOM     11  C   UNL     1      53.910  -0.206  17.672  0.00  0.00    +0.000 A 
ATOM     12  C   UNL     1      54.590  -0.646  16.539  0.00  0.00    +0.000 A 
ATOM     13  C   UNL     1      55.184  -1.904  16.554  0.00  0.00    +0.000 A 
ATOM     14  C   UNL     1      55.083  -2.692  17.695  0.00  0.00    +0.000 A 
ATOM     15  C   UNL     1      54.389  -2.186  18.779  0.00  0.00    +0.000 A 
ATOM     16  N   UNL     1      53.798  -0.970  18.791  0.00  0.00    +0.000 NA
ENDBRANCH  10  11
ENDBRANCH   9  10
ENDBRANCH   6   9
ENDBRANCH   2   3
BRANCH   2  17
ATOM     17  N   UNL     1      47.798   5.770  16.087  0.00  0.00    +0.000 N 
ATOM     18  C   UNL     1      48.278   6.205  14.879  0.00  0.00    +0.000 C 
ATOM     19  O   UNL     1      49.438   6.566  14.707  0.00  0.00    +0.000 OA
ATOM     20  H   UNL     1      46.827   5.495  16.166  0.00  0.00    +0.000 HD
BRANCH  18  21
ATOM     21  C   UNL     1      47.315   6.183  13.775  0.00  0.00    +0.000 A 
ATOM     22  C   UNL     1      46.922   7.360  13.153  0.00  0.00    +0.000 A 
ATOM     23  S   UNL     1      45.783   7.120  11.905  0.00  0.00    +0.000 S 
ATOM     24  C   UNL     1      45.740   5.442  12.189  0.00  0.00    +0.000 A 
ATOM     25  N   UNL     1      44.913   4.625  11.474  0.00  0.00    +0.000 NA
ATOM     26  C   UNL     1      44.962   3.385  11.833  0.00  0.00    +0.000 A 
ATOM     27  N   UNL     1      45.767   2.880  12.817  0.00  0.00    +0.000 N 
ATOM     28  C   UNL     1      46.659   3.652  13.521  0.00  0.00    +0.000 A 
ATOM     29  O   UNL     1      47.443   3.145  14.311  0.00  0.00    +0.000 OA
ATOM     30  C   UNL     1      46.613   5.066  13.194  0.00  0.00    +0.000 A 
ATOM     31  H   UNL     1      45.782   1.892  13.021  0.00  0.00    +0.000 HD
ENDBRANCH  18  21
ENDBRANCH   2  17
TORSDOF 6
ENDMDL
MODEL 4
REMARK VINA RESULT:    -7.763      2.055      2.452
REMARK INTER + INTRA:         -11.052
REMARK INTER:                 -10.336
REMARK INTRA:                  -0.716
REMARK UNBOUND:                -0.566
REMARK  Name = 
REMARK  7 active torsions:
REMARK  status: ('A' for Active; 'I' for Inactive)
REMARK    1  A    between atoms: C_1  and  C_2
REMARK    2  A    between atoms: C_2  and  N_3
REMARK    3  A    between atoms: C_2  and  C_16
REMARK    4  A    between atoms: C_4  and  C_6
REMARK    5  A    between atoms: C_19  and  O_20
REMARK    6  A    between atoms: O_20  and  C_21
REMARK    7  A    between atoms: C_21  and  C_22
REMARK                            x       y       z     vdW  Elec       q    Type
REMARK                         _______ _______ _______ _____ _____    ______ ____
ROOT
ATOM      1  C   UNL     1      48.852   7.728  12.911  0.00  0.00    +0.000 C 
ATOM      2  C   UNL     1      47.668   7.181  13.713  0.00  0.00    +0.000 C 
ENDROOT
BRANCH   2   3
ATOM      3  C   UNL     1      46.751   6.261  12.921  0.00  0.00    +0.000 A 
ATOM      4  C   UNL     1      46.510   4.971  13.418  0.00  0.00    +0.000 A 
ATOM      5  C   UNL     1      45.688   4.073  12.735  0.00  0.00    +0.000 A 
ATOM      6  C   UNL     1      45.081   4.445  11.540  0.00  0.00    +0.000 A 
ATOM      7  C   UNL     1      45.319   5.718  11.024  0.00  0.00    +0.000 A 
ATOM      8  C   UNL     1      46.150   6.620  11.706  0.00  0.00    +0.000 A 
BRANCH   6   9
ATOM      9  O   UNL     1      44.281   3.627  10.787  0.00  0.00    +0.000 OA
BRANCH   9  10
ATOM     10  C   UNL     1      44.180   3.996   9.404  0.00  0.00    +0.000 C 
BRANCH  10  11
ATOM     11  C   UNL     1      45.200   3.274   8.550  0.00  0.00    +0.000 A 
ATOM     12  C   UNL     1      45.470   1.922   8.748  0.00  0.00    +0.000 A 
ATOM     13  C   UNL     1      46.466   1.314   7.991  0.00  0.00    +0.000 A 
ATOM     14  C   UNL     1      47.170   2.068   7.059  0.00  0.00    +0.000 A 
ATOM     15  C   UNL     1      46.846   3.407   6.922  0.00  0.00    +0.000 A 
ATOM     16  N   UNL     1      45.887   4.024   7.647  0.00  0.00    +0.000 NA
ENDBRANCH  10  11
ENDBRANCH   9  10
ENDBRANCH   6   9
ENDBRANCH   2   3
BRANCH   2  17
ATOM     17  N   UNL     1      48.146   6.506  14.905  0.00  0.00    +0.000 N 
ATOM     18  C   UNL     1      48.677   7.162  15.985  0.00  0.00    +0.000 C 
ATOM     19  O   UNL     1      48.777   8.384  16.047  0.00  0.00    +0.000 OA
ATOM     20  H   UNL     1      48.100   5.496  14.911  0.00  0.00    +0.000 HD
BRANCH  18  21
ATOM     21  C   UNL     1      49.096   6.306  17.097  0.00  0.00    +0.000 A 
ATOM     22  C   UNL     1      50.014   5.282  16.897  0.00  0.00    +0.000 A 
ATOM     23  S   UNL     1      50.355   4.392  18.312  0.00  0.00    +0.000 S 
ATOM     24  C   UNL     1      49.251   5.311  19.226  0.00  0.00    +0.000 A 
ATOM     25  N   UNL     1      49.020   5.035  20.542  0.00  0.00    +0.000 NA
ATOM     26  C   UNL     1      48.126   5.790  21.088  0.00  0.00    +0.000 A 
ATOM     27  N   UNL     1      47.458   6.803  20.457  0.00  0.00    +0.000 N 
ATOM     28  C   UNL     1      47.699   7.158  19.151  0.00  0.00    +0.000 A 
ATOM     29  O   UNL     1      47.166   8.142  18.658  0.00  0.00    +0.000 OA
ATOM     30  C   UNL     1      48.661   6.309  18.471  0.00  0.00    +0.000 A 
ATOM     31  H   UNL     1      46.797   7.380  20.955  0.00  0.00    +0.000 HD
ENDBRANCH  18  21
ENDBRANCH   2  17
TORSDOF 6
ENDMDL
MODEL 5
REMARK VINA RESULT:    -7.546      2.313      3.272
REMARK INTER + INTRA:         -10.758
REMARK INTER:                  -9.478
REMARK INTRA:                  -1.280
REMARK UNBOUND:                -0.566
REMARK  Name = 
REMARK  7 active torsions:
REMARK  status: ('A' for Active; 'I' for Inactive)
REMARK    1  A    between atoms: C_1  and  C_2
REMARK    2  A    between atoms: C_2  and  N_3
REMARK    3  A    between atoms: C_2  and  C_16
REMARK    4  A    between atoms: C_4  and  C_6
REMARK    5  A    between atoms: C_19  and  O_20
REMARK    6  A    between atoms: O_20  and  C_21
REMARK    7  A    between atoms: C_21  and  C_22
REMARK                            x       y       z     vdW  Elec       q    Type
REMARK                         _______ _______ _______ _____ _____    ______ ____
ROOT
ATOM      1  C   UNL     1      47.771   9.171  12.259  0.00  0.00    +0.000 C 
ATOM      2  C   UNL     1      47.218   8.133  13.238  0.00  0.00    +0.000 C 
ENDROOT
BRANCH   2   3
ATOM      3  C   UNL     1      46.432   7.011  12.578  0.00  0.00    +0.000 A 
ATOM      4  C   UNL     1      46.667   5.693  13.002  0.00  0.00    +0.000 A 
ATOM      5  C   UNL     1      45.988   4.616  12.429  0.00  0.00    +0.000 A 
ATOM      6  C   UNL     1      45.053   4.829  11.423  0.00  0.00    +0.000 A 
ATOM      7  C   UNL     1      44.816   6.130  10.978  0.00  0.00    +0.000 A 
ATOM      8  C   UNL     1      45.502   7.213  11.548  0.00  0.00    +0.000 A 
BRANCH   6   9
ATOM      9  O   UNL     1      44.358   3.836  10.784  0.00  0.00    +0.000 OA
BRANCH   9  10
ATOM     10  C   UNL     1      44.159   4.052   9.379  0.00  0.00    +0.000 C 
BRANCH  10  11
ATOM     11  C   UNL     1      45.185   3.318   8.543  0.00  0.00    +0.000 A 
ATOM     12  C   UNL     1      45.450   1.968   8.761  0.00  0.00    +0.000 A 
ATOM     13  C   UNL     1      46.451   1.348   8.020  0.00  0.00    +0.000 A 
ATOM     14  C   UNL     1      47.165   2.089   7.086  0.00  0.00    +0.000 A 
ATOM     15  C   UNL     1      46.845   3.426   6.929  0.00  0.00    +0.000 A 
ATOM     16  N   UNL     1      45.881   4.054   7.637  0.00  0.00    +0.000 NA
ENDBRANCH  10  11
ENDBRANCH   9  10
ENDBRANCH   6   9
ENDBRANCH   2   3
BRANCH   2  17
ATOM     17  N   UNL     1      48.295   7.585  14.041  0.00  0.00    +0.000 N 
ATOM     18  C   UNL     1      48.621   8.050  15.289  0.00  0.00    +0.000 C 
ATOM     19  O   UNL     1      48.016   8.959  15.847  0.00  0.00    +0.000 OA
ATOM     20  H   UNL     1      48.840   6.838  13.631  0.00  0.00    +0.000 HD
BRANCH  18  21
ATOM     21  C   UNL     1      49.735   7.360  15.944  0.00  0.00    +0.000 A 
ATOM     22  C   UNL     1      49.538   6.663  17.130  0.00  0.00    +0.000 A 
ATOM     23  S   UNL     1      50.963   5.947  17.739  0.00  0.00    +0.000 S 
ATOM     24  C   UNL     1      51.897   6.587  16.468  0.00  0.00    +0.000 A 
ATOM     25  N   UNL     1      53.245   6.383  16.409  0.00  0.00    +0.000 NA
ATOM     26  C   UNL     1      53.821   6.965  15.410  0.00  0.00    +0.000 A 
ATOM     27  N   UNL     1      53.183   7.712  14.458  0.00  0.00    +0.000 N 
ATOM     28  C   UNL     1      51.821   7.895  14.441  0.00  0.00    +0.000 A 
ATOM     29  O   UNL     1      51.276   8.470  13.510  0.00  0.00    +0.000 OA
ATOM     30  C   UNL     1      51.125   7.302  15.569  0.00  0.00    +0.000 A 
ATOM     31  H   UNL     1      53.690   8.108  13.682  0.00  0.00    +0.000 HD
ENDBRANCH  18  21
ENDBRANCH   2  17
TORSDOF 6
ENDMDL
MODEL 6
REMARK VINA RESULT:    -7.467      2.129      2.651
REMARK INTER + INTRA:         -10.652
REMARK INTER:                  -9.607
REMARK INTRA:                  -1.045
REMARK UNBOUND:                -0.566
REMARK  Name = 
REMARK  7 active torsions:
REMARK  status: ('A' for Active; 'I' for Inactive)
REMARK    1  A    between atoms: C_1  and  C_2
REMARK    2  A    between atoms: C_2  and  N_3
REMARK    3  A    between atoms: C_2  and  C_16
REMARK    4  A    between atoms: C_4  and  C_6
REMARK    5  A    between atoms: C_19  and  O_20
REMARK    6  A    between atoms: O_20  and  C_21
REMARK    7  A    between atoms: C_21  and  C_22
REMARK                            x       y       z     vdW  Elec       q    Type
REMARK                         _______ _______ _______ _____ _____    ______ ____
ROOT
ATOM      1  C   UNL     1      48.557   8.990  13.796  0.00  0.00    +0.000 C 
ATOM      2  C   UNL     1      48.112   7.737  14.556  0.00  0.00    +0.000 C 
ENDROOT
BRANCH   2   3
ATOM      3  C   UNL     1      47.281   6.769  13.727  0.00  0.00    +0.000 A 
ATOM      4  C   UNL     1      46.564   7.275  12.632  0.00  0.00    +0.000 A 
ATOM      5  C   UNL     1      45.773   6.443  11.836  0.00  0.00    +0.000 A 
ATOM      6  C   UNL     1      45.684   5.084  12.113  0.00  0.00    +0.000 A 
ATOM      7  C   UNL     1      46.379   4.565  13.205  0.00  0.00    +0.000 A 
ATOM      8  C   UNL     1      47.169   5.400  14.009  0.00  0.00    +0.000 A 
BRANCH   6   9
ATOM      9  O   UNL     1      44.916   4.195  11.408  0.00  0.00    +0.000 OA
BRANCH   9  10
ATOM     10  C   UNL     1      44.604   4.603  10.069  0.00  0.00    +0.000 C 
BRANCH  10  11
ATOM     11  C   UNL     1      45.307   3.748   9.038  0.00  0.00    +0.000 A 
ATOM     12  C   UNL     1      45.349   2.362   9.168  0.00  0.00    +0.000 A 
ATOM     13  C   UNL     1      46.067   1.617   8.238  0.00  0.00    +0.000 A 
ATOM     14  C   UNL     1      46.728   2.272   7.205  0.00  0.00    +0.000 A 
ATOM     15  C   UNL     1      46.642   3.651   7.145  0.00  0.00    +0.000 A 
ATOM     16  N   UNL     1      45.955   4.400   8.036  0.00  0.00    +0.000 NA
ENDBRANCH  10  11
ENDBRANCH   9  10
ENDBRANCH   6   9
ENDBRANCH   2   3
BRANCH   2  17
ATOM     17  N   UNL     1      49.267   7.058  15.112  0.00  0.00    +0.000 N 
ATOM     18  C   UNL     1      49.420   6.793  16.447  0.00  0.00    +0.000 C 
ATOM     19  O   UNL     1      48.582   7.091  17.292  0.00  0.00    +0.000 OA
ATOM     20  H   UNL     1      50.000   6.795  14.466  0.00  0.00    +0.000 HD
BRANCH  18  21
ATOM     21  C   UNL     1      50.652   6.090  16.811  0.00  0.00    +0.000 A 
ATOM     22  C   UNL     1      51.884   6.725  16.722  0.00  0.00    +0.000 A 
ATOM     23  S   UNL     1      53.195   5.730  17.174  0.00  0.00    +0.000 S 
ATOM     24  C   UNL     1      52.165   4.403  17.455  0.00  0.00    +0.000 A 
ATOM     25  N   UNL     1      52.662   3.191  17.834  0.00  0.00    +0.000 NA
ATOM     26  C   UNL     1      51.762   2.273  17.968  0.00  0.00    +0.000 A 
ATOM     27  N   UNL     1      50.419   2.453  17.780  0.00  0.00    +0.000 N 
ATOM     28  C   UNL     1      49.866   3.669  17.458  0.00  0.00    +0.000 A 
ATOM     29  O   UNL     1      48.653   3.815  17.413  0.00  0.00    +0.000 OA
ATOM     30  C   UNL     1      50.836   4.728  17.246  0.00  0.00    +0.000 A 
ATOM     31  H   UNL     1      49.767   1.700  17.938  0.00  0.00    +0.000 HD
ENDBRANCH  18  21
ENDBRANCH   2  17
TORSDOF 6
ENDMDL
MODEL 7
REMARK VINA RESULT:    -6.818      3.638      7.939
REMARK INTER + INTRA:          -9.776
REMARK INTER:                  -8.608
REMARK INTRA:                  -1.167
REMARK UNBOUND:                -0.566
REMARK  Name = 
REMARK  7 active torsions:
REMARK  status: ('A' for Active; 'I' for Inactive)
REMARK    1  A    between atoms: C_1  and  C_2
REMARK    2  A    between atoms: C_2  and  N_3
REMARK    3  A    between atoms: C_2  and  C_16
REMARK    4  A    between atoms: C_4  and  C_6
REMARK    5  A    between atoms: C_19  and  O_20
REMARK    6  A    between atoms: O_20  and  C_21
REMARK    7  A    between atoms: C_21  and  C_22
REMARK                            x       y       z     vdW  Elec       q    Type
REMARK                         _______ _______ _______ _____ _____    ______ ____
ROOT
ATOM      1  C   UNL     1      48.247   9.068  15.425  0.00  0.00    +0.000 C 
ATOM      2  C   UNL     1      48.507   7.725  14.737  0.00  0.00    +0.000 C 
ENDROOT
BRANCH   2   3
ATOM      3  C   UNL     1      49.049   6.646  15.662  0.00  0.00    +0.000 A 
ATOM      4  C   UNL     1      48.179   5.628  16.080  0.00  0.00    +0.000 A 
ATOM      5  C   UNL     1      48.609   4.613  16.938  0.00  0.00    +0.000 A 
ATOM      6  C   UNL     1      49.922   4.589  17.394  0.00  0.00    +0.000 A 
ATOM      7  C   UNL     1      50.798   5.600  17.000  0.00  0.00    +0.000 A 
ATOM      8  C   UNL     1      50.366   6.623  16.143  0.00  0.00    +0.000 A 
BRANCH   6   9
ATOM      9  O   UNL     1      50.429   3.652  18.256  0.00  0.00    +0.000 OA
BRANCH   9  10
ATOM     10  C   UNL     1      50.685   2.370  17.665  0.00  0.00    +0.000 C 
BRANCH  10  11
ATOM     11  C   UNL     1      52.156   2.015  17.702  0.00  0.00    +0.000 A 
ATOM     12  C   UNL     1      53.115   2.974  18.019  0.00  0.00    +0.000 A 
ATOM     13  C   UNL     1      54.461   2.625  17.972  0.00  0.00    +0.000 A 
ATOM     14  C   UNL     1      54.817   1.332  17.605  0.00  0.00    +0.000 A 
ATOM     15  C   UNL     1      53.806   0.437  17.302  0.00  0.00    +0.000 A 
ATOM     16  N   UNL     1      52.492   0.750  17.336  0.00  0.00    +0.000 NA
ENDBRANCH  10  11
ENDBRANCH   9  10
ENDBRANCH   6   9
ENDBRANCH   2   3
BRANCH   2  17
ATOM     17  N   UNL     1      47.299   7.262  14.081  0.00  0.00    +0.000 N 
ATOM     18  C   UNL     1      47.230   6.961  12.746  0.00  0.00    +0.000 C 
ATOM     19  O   UNL     1      48.192   7.038  11.989  0.00  0.00    +0.000 OA
ATOM     20  H   UNL     1      46.466   7.188  14.651  0.00  0.00    +0.000 HD
BRANCH  18  21
ATOM     21  C   UNL     1      45.922   6.501  12.272  0.00  0.00    +0.000 A 
ATOM     22  C   UNL     1      45.019   7.392  11.705  0.00  0.00    +0.000 A 
ATOM     23  S   UNL     1      43.551   6.661  11.235  0.00  0.00    +0.000 S 
ATOM     24  C   UNL     1      44.052   5.142  11.820  0.00  0.00    +0.000 A 
ATOM     25  N   UNL     1      43.228   4.057  11.766  0.00  0.00    +0.000 NA
ATOM     26  C   UNL     1      43.732   2.988  12.287  0.00  0.00    +0.000 A 
ATOM     27  N   UNL     1      44.982   2.893  12.834  0.00  0.00    +0.000 N 
ATOM     28  C   UNL     1      45.870   3.941  12.857  0.00  0.00    +0.000 A 
ATOM     29  O   UNL     1      47.018   3.785  13.250  0.00  0.00    +0.000 OA
ATOM     30  C   UNL     1      45.338   5.185  12.329  0.00  0.00    +0.000 A 
ATOM     31  H   UNL     1      45.329   2.015  13.191  0.00  0.00    +0.000 HD
ENDBRANCH  18  21
ENDBRANCH   2  17
TORSDOF 6
ENDMDL
MODEL 8
REMARK VINA RESULT:    -6.756      1.752      2.493
REMARK INTER + INTRA:          -9.692
REMARK INTER:                  -8.530
REMARK INTRA:                  -1.162
REMARK UNBOUND:                -0.566
REMARK  Name = 
REMARK  7 active torsions:
REMARK  status: ('A' for Active; 'I' for Inactive)
REMARK    1  A    between atoms: C_1  and  C_2
REMARK    2  A    between atoms: C_2  and  N_3
REMARK    3  A    between atoms: C_2  and  C_16
REMARK    4  A    between atoms: C_4  and  C_6
REMARK    5  A    between atoms: C_19  and  O_20
REMARK    6  A    between atoms: O_20  and  C_21
REMARK    7  A    between atoms: C_21  and  C_22
REMARK                            x       y       z     vdW  Elec       q    Type
REMARK                         _______ _______ _______ _____ _____    ______ ____
ROOT
ATOM      1  C   UNL     1      50.169   8.669  13.625  0.00  0.00    +0.000 C 
ATOM      2  C   UNL     1      48.842   8.454  14.359  0.00  0.00    +0.000 C 
ENDROOT
BRANCH   2   3
ATOM      3  C   UNL     1      47.702   7.998  13.462  0.00  0.00    +0.000 A 
ATOM      4  C   UNL     1      47.819   6.760  12.813  0.00  0.00    +0.000 A 
ATOM      5  C   UNL     1      46.813   6.287  11.966  0.00  0.00    +0.000 A 
ATOM      6  C   UNL     1      45.664   7.039  11.754  0.00  0.00    +0.000 A 
ATOM      7  C   UNL     1      45.535   8.278  12.380  0.00  0.00    +0.000 A 
ATOM      8  C   UNL     1      46.547   8.757  13.226  0.00  0.00    +0.000 A 
BRANCH   6   9
ATOM      9  O   UNL     1      44.637   6.672  10.924  0.00  0.00    +0.000 OA
BRANCH   9  10
ATOM     10  C   UNL     1      44.117   5.356  11.158  0.00  0.00    +0.000 C 
BRANCH  10  11
ATOM     11  C   UNL     1      44.608   4.361  10.129  0.00  0.00    +0.000 A 
ATOM     12  C   UNL     1      45.344   4.782   9.024  0.00  0.00    +0.000 A 
ATOM     13  C   UNL     1      45.715   3.846   8.064  0.00  0.00    +0.000 A 
ATOM     14  C   UNL     1      45.340   2.518   8.226  0.00  0.00    +0.000 A 
ATOM     15  C   UNL     1      44.607   2.178   9.350  0.00  0.00    +0.000 A 
ATOM     16  N   UNL     1      44.230   3.066  10.296  0.00  0.00    +0.000 NA
ENDBRANCH  10  11
ENDBRANCH   9  10
ENDBRANCH   6   9
ENDBRANCH   2   3
BRANCH   2  17
ATOM     17  N   UNL     1      49.027   7.517  15.451  0.00  0.00    +0.000 N 
ATOM     18  C   UNL     1      48.603   7.754  16.733  0.00  0.00    +0.000 C 
ATOM     19  O   UNL     1      48.010   8.775  17.066  0.00  0.00    +0.000 OA
ATOM     20  H   UNL     1      49.519   6.658  15.242  0.00  0.00    +0.000 HD
BRANCH  18  21
ATOM     21  C   UNL     1      48.873   6.681  17.693  0.00  0.00    +0.000 A 
ATOM     22  C   UNL     1      49.607   6.930  18.846  0.00  0.00    +0.000 A 
ATOM     23  S   UNL     1      49.825   5.547  19.822  0.00  0.00    +0.000 S 
ATOM     24  C   UNL     1      48.991   4.561  18.712  0.00  0.00    +0.000 A 
ATOM     25  N   UNL     1      48.849   3.221  18.925  0.00  0.00    +0.000 NA
ATOM     26  C   UNL     1      48.230   2.601  17.975  0.00  0.00    +0.000 A 
ATOM     27  N   UNL     1      47.723   3.191  16.849  0.00  0.00    +0.000 N 
ATOM     28  C   UNL     1      47.788   4.544  16.620  0.00  0.00    +0.000 A 
ATOM     29  O   UNL     1      47.222   5.047  15.660  0.00  0.00    +0.000 OA
ATOM     30  C   UNL     1      48.517   5.286  17.633  0.00  0.00    +0.000 A 
ATOM     31  H   UNL     1      47.217   2.651  16.163  0.00  0.00    +0.000 HD
ENDBRANCH  18  21
ENDBRANCH   2  17
TORSDOF 6
ENDMDL
MODEL 9
REMARK VINA RESULT:    -6.729      3.164      7.799
REMARK INTER + INTRA:          -9.655
REMARK INTER:                  -9.409
REMARK INTRA:                  -0.246
REMARK UNBOUND:                -0.566
REMARK  Name = 
REMARK  7 active torsions:
REMARK  status: ('A' for Active; 'I' for Inactive)
REMARK    1  A    between atoms: C_1  and  C_2
REMARK    2  A    between atoms: C_2  and  N_3
REMARK    3  A    between atoms: C_2  and  C_16
REMARK    4  A    between atoms: C_4  and  C_6
REMARK    5  A    between atoms: C_19  and  O_20
REMARK    6  A    between atoms: O_20  and  C_21
REMARK    7  A    between atoms: C_21  and  C_22
REMARK                            x       y       z     vdW  Elec       q    Type
REMARK                         _______ _______ _______ _____ _____    ______ ____
ROOT
ATOM      1  C   UNL     1      47.810   9.037  12.326  0.00  0.00    +0.000 C 
ATOM      2  C   UNL     1      48.478   7.662  12.422  0.00  0.00    +0.000 C 
ENDROOT
BRANCH   2   3
ATOM      3  C   UNL     1      48.758   7.205  13.845  0.00  0.00    +0.000 A 
ATOM      4  C   UNL     1      49.839   7.782  14.530  0.00  0.00    +0.000 A 
ATOM      5  C   UNL     1      50.158   7.399  15.835  0.00  0.00    +0.000 A 
ATOM      6  C   UNL     1      49.400   6.435  16.489  0.00  0.00    +0.000 A 
ATOM      7  C   UNL     1      48.330   5.841  15.820  0.00  0.00    +0.000 A 
ATOM      8  C   UNL     1      48.012   6.220  14.508  0.00  0.00    +0.000 A 
BRANCH   6   9
ATOM      9  O   UNL     1      49.651   5.976  17.756  0.00  0.00    +0.000 OA
BRANCH   9  10
ATOM     10  C   UNL     1      49.237   4.624  17.997  0.00  0.00    +0.000 C 
BRANCH  10  11
ATOM     11  C   UNL     1      50.384   3.648  17.854  0.00  0.00    +0.000 A 
ATOM     12  C   UNL     1      50.172   2.363  17.361  0.00  0.00    +0.000 A 
ATOM     13  C   UNL     1      51.240   1.472  17.313  0.00  0.00    +0.000 A 
ATOM     14  C   UNL     1      52.490   1.882  17.762  0.00  0.00    +0.000 A 
ATOM     15  C   UNL     1      52.620   3.174  18.241  0.00  0.00    +0.000 A 
ATOM     16  N   UNL     1      51.600   4.058  18.302  0.00  0.00    +0.000 NA
ENDBRANCH  10  11
ENDBRANCH   9  10
ENDBRANCH   6   9
ENDBRANCH   2   3
BRANCH   2  17
ATOM     17  N   UNL     1      47.677   6.673  11.726  0.00  0.00    +0.000 N 
ATOM     18  C   UNL     1      46.307   6.687  11.704  0.00  0.00    +0.000 C 
ATOM     19  O   UNL     1      45.635   7.552  12.256  0.00  0.00    +0.000 OA
ATOM     20  H   UNL     1      48.174   5.926  11.259  0.00  0.00    +0.000 HD
BRANCH  18  21
ATOM     21  C   UNL     1      45.680   5.607  10.938  0.00  0.00    +0.000 A 
ATOM     22  C   UNL     1      45.715   5.609   9.550  0.00  0.00    +0.000 A 
ATOM     23  S   UNL     1      44.914   4.275   8.850  0.00  0.00    +0.000 S 
ATOM     24  C   UNL     1      44.451   3.678  10.376  0.00  0.00    +0.000 A 
ATOM     25  N   UNL     1      43.687   2.554  10.493  0.00  0.00    +0.000 NA
ATOM     26  C   UNL     1      43.383   2.251  11.711  0.00  0.00    +0.000 A 
ATOM     27  N   UNL     1      43.783   2.946  12.820  0.00  0.00    +0.000 N 
ATOM     28  C   UNL     1      44.602   4.047  12.756  0.00  0.00    +0.000 A 
ATOM     29  O   UNL     1      45.032   4.571  13.774  0.00  0.00    +0.000 OA
ATOM     30  C   UNL     1      44.937   4.464  11.406  0.00  0.00    +0.000 A 
ATOM     31  H   UNL     1      43.540   2.631  13.747  0.00  0.00    +0.000 HD
ENDBRANCH  18  21
ENDBRANCH   2  17
TORSDOF 6
ENDMDL
