MODEL 1
REMARK VINA RESULT:    -8.169      0.000      0.000
REMARK INTER + INTRA:         -12.206
REMARK INTER:                 -11.512
REMARK INTRA:                  -0.695
REMARK UNBOUND:                -0.695
REMARK  Name = 
REMARK  8 active torsions:
REMARK  status: ('A' for Active; 'I' for Inactive)
REMARK    1  A    between atoms: C_1  and  N_2
REMARK    2  A    between atoms: N_2  and  C_3
REMARK    3  A    between atoms: N_2  and  C_24
REMARK    4  A    between atoms: C_3  and  C_4
REMARK    5  A    between atoms: C_7  and  C_8
REMARK    6  A    between atoms: C_8  and  N_9
REMARK    7  A    between atoms: C_10  and  C_12
REMARK    8  A    between atoms: C_24  and  C_25
REMARK                            x       y       z     vdW  Elec       q    Type
REMARK                         _______ _______ _______ _____ _____    ______ ____
ROOT
ATOM      1  C   UNL     1      46.008   4.232  12.610  0.00  0.00    +0.000 A 
ATOM      2  C   UNL     1      46.410   3.828  13.892  0.00  0.00    +0.000 A 
ATOM      3  C   UNL     1      47.164   4.676  14.708  0.00  0.00    +0.000 A 
ATOM      4  C   UNL     1      47.542   5.945  14.254  0.00  0.00    +0.000 A 
ATOM      5  C   UNL     1      47.164   6.341  12.964  0.00  0.00    +0.000 A 
ATOM      6  C   UNL     1      46.392   5.500  12.156  0.00  0.00    +0.000 A 
ENDROOT
BRANCH   1   7
ATOM      7  C   UNL     1      45.177   3.308  11.739  0.00  0.00    +0.000 C 
BRANCH   7   9
ATOM      8  C   UNL     1      43.542   4.732  10.627  0.00  0.00    +0.000 C 
ATOM      9  N   UNL     1      44.738   3.894  10.454  0.00  0.00    +0.000 NA
BRANCH   9  10
ATOM     10  C   UNL     1      44.438   2.789   9.504  0.00  0.00    +0.000 C 
BRANCH  10  11
ATOM     11  C   UNL     1      45.526   2.543   8.471  0.00  0.00    +0.000 A 
ATOM     12  C   UNL     1      45.861   3.541   7.556  0.00  0.00    +0.000 A 
ATOM     13  C   UNL     1      46.787   3.252   6.557  0.00  0.00    +0.000 A 
ATOM     14  C   UNL     1      47.356   1.986   6.500  0.00  0.00    +0.000 A 
ATOM     15  C   UNL     1      46.981   1.057   7.455  0.00  0.00    +0.000 A 
ATOM     16  N   UNL     1      46.085   1.304   8.435  0.00  0.00    +0.000 NA
ENDBRANCH  10  11
ENDBRANCH   9  10
ENDBRANCH   7   9
ENDBRANCH   1   7
BRANCH   4  17
ATOM     17  C   UNL     1      48.383   6.849  15.114  0.00  0.00    +0.000 C 
BRANCH  17  18
ATOM     18  N   UNL     1      49.489   6.126  15.693  0.00  0.00    +0.000 N 
ATOM     19  C   UNL     1      49.474   5.739  17.007  0.00  0.00    +0.000 C 
ATOM     20  O   UNL     1      48.501   5.937  17.731  0.00  0.00    +0.000 OA
ATOM     21  H   UNL     1      50.367   6.144  15.184  0.00  0.00    +0.000 HD
BRANCH  19  22
ATOM     22  C   UNL     1      50.656   5.020  17.497  0.00  0.00    +0.000 A 
ATOM     23  C   UNL     1      51.703   5.732  18.066  0.00  0.00    +0.000 A 
ATOM     24  S   UNL     1      52.985   4.750  18.612  0.00  0.00    +0.000 S 
ATOM     25  C   UNL     1      52.208   3.339  18.063  0.00  0.00    +0.000 A 
ATOM     26  N   UNL     1      52.799   2.119  18.198  0.00  0.00    +0.000 NA
ATOM     27  C   UNL     1      52.110   1.139  17.713  0.00  0.00    +0.000 A 
ATOM     28  N   UNL     1      50.886   1.267  17.114  0.00  0.00    +0.000 N 
ATOM     29  C   UNL     1      50.238   2.473  16.983  0.00  0.00    +0.000 A 
ATOM     30  O   UNL     1      49.121   2.543  16.483  0.00  0.00    +0.000 OA
ATOM     31  C   UNL     1      50.976   3.611  17.495  0.00  0.00    +0.000 A 
ATOM     32  H   UNL     1      50.396   0.456  16.764  0.00  0.00    +0.000 HD
ENDBRANCH  19  22
ENDBRANCH  17  18
ENDBRANCH   4  17
TORSDOF 7
ENDMDL
MODEL 2
REMARK VINA RESULT:    -8.023      2.287      2.774
REMARK INTER + INTRA:         -12.001
REMARK INTER:                 -11.457
REMARK INTRA:                  -0.543
REMARK UNBOUND:                -0.695
REMARK  Name = 
REMARK  8 active torsions:
REMARK  status: ('A' for Active; 'I' for Inactive)
REMARK    1  A    between atoms: C_1  and  N_2
REMARK    2  A    between atoms: N_2  and  C_3
REMARK    3  A    between atoms: N_2  and  C_24
REMARK    4  A    between atoms: C_3  and  C_4
REMARK    5  A    between atoms: C_7  and  C_8
REMARK    6  A    between atoms: C_8  and  N_9
REMARK    7  A    between atoms: C_10  and  C_12
REMARK    8  A    between atoms: C_24  and  C_25
REMARK                            x       y       z     vdW  Elec       q    Type
REMARK                         _______ _______ _______ _____ _____    ______ ____
ROOT
ATOM      1  C   UNL     1      44.620   5.479  10.756  0.00  0.00    +0.000 A 
ATOM      2  C   UNL     1      44.130   5.959  11.980  0.00  0.00    +0.000 A 
ATOM      3  C   UNL     1      44.908   6.793  12.787  0.00  0.00    +0.000 A 
ATOM      4  C   UNL     1      46.200   7.158  12.391  0.00  0.00    +0.000 A 
ATOM      5  C   UNL     1      46.702   6.659  11.182  0.00  0.00    +0.000 A 
ATOM      6  C   UNL     1      45.916   5.841  10.365  0.00  0.00    +0.000 A 
ENDROOT
BRANCH   1   7
ATOM      7  C   UNL     1      43.760   4.586   9.881  0.00  0.00    +0.000 C 
BRANCH   7   9
ATOM      8  C   UNL     1      43.367   2.708  11.383  0.00  0.00    +0.000 C 
ATOM      9  N   UNL     1      43.946   3.136  10.100  0.00  0.00    +0.000 NA
BRANCH   9  10
ATOM     10  C   UNL     1      45.402   2.833  10.087  0.00  0.00    +0.000 C 
BRANCH  10  11
ATOM     11  C   UNL     1      45.973   2.577   8.701  0.00  0.00    +0.000 A 
ATOM     12  C   UNL     1      46.018   3.606   7.761  0.00  0.00    +0.000 A 
ATOM     13  C   UNL     1      46.450   3.318   6.469  0.00  0.00    +0.000 A 
ATOM     14  C   UNL     1      46.829   2.020   6.151  0.00  0.00    +0.000 A 
ATOM     15  C   UNL     1      46.770   1.059   7.146  0.00  0.00    +0.000 A 
ATOM     16  N   UNL     1      46.354   1.306   8.407  0.00  0.00    +0.000 NA
ENDBRANCH  10  11
ENDBRANCH   9  10
ENDBRANCH   7   9
ENDBRANCH   1   7
BRANCH   4  17
ATOM     17  C   UNL     1      47.057   8.027  13.273  0.00  0.00    +0.000 C 
BRANCH  17  18
ATOM     18  N   UNL     1      47.453   7.320  14.465  0.00  0.00    +0.000 N 
ATOM     19  C   UNL     1      48.731   6.849  14.619  0.00  0.00    +0.000 C 
ATOM     20  O   UNL     1      49.604   7.056  13.781  0.00  0.00    +0.000 OA
ATOM     21  H   UNL     1      46.710   6.960  15.056  0.00  0.00    +0.000 HD
BRANCH  19  22
ATOM     22  C   UNL     1      49.024   6.130  15.865  0.00  0.00    +0.000 A 
ATOM     23  C   UNL     1      50.089   6.537  16.656  0.00  0.00    +0.000 A 
ATOM     24  S   UNL     1      50.276   5.622  18.081  0.00  0.00    +0.000 S 
ATOM     25  C   UNL     1      48.968   4.615  17.669  0.00  0.00    +0.000 A 
ATOM     26  N   UNL     1      48.605   3.576  18.473  0.00  0.00    +0.000 NA
ATOM     27  C   UNL     1      47.614   2.878  18.024  0.00  0.00    +0.000 A 
ATOM     28  N   UNL     1      46.950   3.128  16.854  0.00  0.00    +0.000 N 
ATOM     29  C   UNL     1      47.261   4.183  16.027  0.00  0.00    +0.000 A 
ATOM     30  O   UNL     1      46.614   4.403  15.009  0.00  0.00    +0.000 OA
ATOM     31  C   UNL     1      48.380   4.989  16.474  0.00  0.00    +0.000 A 
ATOM     32  H   UNL     1      46.175   2.549  16.567  0.00  0.00    +0.000 HD
ENDBRANCH  19  22
ENDBRANCH  17  18
ENDBRANCH   4  17
TORSDOF 7
ENDMDL
MODEL 3
REMARK VINA RESULT:    -8.001      2.210      2.684
REMARK INTER + INTRA:         -11.970
REMARK INTER:                 -11.032
REMARK INTRA:                  -0.938
REMARK UNBOUND:                -0.695
REMARK  Name = 
REMARK  8 active torsions:
REMARK  status: ('A' for Active; 'I' for Inactive)
REMARK    1  A    between atoms: C_1  and  N_2
REMARK    2  A    between atoms: N_2  and  C_3
REMARK    3  A    between atoms: N_2  and  C_24
REMARK    4  A    between atoms: C_3  and  C_4
REMARK    5  A    between atoms: C_7  and  C_8
REMARK    6  A    between atoms: C_8  and  N_9
REMARK    7  A    between atoms: C_10  and  C_12
REMARK    8  A    between atoms: C_24  and  C_25
REMARK                            x       y       z     vdW  Elec       q    Type
REMARK                         _______ _______ _______ _____ _____    ______ ____
ROOT
ATOM      1  C   UNL     1      45.992   4.611  12.516  0.00  0.00    +0.000 A 
ATOM      2  C   UNL     1      46.272   5.779  11.790  0.00  0.00    +0.000 A 
ATOM      3  C   UNL     1      47.095   6.775  12.321  0.00  0.00    +0.000 A 
ATOM      4  C   UNL     1      47.650   6.629  13.598  0.00  0.00    +0.000 A 
ATOM      5  C   UNL     1      47.351   5.477  14.337  0.00  0.00    +0.000 A 
ATOM      6  C   UNL     1      46.543   4.470  13.796  0.00  0.00    +0.000 A 
ENDROOT
BRANCH   1   7
ATOM      7  C   UNL     1      45.108   3.530  11.922  0.00  0.00    +0.000 C 
BRANCH   7   9
ATOM      8  C   UNL     1      43.019   4.439  11.060  0.00  0.00    +0.000 C 
ATOM      9  N   UNL     1      44.356   3.934  10.715  0.00  0.00    +0.000 NA
BRANCH   9  10
ATOM     10  C   UNL     1      44.227   2.756   9.817  0.00  0.00    +0.000 C 
BRANCH  10  11
ATOM     11  C   UNL     1      45.331   2.640   8.777  0.00  0.00    +0.000 A 
ATOM     12  C   UNL     1      45.669   3.740   7.989  0.00  0.00    +0.000 A 
ATOM     13  C   UNL     1      46.611   3.577   6.978  0.00  0.00    +0.000 A 
ATOM     14  C   UNL     1      47.192   2.330   6.782  0.00  0.00    +0.000 A 
ATOM     15  C   UNL     1      46.813   1.293   7.617  0.00  0.00    +0.000 A 
ATOM     16  N   UNL     1      45.901   1.418   8.606  0.00  0.00    +0.000 NA
ENDBRANCH  10  11
ENDBRANCH   9  10
ENDBRANCH   7   9
ENDBRANCH   1   7
BRANCH   4  17
ATOM     17  C   UNL     1      48.508   7.714  14.191  0.00  0.00    +0.000 C 
BRANCH  17  18
ATOM     18  N   UNL     1      48.499   7.649  15.631  0.00  0.00    +0.000 N 
ATOM     19  C   UNL     1      49.527   7.062  16.322  0.00  0.00    +0.000 C 
ATOM     20  O   UNL     1      50.521   6.620  15.753  0.00  0.00    +0.000 OA
ATOM     21  H   UNL     1      47.610   7.810  16.094  0.00  0.00    +0.000 HD
BRANCH  19  22
ATOM     22  C   UNL     1      49.410   7.038  17.785  0.00  0.00    +0.000 A 
ATOM     23  C   UNL     1      49.629   8.202  18.509  0.00  0.00    +0.000 A 
ATOM     24  S   UNL     1      49.425   8.014  20.191  0.00  0.00    +0.000 S 
ATOM     25  C   UNL     1      49.083   6.356  20.018  0.00  0.00    +0.000 A 
ATOM     26  N   UNL     1      48.839   5.576  21.107  0.00  0.00    +0.000 NA
ATOM     27  C   UNL     1      48.622   4.332  20.831  0.00  0.00    +0.000 A 
ATOM     28  N   UNL     1      48.621   3.801  19.570  0.00  0.00    +0.000 N 
ATOM     29  C   UNL     1      48.832   4.555  18.439  0.00  0.00    +0.000 A 
ATOM     30  O   UNL     1      48.777   4.054  17.322  0.00  0.00    +0.000 OA
ATOM     31  C   UNL     1      49.099   5.958  18.692  0.00  0.00    +0.000 A 
ATOM     32  H   UNL     1      48.434   2.820  19.424  0.00  0.00    +0.000 HD
ENDBRANCH  19  22
ENDBRANCH  17  18
ENDBRANCH   4  17
TORSDOF 7
ENDMDL
MODEL 4
REMARK VINA RESULT:    -7.519      1.835      2.466
REMARK INTER + INTRA:         -11.290
REMARK INTER:                 -10.188
REMARK INTRA:                  -1.102
REMARK UNBOUND:                -0.695
REMARK  Name = 
REMARK  8 active torsions:
REMARK  status: ('A' for Active; 'I' for Inactive)
REMARK    1  A    between atoms: C_1  and  N_2
REMARK    2  A    between atoms: N_2  and  C_3
REMARK    3  A    between atoms: N_2  and  C_24
REMARK    4  A    between atoms: C_3  and  C_4
REMARK    5  A    between atoms: C_7  and  C_8
REMARK    6  A    between atoms: C_8  and  N_9
REMARK    7  A    between atoms: C_10  and  C_12
REMARK    8  A    between atoms: C_24  and  C_25
REMARK                            x       y       z     vdW  Elec       q    Type
REMARK                         _______ _______ _______ _____ _____    ______ ____
ROOT
ATOM      1  C   UNL     1      46.109   5.270  12.461  0.00  0.00    +0.000 A 
ATOM      2  C   UNL     1      46.513   6.281  11.576  0.00  0.00    +0.000 A 
ATOM      3  C   UNL     1      47.568   7.139  11.899  0.00  0.00    +0.000 A 
ATOM      4  C   UNL     1      48.236   7.011  13.123  0.00  0.00    +0.000 A 
ATOM      5  C   UNL     1      47.817   6.019  14.020  0.00  0.00    +0.000 A 
ATOM      6  C   UNL     1      46.775   5.147  13.687  0.00  0.00    +0.000 A 
ENDROOT
BRANCH   1   7
ATOM      7  C   UNL     1      44.972   4.335  12.092  0.00  0.00    +0.000 C 
BRANCH   7   9
ATOM      8  C   UNL     1      43.046   5.291  10.945  0.00  0.00    +0.000 C 
ATOM      9  N   UNL     1      44.340   4.610  10.785  0.00  0.00    +0.000 NA
BRANCH   9  10
ATOM     10  C   UNL     1      44.138   3.320  10.072  0.00  0.00    +0.000 C 
BRANCH  10  11
ATOM     11  C   UNL     1      45.132   3.066   8.949  0.00  0.00    +0.000 A 
ATOM     12  C   UNL     1      45.633   1.783   8.734  0.00  0.00    +0.000 A 
ATOM     13  C   UNL     1      46.617   1.599   7.767  0.00  0.00    +0.000 A 
ATOM     14  C   UNL     1      47.070   2.692   7.039  0.00  0.00    +0.000 A 
ATOM     15  C   UNL     1      46.510   3.930   7.302  0.00  0.00    +0.000 A 
ATOM     16  N   UNL     1      45.556   4.142   8.234  0.00  0.00    +0.000 NA
ENDBRANCH  10  11
ENDBRANCH   9  10
ENDBRANCH   7   9
ENDBRANCH   1   7
BRANCH   4  17
ATOM     17  C   UNL     1      49.349   7.954  13.493  0.00  0.00    +0.000 C 
BRANCH  17  18
ATOM     18  N   UNL     1      50.346   7.286  14.292  0.00  0.00    +0.000 N 
ATOM     19  C   UNL     1      51.037   7.954  15.269  0.00  0.00    +0.000 C 
ATOM     20  O   UNL     1      50.800   9.127  15.545  0.00  0.00    +0.000 OA
ATOM     21  H   UNL     1      50.699   6.400  13.942  0.00  0.00    +0.000 HD
BRANCH  19  22
ATOM     22  C   UNL     1      52.040   7.181  16.014  0.00  0.00    +0.000 A 
ATOM     23  C   UNL     1      53.368   7.582  15.990  0.00  0.00    +0.000 A 
ATOM     24  S   UNL     1      54.398   6.600  16.929  0.00  0.00    +0.000 S 
ATOM     25  C   UNL     1      53.112   5.573  17.362  0.00  0.00    +0.000 A 
ATOM     26  N   UNL     1      53.323   4.483  18.151  0.00  0.00    +0.000 NA
ATOM     27  C   UNL     1      52.264   3.777  18.377  0.00  0.00    +0.000 A 
ATOM     28  N   UNL     1      51.016   4.066  17.893  0.00  0.00    +0.000 N 
ATOM     29  C   UNL     1      50.750   5.171  17.120  0.00  0.00    +0.000 A 
ATOM     30  O   UNL     1      49.611   5.423  16.743  0.00  0.00    +0.000 OA
ATOM     31  C   UNL     1      51.909   5.990  16.819  0.00  0.00    +0.000 A 
ATOM     32  H   UNL     1      50.228   3.476  18.117  0.00  0.00    +0.000 HD
ENDBRANCH  19  22
ENDBRANCH  17  18
ENDBRANCH   4  17
TORSDOF 7
ENDMDL
MODEL 5
REMARK VINA RESULT:    -7.470      3.810      8.998
REMARK INTER + INTRA:         -11.221
REMARK INTER:                  -9.633
REMARK INTRA:                  -1.588
REMARK UNBOUND:                -0.695
REMARK  Name = 
REMARK  8 active torsions:
REMARK  status: ('A' for Active; 'I' for Inactive)
REMARK    1  A    between atoms: C_1  and  N_2
REMARK    2  A    between atoms: N_2  and  C_3
REMARK    3  A    between atoms: N_2  and  C_24
REMARK    4  A    between atoms: C_3  and  C_4
REMARK    5  A    between atoms: C_7  and  C_8
REMARK    6  A    between atoms: C_8  and  N_9
REMARK    7  A    between atoms: C_10  and  C_12
REMARK    8  A    between atoms: C_24  and  C_25
REMARK                            x       y       z     vdW  Elec       q    Type
REMARK                         _______ _______ _______ _____ _____    ______ ____
ROOT
ATOM      1  C   UNL     1      48.970   7.787  16.204  0.00  0.00    +0.000 A 
ATOM      2  C   UNL     1      48.265   8.890  15.701  0.00  0.00    +0.000 A 
ATOM      3  C   UNL     1      47.752   8.883  14.402  0.00  0.00    +0.000 A 
ATOM      4  C   UNL     1      47.943   7.772  13.570  0.00  0.00    +0.000 A 
ATOM      5  C   UNL     1      48.670   6.680  14.061  0.00  0.00    +0.000 A 
ATOM      6  C   UNL     1      49.165   6.679  15.369  0.00  0.00    +0.000 A 
ENDROOT
BRANCH   1   7
ATOM      7  C   UNL     1      49.510   7.800  17.622  0.00  0.00    +0.000 C 
BRANCH   7   9
ATOM      8  C   UNL     1      48.443   8.550  19.680  0.00  0.00    +0.000 C 
ATOM      9  N   UNL     1      48.515   7.485  18.669  0.00  0.00    +0.000 NA
BRANCH   9  10
ATOM     10  C   UNL     1      48.898   6.205  19.322  0.00  0.00    +0.000 C 
BRANCH  10  11
ATOM     11  C   UNL     1      48.604   4.967  18.489  0.00  0.00    +0.000 A 
ATOM     12  C   UNL     1      49.623   4.059  18.201  0.00  0.00    +0.000 A 
ATOM     13  C   UNL     1      49.349   2.990  17.352  0.00  0.00    +0.000 A 
ATOM     14  C   UNL     1      48.073   2.852  16.820  0.00  0.00    +0.000 A 
ATOM     15  C   UNL     1      47.114   3.788  17.167  0.00  0.00    +0.000 A 
ATOM     16  N   UNL     1      47.348   4.837  17.986  0.00  0.00    +0.000 NA
ENDBRANCH  10  11
ENDBRANCH   9  10
ENDBRANCH   7   9
ENDBRANCH   1   7
BRANCH   4  17
ATOM     17  C   UNL     1      47.424   7.773  12.158  0.00  0.00    +0.000 C 
BRANCH  17  18
ATOM     18  N   UNL     1      46.767   6.527  11.850  0.00  0.00    +0.000 N 
ATOM     19  C   UNL     1      45.402   6.449  11.754  0.00  0.00    +0.000 C 
ATOM     20  O   UNL     1      44.686   7.440  11.867  0.00  0.00    +0.000 OA
ATOM     21  H   UNL     1      47.312   5.678  11.965  0.00  0.00    +0.000 HD
BRANCH  19  22
ATOM     22  C   UNL     1      44.836   5.129  11.450  0.00  0.00    +0.000 A 
ATOM     23  C   UNL     1      44.089   4.466  12.414  0.00  0.00    +0.000 A 
ATOM     24  S   UNL     1      43.477   2.962  11.895  0.00  0.00    +0.000 S 
ATOM     25  C   UNL     1      44.230   3.120  10.377  0.00  0.00    +0.000 A 
ATOM     26  N   UNL     1      44.128   2.136   9.441  0.00  0.00    +0.000 NA
ATOM     27  C   UNL     1      44.772   2.375   8.346  0.00  0.00    +0.000 A 
ATOM     28  N   UNL     1      45.500   3.508   8.101  0.00  0.00    +0.000 N 
ATOM     29  C   UNL     1      45.606   4.540   9.003  0.00  0.00    +0.000 A 
ATOM     30  O   UNL     1      46.229   5.561   8.731  0.00  0.00    +0.000 OA
ATOM     31  C   UNL     1      44.917   4.316  10.259  0.00  0.00    +0.000 A 
ATOM     32  H   UNL     1      45.971   3.637   7.217  0.00  0.00    +0.000 HD
ENDBRANCH  19  22
ENDBRANCH  17  18
ENDBRANCH   4  17
TORSDOF 7
ENDMDL
MODEL 6
REMARK VINA RESULT:    -7.331      3.823      9.650
REMARK INTER + INTRA:         -11.025
REMARK INTER:                  -9.994
REMARK INTRA:                  -1.031
REMARK UNBOUND:                -0.695
REMARK  Name = 
REMARK  8 active torsions:
REMARK  status: ('A' for Active; 'I' for Inactive)
REMARK    1  A    between atoms: C_1  and  N_2
REMARK    2  A    between atoms: N_2  and  C_3
REMARK    3  A    between atoms: N_2  and  C_24
REMARK    4  A    between atoms: C_3  and  C_4
REMARK    5  A    between atoms: C_7  and  C_8
REMARK    6  A    between atoms: C_8  and  N_9
REMARK    7  A    between atoms: C_10  and  C_12
REMARK    8  A    between atoms: C_24  and  C_25
REMARK                            x       y       z     vdW  Elec       q    Type
REMARK                         _______ _______ _______ _____ _____    ______ ____
ROOT
ATOM      1  C   UNL     1      51.385   3.825  17.785  0.00  0.00    +0.000 A 
ATOM      2  C   UNL     1      50.487   4.902  17.822  0.00  0.00    +0.000 A 
ATOM      3  C   UNL     1      49.137   4.722  17.508  0.00  0.00    +0.000 A 
ATOM      4  C   UNL     1      48.658   3.460  17.137  0.00  0.00    +0.000 A 
ATOM      5  C   UNL     1      49.558   2.388  17.073  0.00  0.00    +0.000 A 
ATOM      6  C   UNL     1      50.904   2.564  17.408  0.00  0.00    +0.000 A 
ENDROOT
BRANCH   1   7
ATOM      7  C   UNL     1      52.846   4.029  18.143  0.00  0.00    +0.000 C 
BRANCH   7   9
ATOM      8  C   UNL     1      53.264   4.182  20.539  0.00  0.00    +0.000 C 
ATOM      9  N   UNL     1      53.295   3.310  19.354  0.00  0.00    +0.000 NA
BRANCH   9  10
ATOM     10  C   UNL     1      54.682   2.821  19.133  0.00  0.00    +0.000 C 
BRANCH  10  11
ATOM     11  C   UNL     1      54.768   1.531  18.331  0.00  0.00    +0.000 A 
ATOM     12  C   UNL     1      55.253   1.550  17.024  0.00  0.00    +0.000 A 
ATOM     13  C   UNL     1      55.224   0.374  16.281  0.00  0.00    +0.000 A 
ATOM     14  C   UNL     1      54.721  -0.786  16.858  0.00  0.00    +0.000 A 
ATOM     15  C   UNL     1      54.272  -0.724  18.166  0.00  0.00    +0.000 A 
ATOM     16  N   UNL     1      54.285   0.401  18.913  0.00  0.00    +0.000 NA
ENDBRANCH  10  11
ENDBRANCH   9  10
ENDBRANCH   7   9
ENDBRANCH   1   7
BRANCH   4  17
ATOM     17  C   UNL     1      47.213   3.267  16.762  0.00  0.00    +0.000 C 
BRANCH  17  18
ATOM     18  N   UNL     1      46.781   4.285  15.836  0.00  0.00    +0.000 N 
ATOM     19  C   UNL     1      46.828   4.079  14.482  0.00  0.00    +0.000 C 
ATOM     20  O   UNL     1      47.184   3.006  14.001  0.00  0.00    +0.000 OA
ATOM     21  H   UNL     1      46.692   5.229  16.199  0.00  0.00    +0.000 HD
BRANCH  19  22
ATOM     22  C   UNL     1      46.377   5.186  13.630  0.00  0.00    +0.000 A 
ATOM     23  C   UNL     1      47.188   6.301  13.470  0.00  0.00    +0.000 A 
ATOM     24  S   UNL     1      46.535   7.481  12.427  0.00  0.00    +0.000 S 
ATOM     25  C   UNL     1      45.121   6.564  12.189  0.00  0.00    +0.000 A 
ATOM     26  N   UNL     1      44.110   7.030  11.404  0.00  0.00    +0.000 NA
ATOM     27  C   UNL     1      43.086   6.245  11.334  0.00  0.00    +0.000 A 
ATOM     28  N   UNL     1      42.984   5.038  11.971  0.00  0.00    +0.000 N 
ATOM     29  C   UNL     1      43.991   4.513  12.748  0.00  0.00    +0.000 A 
ATOM     30  O   UNL     1      43.883   3.406  13.265  0.00  0.00    +0.000 OA
ATOM     31  C   UNL     1      45.158   5.363  12.875  0.00  0.00    +0.000 A 
ATOM     32  H   UNL     1      42.158   4.467  11.865  0.00  0.00    +0.000 HD
ENDBRANCH  19  22
ENDBRANCH  17  18
ENDBRANCH   4  17
TORSDOF 7
ENDMDL
MODEL 7
REMARK VINA RESULT:    -7.077      3.810      8.618
REMARK INTER + INTRA:         -10.668
REMARK INTER:                  -9.262
REMARK INTRA:                  -1.406
REMARK UNBOUND:                -0.695
REMARK  Name = 
REMARK  8 active torsions:
REMARK  status: ('A' for Active; 'I' for Inactive)
REMARK    1  A    between atoms: C_1  and  N_2
REMARK    2  A    between atoms: N_2  and  C_3
REMARK    3  A    between atoms: N_2  and  C_24
REMARK    4  A    between atoms: C_3  and  C_4
REMARK    5  A    between atoms: C_7  and  C_8
REMARK    6  A    between atoms: C_8  and  N_9
REMARK    7  A    between atoms: C_10  and  C_12
REMARK    8  A    between atoms: C_24  and  C_25
REMARK                            x       y       z     vdW  Elec       q    Type
REMARK                         _______ _______ _______ _____ _____    ______ ____
ROOT
ATOM      1  C   UNL     1      49.024   7.729  16.155  0.00  0.00    +0.000 A 
ATOM      2  C   UNL     1      49.672   6.950  15.185  0.00  0.00    +0.000 A 
ATOM      3  C   UNL     1      49.418   7.140  13.824  0.00  0.00    +0.000 A 
ATOM      4  C   UNL     1      48.500   8.109  13.403  0.00  0.00    +0.000 A 
ATOM      5  C   UNL     1      47.831   8.871  14.370  0.00  0.00    +0.000 A 
ATOM      6  C   UNL     1      48.101   8.694  15.731  0.00  0.00    +0.000 A 
ENDROOT
BRANCH   1   7
ATOM      7  C   UNL     1      49.319   7.524  17.629  0.00  0.00    +0.000 C 
BRANCH   7   9
ATOM      8  C   UNL     1      47.648   7.936  19.353  0.00  0.00    +0.000 C 
ATOM      9  N   UNL     1      48.204   6.952  18.413  0.00  0.00    +0.000 NA
BRANCH   9  10
ATOM     10  C   UNL     1      48.706   5.773  19.167  0.00  0.00    +0.000 C 
BRANCH  10  11
ATOM     11  C   UNL     1      48.791   4.496  18.344  0.00  0.00    +0.000 A 
ATOM     12  C   UNL     1      50.017   3.854  18.173  0.00  0.00    +0.000 A 
ATOM     13  C   UNL     1      50.084   2.747  17.333  0.00  0.00    +0.000 A 
ATOM     14  C   UNL     1      48.932   2.307  16.691  0.00  0.00    +0.000 A 
ATOM     15  C   UNL     1      47.752   2.991  16.926  0.00  0.00    +0.000 A 
ATOM     16  N   UNL     1      47.654   4.069  17.734  0.00  0.00    +0.000 NA
ENDBRANCH  10  11
ENDBRANCH   9  10
ENDBRANCH   7   9
ENDBRANCH   1   7
BRANCH   4  17
ATOM     17  C   UNL     1      48.195   8.294  11.940  0.00  0.00    +0.000 C 
BRANCH  17  18
ATOM     18  N   UNL     1      47.544   7.127  11.398  0.00  0.00    +0.000 N 
ATOM     19  C   UNL     1      46.178   7.034  11.352  0.00  0.00    +0.000 C 
ATOM     20  O   UNL     1      45.452   7.956  11.713  0.00  0.00    +0.000 OA
ATOM     21  H   UNL     1      48.109   6.290  11.298  0.00  0.00    +0.000 HD
BRANCH  19  22
ATOM     22  C   UNL     1      45.619   5.797  10.792  0.00  0.00    +0.000 A 
ATOM     23  C   UNL     1      45.813   5.503   9.450  0.00  0.00    +0.000 A 
ATOM     24  S   UNL     1      45.130   4.019   8.965  0.00  0.00    +0.000 S 
ATOM     25  C   UNL     1      44.507   3.737  10.523  0.00  0.00    +0.000 A 
ATOM     26  N   UNL     1      43.770   2.622  10.790  0.00  0.00    +0.000 NA
ATOM     27  C   UNL     1      43.337   2.550  12.005  0.00  0.00    +0.000 A 
ATOM     28  N   UNL     1      43.578   3.484  12.976  0.00  0.00    +0.000 N 
ATOM     29  C   UNL     1      44.341   4.608  12.762  0.00  0.00    +0.000 A 
ATOM     30  O   UNL     1      44.575   5.399  13.669  0.00  0.00    +0.000 OA
ATOM     31  C   UNL     1      44.838   4.749  11.407  0.00  0.00    +0.000 A 
ATOM     32  H   UNL     1      43.217   3.360  13.911  0.00  0.00    +0.000 HD
ENDBRANCH  19  22
ENDBRANCH  17  18
ENDBRANCH   4  17
TORSDOF 7
ENDMDL
MODEL 8
REMARK VINA RESULT:    -6.773      4.054      8.647
REMARK INTER + INTRA:         -10.239
REMARK INTER:                  -8.778
REMARK INTRA:                  -1.462
REMARK UNBOUND:                -0.695
REMARK  Name = 
REMARK  8 active torsions:
REMARK  status: ('A' for Active; 'I' for Inactive)
REMARK    1  A    between atoms: C_1  and  N_2
REMARK    2  A    between atoms: N_2  and  C_3
REMARK    3  A    between atoms: N_2  and  C_24
REMARK    4  A    between atoms: C_3  and  C_4
REMARK    5  A    between atoms: C_7  and  C_8
REMARK    6  A    between atoms: C_8  and  N_9
REMARK    7  A    between atoms: C_10  and  C_12
REMARK    8  A    between atoms: C_24  and  C_25
REMARK                            x       y       z     vdW  Elec       q    Type
REMARK                         _______ _______ _______ _____ _____    ______ ____
ROOT
ATOM      1  C   UNL     1      49.773   7.189  17.410  0.00  0.00    +0.000 A 
ATOM      2  C   UNL     1      48.872   8.259  17.521  0.00  0.00    +0.000 A 
ATOM      3  C   UNL     1      48.264   8.807  16.389  0.00  0.00    +0.000 A 
ATOM      4  C   UNL     1      48.552   8.302  15.115  0.00  0.00    +0.000 A 
ATOM      5  C   UNL     1      49.472   7.251  14.998  0.00  0.00    +0.000 A 
ATOM      6  C   UNL     1      50.065   6.689  16.134  0.00  0.00    +0.000 A 
ENDROOT
BRANCH   1   7
ATOM      7  C   UNL     1      50.415   6.593  18.649  0.00  0.00    +0.000 C 
BRANCH   7   9
ATOM      8  C   UNL     1      50.209   7.003  21.041  0.00  0.00    +0.000 C 
ATOM      9  N   UNL     1      49.532   6.514  19.831  0.00  0.00    +0.000 NA
BRANCH   9  10
ATOM     10  C   UNL     1      49.123   5.097  20.027  0.00  0.00    +0.000 C 
BRANCH  10  11
ATOM     11  C   UNL     1      48.730   4.378  18.746  0.00  0.00    +0.000 A 
ATOM     12  C   UNL     1      47.487   4.618  18.161  0.00  0.00    +0.000 A 
ATOM     13  C   UNL     1      47.114   3.871  17.048  0.00  0.00    +0.000 A 
ATOM     14  C   UNL     1      47.985   2.913  16.546  0.00  0.00    +0.000 A 
ATOM     15  C   UNL     1      49.207   2.746  17.175  0.00  0.00    +0.000 A 
ATOM     16  N   UNL     1      49.599   3.453  18.258  0.00  0.00    +0.000 NA
ENDBRANCH  10  11
ENDBRANCH   9  10
ENDBRANCH   7   9
ENDBRANCH   1   7
BRANCH   4  17
ATOM     17  C   UNL     1      47.928   8.910  13.888  0.00  0.00    +0.000 C 
BRANCH  17  18
ATOM     18  N   UNL     1      46.751   8.178  13.492  0.00  0.00    +0.000 N 
ATOM     19  C   UNL     1      46.773   7.323  12.422  0.00  0.00    +0.000 C 
ATOM     20  O   UNL     1      47.804   7.100  11.791  0.00  0.00    +0.000 OA
ATOM     21  H   UNL     1      45.861   8.505  13.856  0.00  0.00    +0.000 HD
BRANCH  19  22
ATOM     22  C   UNL     1      45.516   6.638  12.097  0.00  0.00    +0.000 A 
ATOM     23  C   UNL     1      44.471   7.357  11.534  0.00  0.00    +0.000 A 
ATOM     24  S   UNL     1      43.095   6.412  11.188  0.00  0.00    +0.000 S 
ATOM     25  C   UNL     1      43.829   5.015  11.825  0.00  0.00    +0.000 A 
ATOM     26  N   UNL     1      43.160   3.829  11.862  0.00  0.00    +0.000 NA
ATOM     27  C   UNL     1      43.828   2.859  12.396  0.00  0.00    +0.000 A 
ATOM     28  N   UNL     1      45.100   2.966  12.888  0.00  0.00    +0.000 N 
ATOM     29  C   UNL     1      45.825   4.134  12.844  0.00  0.00    +0.000 A 
ATOM     30  O   UNL     1      46.981   4.180  13.252  0.00  0.00    +0.000 OA
ATOM     31  C   UNL     1      45.116   5.261  12.270  0.00  0.00    +0.000 A 
ATOM     32  H   UNL     1      45.569   2.164  13.284  0.00  0.00    +0.000 HD
ENDBRANCH  19  22
ENDBRANCH  17  18
ENDBRANCH   4  17
TORSDOF 7
ENDMDL
MODEL 9
REMARK VINA RESULT:    -6.624      3.809      8.878
REMARK INTER + INTRA:         -10.030
REMARK INTER:                  -8.527
REMARK INTRA:                  -1.503
REMARK UNBOUND:                -0.695
REMARK  Name = 
REMARK  8 active torsions:
REMARK  status: ('A' for Active; 'I' for Inactive)
REMARK    1  A    between atoms: C_1  and  N_2
REMARK    2  A    between atoms: N_2  and  C_3
REMARK    3  A    between atoms: N_2  and  C_24
REMARK    4  A    between atoms: C_3  and  C_4
REMARK    5  A    between atoms: C_7  and  C_8
REMARK    6  A    between atoms: C_8  and  N_9
REMARK    7  A    between atoms: C_10  and  C_12
REMARK    8  A    between atoms: C_24  and  C_25
REMARK                            x       y       z     vdW  Elec       q    Type
REMARK                         _______ _______ _______ _____ _____    ______ ____
ROOT
ATOM      1  C   UNL     1      50.946   7.048  17.649  0.00  0.00    +0.000 A 
ATOM      2  C   UNL     1      49.638   7.500  17.886  0.00  0.00    +0.000 A 
ATOM      3  C   UNL     1      48.838   7.965  16.839  0.00  0.00    +0.000 A 
ATOM      4  C   UNL     1      49.334   7.998  15.530  0.00  0.00    +0.000 A 
ATOM      5  C   UNL     1      50.647   7.573  15.294  0.00  0.00    +0.000 A 
ATOM      6  C   UNL     1      51.441   7.088  16.339  0.00  0.00    +0.000 A 
ENDROOT
BRANCH   1   7
ATOM      7  C   UNL     1      51.800   6.531  18.792  0.00  0.00    +0.000 C 
BRANCH   7   9
ATOM      8  C   UNL     1      51.930   5.142  20.789  0.00  0.00    +0.000 C 
ATOM      9  N   UNL     1      51.239   5.368  19.510  0.00  0.00    +0.000 NA
BRANCH   9  10
ATOM     10  C   UNL     1      51.379   4.163  18.650  0.00  0.00    +0.000 C 
BRANCH  10  11
ATOM     11  C   UNL     1      50.073   3.680  18.037  0.00  0.00    +0.000 A 
ATOM     12  C   UNL     1      48.853   4.104  18.562  0.00  0.00    +0.000 A 
ATOM     13  C   UNL     1      47.677   3.567  18.047  0.00  0.00    +0.000 A 
ATOM     14  C   UNL     1      47.746   2.629  17.024  0.00  0.00    +0.000 A 
ATOM     15  C   UNL     1      48.996   2.272  16.548  0.00  0.00    +0.000 A 
ATOM     16  N   UNL     1      50.156   2.773  17.027  0.00  0.00    +0.000 NA
ENDBRANCH  10  11
ENDBRANCH   9  10
ENDBRANCH   7   9
ENDBRANCH   1   7
BRANCH   4  17
ATOM     17  C   UNL     1      48.489   8.531  14.403  0.00  0.00    +0.000 C 
BRANCH  17  18
ATOM     18  N   UNL     1      47.443   7.601  14.060  0.00  0.00    +0.000 N 
ATOM     19  C   UNL     1      47.674   6.554  13.206  0.00  0.00    +0.000 C 
ATOM     20  O   UNL     1      48.790   6.329  12.744  0.00  0.00    +0.000 OA
ATOM     21  H   UNL     1      46.488   7.889  14.255  0.00  0.00    +0.000 HD
BRANCH  19  22
ATOM     22  C   UNL     1      46.535   5.676  12.914  0.00  0.00    +0.000 A 
ATOM     23  C   UNL     1      46.631   4.318  13.182  0.00  0.00    +0.000 A 
ATOM     24  S   UNL     1      45.214   3.443  12.816  0.00  0.00    +0.000 S 
ATOM     25  C   UNL     1      44.437   4.842  12.238  0.00  0.00    +0.000 A 
ATOM     26  N   UNL     1      43.172   4.782  11.735  0.00  0.00    +0.000 NA
ATOM     27  C   UNL     1      42.716   5.913  11.307  0.00  0.00    +0.000 A 
ATOM     28  N   UNL     1      43.403   7.095  11.344  0.00  0.00    +0.000 N 
ATOM     29  C   UNL     1      44.669   7.210  11.870  0.00  0.00    +0.000 A 
ATOM     30  O   UNL     1      45.236   8.296  11.928  0.00  0.00    +0.000 OA
ATOM     31  C   UNL     1      45.238   5.965  12.349  0.00  0.00    +0.000 A 
ATOM     32  H   UNL     1      42.983   7.947  11.001  0.00  0.00    +0.000 HD
ENDBRANCH  19  22
ENDBRANCH  17  18
ENDBRANCH   4  17
TORSDOF 7
ENDMDL
