MODEL 1
REMARK VINA RESULT:    -7.243      0.000      0.000
REMARK INTER + INTRA:          -9.810
REMARK INTER:                  -9.149
REMARK INTRA:                  -0.661
REMARK UNBOUND:                -0.661
REMARK  Name = 
REMARK  5 active torsions:
REMARK  status: ('A' for Active; 'I' for Inactive)
REMARK    1  A    between atoms: N_1  and  C_2
REMARK    2  A    between atoms: C_2  and  C_3
REMARK    3  A    between atoms: C_6  and  O_7
REMARK    4  A    between atoms: O_7  and  C_8
REMARK    5  A    between atoms: C_8  and  C_9
REMARK                            x       y       z     vdW  Elec       q    Type
REMARK                         _______ _______ _______ _____ _____    ______ ____
ROOT
ATOM      1  C   UNL     1      47.015   2.401   7.285  0.00  0.00    +0.000 A 
ATOM      2  C   UNL     1      46.445   3.676   7.358  0.00  0.00    +0.000 A 
ATOM      3  C   UNL     1      45.339   3.893   8.187  0.00  0.00    +0.000 A 
ATOM      4  C   UNL     1      44.825   2.816   8.888  0.00  0.00    +0.000 A 
ATOM      5  N   UNL     1      45.319   1.568   8.803  0.00  0.00    +0.000 NA
ATOM      6  C   UNL     1      46.399   1.390   8.014  0.00  0.00    +0.000 A 
ENDROOT
BRANCH   1   7
ATOM      7  C   UNL     1      48.271   2.137   6.504  0.00  0.00    +0.000 C 
BRANCH   7   8
ATOM      8  N   UNL     1      48.131   2.587   5.123  0.00  0.00    +0.000 NA
ATOM      9  H   UNL     1      47.226   3.037   5.001  0.00  0.00    +0.000 HD
ATOM     10  H   UNL     1      48.138   1.775   4.506  0.00  0.00    +0.000 HD
ENDBRANCH   7   8
ENDBRANCH   1   7
BRANCH   4  11
ATOM     11  O   UNL     1      43.802   3.059   9.792  0.00  0.00    +0.000 OA
BRANCH  11  12
ATOM     12  C   UNL     1      43.774   4.431  10.215  0.00  0.00    +0.000 C 
BRANCH  12  13
ATOM     13  C   UNL     1      43.416   4.520  11.712  0.00  0.00    +0.000 C 
ATOM     14  C   UNL     1      44.136   5.666  12.445  0.00  0.00    +0.000 C 
ATOM     15  C   UNL     1      45.629   5.382  12.609  0.00  0.00    +0.000 C 
ATOM     16  C   UNL     1      45.877   4.000  13.215  0.00  0.00    +0.000 C 
ATOM     17  N   UNL     1      45.176   2.941  12.487  0.00  0.00    +0.000 NA
ATOM     18  C   UNL     1      43.735   3.196  12.425  0.00  0.00    +0.000 C 
ATOM     19  H   UNL     1      45.346   2.046  12.946  0.00  0.00    +0.000 HD
ENDBRANCH  12  13
ENDBRANCH  11  12
ENDBRANCH   4  11
TORSDOF 5
ENDMDL
MODEL 2
REMARK VINA RESULT:    -6.366      1.605      2.356
REMARK INTER + INTRA:          -8.701
REMARK INTER:                  -8.683
REMARK INTRA:                  -0.019
REMARK UNBOUND:                -0.661
REMARK  Name = 
REMARK  5 active torsions:
REMARK  status: ('A' for Active; 'I' for Inactive)
REMARK    1  A    between atoms: N_1  and  C_2
REMARK    2  A    between atoms: C_2  and  C_3
REMARK    3  A    between atoms: C_6  and  O_7
REMARK    4  A    between atoms: O_7  and  C_8
REMARK    5  A    between atoms: C_8  and  C_9
REMARK                            x       y       z     vdW  Elec       q    Type
REMARK                         _______ _______ _______ _____ _____    ______ ____
ROOT
ATOM      1  C   UNL     1      46.680   2.899   6.926  0.00  0.00    +0.000 A 
ATOM      2  C   UNL     1      46.289   1.843   7.754  0.00  0.00    +0.000 A 
ATOM      3  C   UNL     1      45.507   2.103   8.884  0.00  0.00    +0.000 A 
ATOM      4  C   UNL     1      45.171   3.417   9.159  0.00  0.00    +0.000 A 
ATOM      5  N   UNL     1      45.570   4.460   8.411  0.00  0.00    +0.000 NA
ATOM      6  C   UNL     1      46.306   4.181   7.314  0.00  0.00    +0.000 A 
ENDROOT
BRANCH   1   7
ATOM      7  C   UNL     1      47.420   2.667   5.639  0.00  0.00    +0.000 C 
BRANCH   7   8
ATOM      8  N   UNL     1      48.487   1.688   5.821  0.00  0.00    +0.000 NA
ATOM      9  H   UNL     1      48.717   1.613   6.810  0.00  0.00    +0.000 HD
ATOM     10  H   UNL     1      49.328   2.022   5.352  0.00  0.00    +0.000 HD
ENDBRANCH   7   8
ENDBRANCH   1   7
BRANCH   4  11
ATOM     11  O   UNL     1      44.304   3.658  10.214  0.00  0.00    +0.000 OA
BRANCH  11  12
ATOM     12  C   UNL     1      44.862   3.247  11.473  0.00  0.00    +0.000 C 
BRANCH  12  13
ATOM     13  C   UNL     1      44.720   4.377  12.512  0.00  0.00    +0.000 C 
ATOM     14  C   UNL     1      43.265   4.629  12.946  0.00  0.00    +0.000 C 
ATOM     15  C   UNL     1      42.446   5.276  11.829  0.00  0.00    +0.000 C 
ATOM     16  C   UNL     1      43.150   6.508  11.256  0.00  0.00    +0.000 C 
ATOM     17  N   UNL     1      44.529   6.224  10.856  0.00  0.00    +0.000 NA
ATOM     18  C   UNL     1      45.312   5.689  11.971  0.00  0.00    +0.000 C 
ATOM     19  H   UNL     1      44.964   7.079  10.511  0.00  0.00    +0.000 HD
ENDBRANCH  12  13
ENDBRANCH  11  12
ENDBRANCH   4  11
TORSDOF 5
ENDMDL
MODEL 3
REMARK VINA RESULT:    -5.596      1.862      2.560
REMARK INTER + INTRA:          -7.729
REMARK INTER:                  -7.281
REMARK INTRA:                  -0.448
REMARK UNBOUND:                -0.661
REMARK  Name = 
REMARK  5 active torsions:
REMARK  status: ('A' for Active; 'I' for Inactive)
REMARK    1  A    between atoms: N_1  and  C_2
REMARK    2  A    between atoms: C_2  and  C_3
REMARK    3  A    between atoms: C_6  and  O_7
REMARK    4  A    between atoms: O_7  and  C_8
REMARK    5  A    between atoms: C_8  and  C_9
REMARK                            x       y       z     vdW  Elec       q    Type
REMARK                         _______ _______ _______ _____ _____    ______ ____
ROOT
ATOM      1  C   UNL     1      46.726   1.639   7.493  0.00  0.00    +0.000 A 
ATOM      2  C   UNL     1      45.780   1.661   8.522  0.00  0.00    +0.000 A 
ATOM      3  C   UNL     1      45.277   2.885   8.975  0.00  0.00    +0.000 A 
ATOM      4  C   UNL     1      45.765   4.046   8.399  0.00  0.00    +0.000 A 
ATOM      5  N   UNL     1      46.709   4.062   7.442  0.00  0.00    +0.000 NA
ATOM      6  C   UNL     1      47.162   2.867   7.008  0.00  0.00    +0.000 A 
ENDROOT
BRANCH   1   7
ATOM      7  C   UNL     1      47.214   0.353   6.889  0.00  0.00    +0.000 C 
BRANCH   7   8
ATOM      8  N   UNL     1      46.827  -0.789   7.713  0.00  0.00    +0.000 NA
ATOM      9  H   UNL     1      47.312  -0.745   8.607  0.00  0.00    +0.000 HD
ATOM     10  H   UNL     1      47.135  -1.647   7.257  0.00  0.00    +0.000 HD
ENDBRANCH   7   8
ENDBRANCH   1   7
BRANCH   4  11
ATOM     11  O   UNL     1      45.183   5.248   8.771  0.00  0.00    +0.000 OA
BRANCH  11  12
ATOM     12  C   UNL     1      44.233   5.079   9.836  0.00  0.00    +0.000 C 
BRANCH  12  13
ATOM     13  C   UNL     1      44.773   5.709  11.135  0.00  0.00    +0.000 C 
ATOM     14  C   UNL     1      45.223   4.669  12.177  0.00  0.00    +0.000 C 
ATOM     15  C   UNL     1      44.033   3.930  12.788  0.00  0.00    +0.000 C 
ATOM     16  C   UNL     1      42.967   4.902  13.296  0.00  0.00    +0.000 C 
ATOM     17  N   UNL     1      42.567   5.871  12.275  0.00  0.00    +0.000 NA
ATOM     18  C   UNL     1      43.717   6.627  11.773  0.00  0.00    +0.000 C 
ATOM     19  H   UNL     1      41.880   6.514  12.669  0.00  0.00    +0.000 HD
ENDBRANCH  12  13
ENDBRANCH  11  12
ENDBRANCH   4  11
TORSDOF 5
ENDMDL
MODEL 4
REMARK VINA RESULT:    -5.540      4.152      6.310
REMARK INTER + INTRA:          -7.658
REMARK INTER:                  -7.082
REMARK INTRA:                  -0.576
REMARK UNBOUND:                -0.661
REMARK  Name = 
REMARK  5 active torsions:
REMARK  status: ('A' for Active; 'I' for Inactive)
REMARK    1  A    between atoms: N_1  and  C_2
REMARK    2  A    between atoms: C_2  and  C_3
REMARK    3  A    between atoms: C_6  and  O_7
REMARK    4  A    between atoms: O_7  and  C_8
REMARK    5  A    between atoms: C_8  and  C_9
REMARK                            x       y       z     vdW  Elec       q    Type
REMARK                         _______ _______ _______ _____ _____    ______ ____
ROOT
ATOM      1  C   UNL     1      44.418   4.877  11.939  0.00  0.00    +0.000 A 
ATOM      2  C   UNL     1      45.063   5.827  12.737  0.00  0.00    +0.000 A 
ATOM      3  C   UNL     1      46.085   5.425  13.603  0.00  0.00    +0.000 A 
ATOM      4  C   UNL     1      46.401   4.079  13.661  0.00  0.00    +0.000 A 
ATOM      5  N   UNL     1      45.769   3.134  12.944  0.00  0.00    +0.000 NA
ATOM      6  C   UNL     1      44.802   3.550  12.100  0.00  0.00    +0.000 A 
ENDROOT
BRANCH   1   7
ATOM      7  C   UNL     1      43.397   5.267  10.908  0.00  0.00    +0.000 C 
BRANCH   7   8
ATOM      8  N   UNL     1      42.793   6.555  11.234  0.00  0.00    +0.000 NA
ATOM      9  H   UNL     1      43.355   7.306  10.838  0.00  0.00    +0.000 HD
ATOM     10  H   UNL     1      42.809   6.683  12.246  0.00  0.00    +0.000 HD
ENDBRANCH   7   8
ENDBRANCH   1   7
BRANCH   4  11
ATOM     11  O   UNL     1      47.487   3.701  14.436  0.00  0.00    +0.000 OA
BRANCH  11  12
ATOM     12  C   UNL     1      47.664   4.564  15.571  0.00  0.00    +0.000 C 
BRANCH  12  13
ATOM     13  C   UNL     1      47.663   3.738  16.873  0.00  0.00    +0.000 C 
ATOM     14  C   UNL     1      48.611   4.295  17.950  0.00  0.00    +0.000 C 
ATOM     15  C   UNL     1      50.078   4.082  17.576  0.00  0.00    +0.000 C 
ATOM     16  C   UNL     1      50.355   2.629  17.190  0.00  0.00    +0.000 C 
ATOM     17  N   UNL     1      49.434   2.140  16.163  0.00  0.00    +0.000 NA
ATOM     18  C   UNL     1      48.038   2.275  16.588  0.00  0.00    +0.000 C 
ATOM     19  H   UNL     1      49.638   1.162  15.963  0.00  0.00    +0.000 HD
ENDBRANCH  12  13
ENDBRANCH  11  12
ENDBRANCH   4  11
TORSDOF 5
ENDMDL
MODEL 5
REMARK VINA RESULT:    -5.444      2.320      6.010
REMARK INTER + INTRA:          -7.537
REMARK INTER:                  -7.156
REMARK INTRA:                  -0.381
REMARK UNBOUND:                -0.661
REMARK  Name = 
REMARK  5 active torsions:
REMARK  status: ('A' for Active; 'I' for Inactive)
REMARK    1  A    between atoms: N_1  and  C_2
REMARK    2  A    between atoms: C_2  and  C_3
REMARK    3  A    between atoms: C_6  and  O_7
REMARK    4  A    between atoms: O_7  and  C_8
REMARK    5  A    between atoms: C_8  and  C_9
REMARK                            x       y       z     vdW  Elec       q    Type
REMARK                         _______ _______ _______ _____ _____    ______ ____
ROOT
ATOM      1  C   UNL     1      45.275   7.286  12.402  0.00  0.00    +0.000 A 
ATOM      2  C   UNL     1      46.005   6.222  12.941  0.00  0.00    +0.000 A 
ATOM      3  C   UNL     1      45.655   4.908  12.616  0.00  0.00    +0.000 A 
ATOM      4  C   UNL     1      44.566   4.707  11.785  0.00  0.00    +0.000 A 
ATOM      5  N   UNL     1      43.814   5.705  11.289  0.00  0.00    +0.000 NA
ATOM      6  C   UNL     1      44.186   6.964  11.600  0.00  0.00    +0.000 A 
ENDROOT
BRANCH   1   7
ATOM      7  C   UNL     1      45.677   8.717  12.622  0.00  0.00    +0.000 C 
BRANCH   7   8
ATOM      8  N   UNL     1      46.451   8.857  13.852  0.00  0.00    +0.000 NA
ATOM      9  H   UNL     1      45.883   8.572  14.647  0.00  0.00    +0.000 HD
ATOM     10  H   UNL     1      46.676   9.842  13.993  0.00  0.00    +0.000 HD
ENDBRANCH   7   8
ENDBRANCH   1   7
BRANCH   4  11
ATOM     11  O   UNL     1      44.292   3.410  11.377  0.00  0.00    +0.000 OA
BRANCH  11  12
ATOM     12  C   UNL     1      45.294   2.907  10.478  0.00  0.00    +0.000 C 
BRANCH  12  13
ATOM     13  C   UNL     1      44.658   2.545   9.121  0.00  0.00    +0.000 C 
ATOM     14  C   UNL     1      45.414   1.435   8.369  0.00  0.00    +0.000 C 
ATOM     15  C   UNL     1      46.760   1.927   7.839  0.00  0.00    +0.000 C 
ATOM     16  C   UNL     1      46.611   3.227   7.047  0.00  0.00    +0.000 C 
ATOM     17  N   UNL     1      45.890   4.256   7.798  0.00  0.00    +0.000 NA
ATOM     18  C   UNL     1      44.567   3.785   8.216  0.00  0.00    +0.000 C 
ATOM     19  H   UNL     1      45.790   5.089   7.220  0.00  0.00    +0.000 HD
ENDBRANCH  12  13
ENDBRANCH  11  12
ENDBRANCH   4  11
TORSDOF 5
ENDMDL
MODEL 6
REMARK VINA RESULT:    -5.218      4.413      8.020
REMARK INTER + INTRA:          -7.252
REMARK INTER:                  -6.683
REMARK INTRA:                  -0.569
REMARK UNBOUND:                -0.661
REMARK  Name = 
REMARK  5 active torsions:
REMARK  status: ('A' for Active; 'I' for Inactive)
REMARK    1  A    between atoms: N_1  and  C_2
REMARK    2  A    between atoms: C_2  and  C_3
REMARK    3  A    between atoms: C_6  and  O_7
REMARK    4  A    between atoms: O_7  and  C_8
REMARK    5  A    between atoms: C_8  and  C_9
REMARK                            x       y       z     vdW  Elec       q    Type
REMARK                         _______ _______ _______ _____ _____    ______ ____
ROOT
ATOM      1  C   UNL     1      48.528   4.476  18.232  0.00  0.00    +0.000 A 
ATOM      2  C   UNL     1      48.703   5.420  17.216  0.00  0.00    +0.000 A 
ATOM      3  C   UNL     1      48.026   5.262  16.002  0.00  0.00    +0.000 A 
ATOM      4  C   UNL     1      47.223   4.147  15.840  0.00  0.00    +0.000 A 
ATOM      5  N   UNL     1      47.072   3.196  16.778  0.00  0.00    +0.000 NA
ATOM      6  C   UNL     1      47.718   3.382  17.948  0.00  0.00    +0.000 A 
ENDROOT
BRANCH   1   7
ATOM      7  C   UNL     1      49.136   4.654  19.595  0.00  0.00    +0.000 C 
BRANCH   7   8
ATOM      8  N   UNL     1      48.535   3.736  20.558  0.00  0.00    +0.000 NA
ATOM      9  H   UNL     1      48.792   2.780  20.323  0.00  0.00    +0.000 HD
ATOM     10  H   UNL     1      47.520   3.792  20.481  0.00  0.00    +0.000 HD
ENDBRANCH   7   8
ENDBRANCH   1   7
BRANCH   4  11
ATOM     11  O   UNL     1      46.469   4.054  14.680  0.00  0.00    +0.000 OA
BRANCH  11  12
ATOM     12  C   UNL     1      46.654   5.193  13.825  0.00  0.00    +0.000 C 
BRANCH  12  13
ATOM     13  C   UNL     1      46.091   4.902  12.420  0.00  0.00    +0.000 C 
ATOM     14  C   UNL     1      45.145   6.000  11.902  0.00  0.00    +0.000 C 
ATOM     15  C   UNL     1      43.816   6.005  12.658  0.00  0.00    +0.000 C 
ATOM     16  C   UNL     1      43.189   4.611  12.702  0.00  0.00    +0.000 C 
ATOM     17  N   UNL     1      44.120   3.598  13.201  0.00  0.00    +0.000 NA
ATOM     18  C   UNL     1      45.347   3.557  12.402  0.00  0.00    +0.000 C 
ATOM     19  H   UNL     1      43.668   2.684  13.183  0.00  0.00    +0.000 HD
ENDBRANCH  12  13
ENDBRANCH  11  12
ENDBRANCH   4  11
TORSDOF 5
ENDMDL
MODEL 7
REMARK VINA RESULT:    -5.189      3.524      6.551
REMARK INTER + INTRA:          -7.215
REMARK INTER:                  -6.349
REMARK INTRA:                  -0.866
REMARK UNBOUND:                -0.661
REMARK  Name = 
REMARK  5 active torsions:
REMARK  status: ('A' for Active; 'I' for Inactive)
REMARK    1  A    between atoms: N_1  and  C_2
REMARK    2  A    between atoms: C_2  and  C_3
REMARK    3  A    between atoms: C_6  and  O_7
REMARK    4  A    between atoms: O_7  and  C_8
REMARK    5  A    between atoms: C_8  and  C_9
REMARK                            x       y       z     vdW  Elec       q    Type
REMARK                         _______ _______ _______ _____ _____    ______ ____
ROOT
ATOM      1  C   UNL     1      47.611   4.514  16.059  0.00  0.00    +0.000 A 
ATOM      2  C   UNL     1      48.147   5.734  15.636  0.00  0.00    +0.000 A 
ATOM      3  C   UNL     1      47.881   6.195  14.342  0.00  0.00    +0.000 A 
ATOM      4  C   UNL     1      47.111   5.401  13.510  0.00  0.00    +0.000 A 
ATOM      5  N   UNL     1      46.621   4.202  13.870  0.00  0.00    +0.000 NA
ATOM      6  C   UNL     1      46.874   3.789  15.130  0.00  0.00    +0.000 A 
ENDROOT
BRANCH   1   7
ATOM      7  C   UNL     1      47.766   4.026  17.472  0.00  0.00    +0.000 C 
BRANCH   7   8
ATOM      8  N   UNL     1      46.784   2.991  17.777  0.00  0.00    +0.000 NA
ATOM      9  H   UNL     1      47.049   2.122  17.317  0.00  0.00    +0.000 HD
ATOM     10  H   UNL     1      45.882   3.263  17.386  0.00  0.00    +0.000 HD
ENDBRANCH   7   8
ENDBRANCH   1   7
BRANCH   4  11
ATOM     11  O   UNL     1      46.757   5.912  12.271  0.00  0.00    +0.000 OA
BRANCH  11  12
ATOM     12  C   UNL     1      45.484   6.578  12.308  0.00  0.00    +0.000 C 
BRANCH  12  13
ATOM     13  C   UNL     1      44.641   6.183  11.079  0.00  0.00    +0.000 C 
ATOM     14  C   UNL     1      43.133   6.097  11.375  0.00  0.00    +0.000 C 
ATOM     15  C   UNL     1      42.797   4.889  12.249  0.00  0.00    +0.000 C 
ATOM     16  C   UNL     1      43.397   3.601  11.684  0.00  0.00    +0.000 C 
ATOM     17  N   UNL     1      44.831   3.725  11.419  0.00  0.00    +0.000 NA
ATOM     18  C   UNL     1      45.113   4.836  10.507  0.00  0.00    +0.000 C 
ATOM     19  H   UNL     1      45.177   2.855  11.016  0.00  0.00    +0.000 HD
ENDBRANCH  12  13
ENDBRANCH  11  12
ENDBRANCH   4  11
TORSDOF 5
ENDMDL
MODEL 8
REMARK VINA RESULT:    -5.107      3.470      5.767
REMARK INTER + INTRA:          -7.111
REMARK INTER:                  -6.519
REMARK INTRA:                  -0.592
REMARK UNBOUND:                -0.661
REMARK  Name = 
REMARK  5 active torsions:
REMARK  status: ('A' for Active; 'I' for Inactive)
REMARK    1  A    between atoms: N_1  and  C_2
REMARK    2  A    between atoms: C_2  and  C_3
REMARK    3  A    between atoms: C_6  and  O_7
REMARK    4  A    between atoms: O_7  and  C_8
REMARK    5  A    between atoms: C_8  and  C_9
REMARK                            x       y       z     vdW  Elec       q    Type
REMARK                         _______ _______ _______ _____ _____    ______ ____
ROOT
ATOM      1  C   UNL     1      48.506   7.495  12.674  0.00  0.00    +0.000 A 
ATOM      2  C   UNL     1      47.473   8.264  12.131  0.00  0.00    +0.000 A 
ATOM      3  C   UNL     1      46.150   7.822  12.242  0.00  0.00    +0.000 A 
ATOM      4  C   UNL     1      45.915   6.610  12.867  0.00  0.00    +0.000 A 
ATOM      5  N   UNL     1      46.890   5.824  13.358  0.00  0.00    +0.000 NA
ATOM      6  C   UNL     1      48.155   6.283  13.257  0.00  0.00    +0.000 A 
ENDROOT
BRANCH   1   7
ATOM      7  C   UNL     1      49.930   7.975  12.688  0.00  0.00    +0.000 C 
BRANCH   7   8
ATOM      8  N   UNL     1      50.616   7.536  13.899  0.00  0.00    +0.000 NA
ATOM      9  H   UNL     1      51.098   8.326  14.324  0.00  0.00    +0.000 HD
ATOM     10  H   UNL     1      51.335   6.858  13.647  0.00  0.00    +0.000 HD
ENDBRANCH   7   8
ENDBRANCH   1   7
BRANCH   4  11
ATOM     11  O   UNL     1      44.597   6.231  13.074  0.00  0.00    +0.000 OA
BRANCH  11  12
ATOM     12  C   UNL     1      44.458   4.806  13.184  0.00  0.00    +0.000 C 
BRANCH  12  13
ATOM     13  C   UNL     1      43.226   4.328  12.389  0.00  0.00    +0.000 C 
ATOM     14  C   UNL     1      43.427   2.958  11.717  0.00  0.00    +0.000 C 
ATOM     15  C   UNL     1      44.405   3.041  10.545  0.00  0.00    +0.000 C 
ATOM     16  C   UNL     1      44.029   4.163   9.576  0.00  0.00    +0.000 C 
ATOM     17  N   UNL     1      43.850   5.447  10.256  0.00  0.00    +0.000 NA
ATOM     18  C   UNL     1      42.841   5.358  11.314  0.00  0.00    +0.000 C 
ATOM     19  H   UNL     1      43.571   6.154   9.575  0.00  0.00    +0.000 HD
ENDBRANCH  12  13
ENDBRANCH  11  12
ENDBRANCH   4  11
TORSDOF 5
ENDMDL
MODEL 9
REMARK VINA RESULT:    -5.020      3.203      6.466
REMARK INTER + INTRA:          -7.002
REMARK INTER:                  -6.661
REMARK INTRA:                  -0.341
REMARK UNBOUND:                -0.661
REMARK  Name = 
REMARK  5 active torsions:
REMARK  status: ('A' for Active; 'I' for Inactive)
REMARK    1  A    between atoms: N_1  and  C_2
REMARK    2  A    between atoms: C_2  and  C_3
REMARK    3  A    between atoms: C_6  and  O_7
REMARK    4  A    between atoms: O_7  and  C_8
REMARK    5  A    between atoms: C_8  and  C_9
REMARK                            x       y       z     vdW  Elec       q    Type
REMARK                         _______ _______ _______ _____ _____    ______ ____
ROOT
ATOM      1  C   UNL     1      48.329   5.948  15.296  0.00  0.00    +0.000 A 
ATOM      2  C   UNL     1      47.952   6.305  13.998  0.00  0.00    +0.000 A 
ATOM      3  C   UNL     1      46.925   5.603  13.358  0.00  0.00    +0.000 A 
ATOM      4  C   UNL     1      46.335   4.548  14.032  0.00  0.00    +0.000 A 
ATOM      5  N   UNL     1      46.707   4.148  15.260  0.00  0.00    +0.000 NA
ATOM      6  C   UNL     1      47.685   4.855  15.865  0.00  0.00    +0.000 A 
ENDROOT
BRANCH   1   7
ATOM      7  C   UNL     1      49.343   6.739  16.074  0.00  0.00    +0.000 C 
BRANCH   7   8
ATOM      8  N   UNL     1      50.637   6.734  15.399  0.00  0.00    +0.000 NA
ATOM      9  H   UNL     1      50.602   7.346  14.587  0.00  0.00    +0.000 HD
ATOM     10  H   UNL     1      50.825   5.795  15.048  0.00  0.00    +0.000 HD
ENDBRANCH   7   8
ENDBRANCH   1   7
BRANCH   4  11
ATOM     11  O   UNL     1      45.245   3.928  13.440  0.00  0.00    +0.000 OA
BRANCH  11  12
ATOM     12  C   UNL     1      45.516   3.547  12.081  0.00  0.00    +0.000 C 
BRANCH  12  13
ATOM     13  C   UNL     1      44.233   3.650  11.233  0.00  0.00    +0.000 C 
ATOM     14  C   UNL     1      44.082   2.508  10.212  0.00  0.00    +0.000 C 
ATOM     15  C   UNL     1      45.091   2.633   9.071  0.00  0.00    +0.000 C 
ATOM     16  C   UNL     1      45.069   4.032   8.452  0.00  0.00    +0.000 C 
ATOM     17  N   UNL     1      45.217   5.087   9.456  0.00  0.00    +0.000 NA
ATOM     18  C   UNL     1      44.181   4.993  10.488  0.00  0.00    +0.000 C 
ATOM     19  H   UNL     1      45.165   5.997   9.000  0.00  0.00    +0.000 HD
ENDBRANCH  12  13
ENDBRANCH  11  12
ENDBRANCH   4  11
TORSDOF 5
ENDMDL
