MODEL 1
REMARK VINA RESULT:    -8.727      0.000      0.000
REMARK INTER + INTRA:         -11.290
REMARK INTER:                 -10.768
REMARK INTRA:                  -0.523
REMARK UNBOUND:                -0.523
REMARK  Name = 
REMARK  4 active torsions:
REMARK  status: ('A' for Active; 'I' for Inactive)
REMARK    1  A    between atoms: C_2  and  C_4
REMARK    2  A    between atoms: N_8  and  C_9
REMARK    3  A    between atoms: C_9  and  C_10
REMARK    4  A    between atoms: C_14  and  C_15
REMARK                            x       y       z     vdW  Elec       q    Type
REMARK                         _______ _______ _______ _____ _____    ______ ____
ROOT
ATOM      1  C   UNL     1      43.517   3.653  11.117  0.00  0.00    +0.000 C 
ENDROOT
BRANCH   1   6
ATOM      2  C   UNL     1      46.629   2.453   7.211  0.00  0.00    +0.000 A 
ATOM      3  C   UNL     1      46.128   3.677   7.639  0.00  0.00    +0.000 A 
ATOM      4  C   UNL     1      45.284   3.711   8.748  0.00  0.00    +0.000 A 
ATOM      5  C   UNL     1      44.952   2.531   9.409  0.00  0.00    +0.000 A 
ATOM      6  N   UNL     1      44.157   2.499  10.516  0.00  0.00    +0.000 N 
ATOM      7  N   UNL     1      45.416   1.339   8.984  0.00  0.00    +0.000 NA
ATOM      8  C   UNL     1      46.231   1.318   7.896  0.00  0.00    +0.000 A 
ATOM      9  H   UNL     1      43.961   1.586  10.914  0.00  0.00    +0.000 HD
BRANCH   2  11
ATOM     10  N   UNL     1      47.464   3.291   5.094  0.00  0.00    +0.000 N 
ATOM     11  C   UNL     1      47.549   2.330   6.063  0.00  0.00    +0.000 C 
ATOM     12  O   UNL     1      48.377   1.431   5.997  0.00  0.00    +0.000 OA
ATOM     13  H   UNL     1      48.168   3.262   4.367  0.00  0.00    +0.000 HD
ATOM     14  H   UNL     1      46.982   4.167   5.239  0.00  0.00    +0.000 HD
ENDBRANCH   2  11
ENDBRANCH   1   6
BRANCH   1  15
ATOM     15  C   UNL     1      44.464   4.512  11.940  0.00  0.00    +0.000 A 
ATOM     16  N   UNL     1      45.203   3.928  12.906  0.00  0.00    +0.000 NA
ATOM     17  C   UNL     1      46.007   4.738  13.611  0.00  0.00    +0.000 A 
ATOM     18  C   UNL     1      46.104   6.092  13.387  0.00  0.00    +0.000 A 
ATOM     19  C   UNL     1      45.324   6.614  12.371  0.00  0.00    +0.000 A 
ATOM     20  N   UNL     1      44.495   5.831  11.647  0.00  0.00    +0.000 NA
BRANCH  19  21
ATOM     21  C   UNL     1      45.322   8.051  12.021  0.00  0.00    +0.000 A 
ATOM     22  C   UNL     1      46.330   8.929  12.469  0.00  0.00    +0.000 A 
ATOM     23  C   UNL     1      46.305  10.294  12.161  0.00  0.00    +0.000 A 
ATOM     24  C   UNL     1      45.272  10.811  11.387  0.00  0.00    +0.000 A 
ATOM     25  C   UNL     1      44.284   9.956  10.918  0.00  0.00    +0.000 A 
ATOM     26  F   UNL     1      43.292  10.451  10.166  0.00  0.00    +0.000 F 
ATOM     27  C   UNL     1      44.302   8.598  11.220  0.00  0.00    +0.000 A 
ENDBRANCH  19  21
ENDBRANCH   1  15
TORSDOF 4
ENDMDL
MODEL 2
REMARK VINA RESULT:    -8.122      2.728      4.183
REMARK INTER + INTRA:         -10.544
REMARK INTER:                 -10.276
REMARK INTRA:                  -0.268
REMARK UNBOUND:                -0.523
REMARK  Name = 
REMARK  4 active torsions:
REMARK  status: ('A' for Active; 'I' for Inactive)
REMARK    1  A    between atoms: C_2  and  C_4
REMARK    2  A    between atoms: N_8  and  C_9
REMARK    3  A    between atoms: C_9  and  C_10
REMARK    4  A    between atoms: C_14  and  C_15
REMARK                            x       y       z     vdW  Elec       q    Type
REMARK                         _______ _______ _______ _____ _____    ______ ____
ROOT
ATOM      1  C   UNL     1      43.677   3.759  11.206  0.00  0.00    +0.000 C 
ENDROOT
BRANCH   1   6
ATOM      2  C   UNL     1      46.636   2.518   7.195  0.00  0.00    +0.000 A 
ATOM      3  C   UNL     1      46.051   3.724   7.561  0.00  0.00    +0.000 A 
ATOM      4  C   UNL     1      45.279   3.776   8.721  0.00  0.00    +0.000 A 
ATOM      5  C   UNL     1      45.101   2.630   9.493  0.00  0.00    +0.000 A 
ATOM      6  N   UNL     1      44.384   2.620  10.652  0.00  0.00    +0.000 N 
ATOM      7  N   UNL     1      45.647   1.453   9.129  0.00  0.00    +0.000 NA
ATOM      8  C   UNL     1      46.391   1.414   7.992  0.00  0.00    +0.000 A 
ATOM      9  H   UNL     1      44.300   1.730  11.132  0.00  0.00    +0.000 HD
BRANCH   2  11
ATOM     10  N   UNL     1      47.350   3.332   5.025  0.00  0.00    +0.000 N 
ATOM     11  C   UNL     1      47.489   2.382   5.998  0.00  0.00    +0.000 C 
ATOM     12  O   UNL     1      48.312   1.481   5.895  0.00  0.00    +0.000 OA
ATOM     13  H   UNL     1      48.013   3.294   4.260  0.00  0.00    +0.000 HD
ATOM     14  H   UNL     1      46.878   4.210   5.187  0.00  0.00    +0.000 HD
ENDBRANCH   2  11
ENDBRANCH   1   6
BRANCH   1  15
ATOM     15  C   UNL     1      44.598   4.874  11.677  0.00  0.00    +0.000 A 
ATOM     16  N   UNL     1      44.623   6.034  10.989  0.00  0.00    +0.000 NA
ATOM     17  C   UNL     1      45.467   6.974  11.441  0.00  0.00    +0.000 A 
ATOM     18  C   UNL     1      46.272   6.805  12.543  0.00  0.00    +0.000 A 
ATOM     19  C   UNL     1      46.179   5.592  13.202  0.00  0.00    +0.000 A 
ATOM     20  N   UNL     1      45.349   4.618  12.771  0.00  0.00    +0.000 NA
BRANCH  19  21
ATOM     21  C   UNL     1      46.986   5.268  14.399  0.00  0.00    +0.000 A 
ATOM     22  C   UNL     1      47.906   6.184  14.948  0.00  0.00    +0.000 A 
ATOM     23  C   UNL     1      48.690   5.859  16.061  0.00  0.00    +0.000 A 
ATOM     24  C   UNL     1      48.564   4.609  16.656  0.00  0.00    +0.000 A 
ATOM     25  C   UNL     1      47.646   3.703  16.142  0.00  0.00    +0.000 A 
ATOM     26  F   UNL     1      47.518   2.500  16.718  0.00  0.00    +0.000 F 
ATOM     27  C   UNL     1      46.863   4.019  15.036  0.00  0.00    +0.000 A 
ENDBRANCH  19  21
ENDBRANCH   1  15
TORSDOF 4
ENDMDL
MODEL 3
REMARK VINA RESULT:    -8.072      1.919      2.266
REMARK INTER + INTRA:         -10.482
REMARK INTER:                  -9.990
REMARK INTRA:                  -0.492
REMARK UNBOUND:                -0.523
REMARK  Name = 
REMARK  4 active torsions:
REMARK  status: ('A' for Active; 'I' for Inactive)
REMARK    1  A    between atoms: C_2  and  C_4
REMARK    2  A    between atoms: N_8  and  C_9
REMARK    3  A    between atoms: C_9  and  C_10
REMARK    4  A    between atoms: C_14  and  C_15
REMARK                            x       y       z     vdW  Elec       q    Type
REMARK                         _______ _______ _______ _____ _____    ______ ____
ROOT
ATOM      1  C   UNL     1      43.940   4.375  11.512  0.00  0.00    +0.000 C 
ENDROOT
BRANCH   1   6
ATOM      2  C   UNL     1      46.501   2.961   7.290  0.00  0.00    +0.000 A 
ATOM      3  C   UNL     1      46.315   4.209   7.872  0.00  0.00    +0.000 A 
ATOM      4  C   UNL     1      45.556   4.305   9.038  0.00  0.00    +0.000 A 
ATOM      5  C   UNL     1      44.996   3.161   9.602  0.00  0.00    +0.000 A 
ATOM      6  N   UNL     1      44.270   3.183  10.755  0.00  0.00    +0.000 N 
ATOM      7  N   UNL     1      45.154   1.952   9.028  0.00  0.00    +0.000 NA
ATOM      8  C   UNL     1      45.889   1.873   7.888  0.00  0.00    +0.000 A 
ATOM      9  H   UNL     1      43.890   2.297  11.074  0.00  0.00    +0.000 HD
BRANCH   2  11
ATOM     10  N   UNL     1      48.637   2.480   6.246  0.00  0.00    +0.000 N 
ATOM     11  C   UNL     1      47.311   2.766   6.071  0.00  0.00    +0.000 C 
ATOM     12  O   UNL     1      46.813   2.819   4.954  0.00  0.00    +0.000 OA
ATOM     13  H   UNL     1      49.160   2.241   5.413  0.00  0.00    +0.000 HD
ATOM     14  H   UNL     1      49.015   2.183   7.134  0.00  0.00    +0.000 HD
ENDBRANCH   2  11
ENDBRANCH   1   6
BRANCH   1  15
ATOM     15  C   UNL     1      45.086   4.882  12.374  0.00  0.00    +0.000 A 
ATOM     16  N   UNL     1      45.509   4.125  13.408  0.00  0.00    +0.000 NA
ATOM     17  C   UNL     1      46.510   4.631  14.144  0.00  0.00    +0.000 A 
ATOM     18  C   UNL     1      47.100   5.847  13.887  0.00  0.00    +0.000 A 
ATOM     19  C   UNL     1      46.619   6.557  12.803  0.00  0.00    +0.000 A 
ATOM     20  N   UNL     1      45.606   6.085  12.045  0.00  0.00    +0.000 NA
BRANCH  19  21
ATOM     21  C   UNL     1      47.155   7.879  12.410  0.00  0.00    +0.000 A 
ATOM     22  C   UNL     1      46.372   9.050  12.473  0.00  0.00    +0.000 A 
ATOM     23  C   UNL     1      46.875  10.292  12.068  0.00  0.00    +0.000 A 
ATOM     24  C   UNL     1      48.180  10.392  11.600  0.00  0.00    +0.000 A 
ATOM     25  C   UNL     1      48.973   9.253  11.555  0.00  0.00    +0.000 A 
ATOM     26  F   UNL     1      50.233   9.348  11.110  0.00  0.00    +0.000 F 
ATOM     27  C   UNL     1      48.479   8.015  11.954  0.00  0.00    +0.000 A 
ENDBRANCH  19  21
ENDBRANCH   1  15
TORSDOF 4
ENDMDL
MODEL 4
REMARK VINA RESULT:    -8.070      4.063      7.303
REMARK INTER + INTRA:         -10.480
REMARK INTER:                  -9.893
REMARK INTRA:                  -0.588
REMARK UNBOUND:                -0.523
REMARK  Name = 
REMARK  4 active torsions:
REMARK  status: ('A' for Active; 'I' for Inactive)
REMARK    1  A    between atoms: C_2  and  C_4
REMARK    2  A    between atoms: N_8  and  C_9
REMARK    3  A    between atoms: C_9  and  C_10
REMARK    4  A    between atoms: C_14  and  C_15
REMARK                            x       y       z     vdW  Elec       q    Type
REMARK                         _______ _______ _______ _____ _____    ______ ____
ROOT
ATOM      1  C   UNL     1      44.845   6.722  12.023  0.00  0.00    +0.000 C 
ENDROOT
BRANCH   1   6
ATOM      2  C   UNL     1      49.768   7.927  12.857  0.00  0.00    +0.000 A 
ATOM      3  C   UNL     1      48.985   8.019  11.713  0.00  0.00    +0.000 A 
ATOM      4  C   UNL     1      47.653   7.609  11.771  0.00  0.00    +0.000 A 
ATOM      5  C   UNL     1      47.126   7.115  12.961  0.00  0.00    +0.000 A 
ATOM      6  N   UNL     1      45.826   6.726  13.091  0.00  0.00    +0.000 N 
ATOM      7  N   UNL     1      47.888   7.002  14.067  0.00  0.00    +0.000 NA
ATOM      8  C   UNL     1      49.186   7.397  13.996  0.00  0.00    +0.000 A 
ATOM      9  H   UNL     1      45.544   6.364  13.996  0.00  0.00    +0.000 HD
BRANCH   2  11
ATOM     10  N   UNL     1      51.959   7.859  13.895  0.00  0.00    +0.000 N 
ATOM     11  C   UNL     1      51.178   8.362  12.891  0.00  0.00    +0.000 C 
ATOM     12  O   UNL     1      51.640   9.111  12.039  0.00  0.00    +0.000 OA
ATOM     13  H   UNL     1      52.947   8.075  13.848  0.00  0.00    +0.000 HD
ATOM     14  H   UNL     1      51.683   7.060  14.447  0.00  0.00    +0.000 HD
ENDBRANCH   2  11
ENDBRANCH   1   6
BRANCH   1  15
ATOM     15  C   UNL     1      44.464   5.326  11.556  0.00  0.00    +0.000 A 
ATOM     16  N   UNL     1      43.520   4.645  12.238  0.00  0.00    +0.000 NA
ATOM     17  C   UNL     1      43.237   3.412  11.790  0.00  0.00    +0.000 A 
ATOM     18  C   UNL     1      43.850   2.842  10.699  0.00  0.00    +0.000 A 
ATOM     19  C   UNL     1      44.798   3.609  10.045  0.00  0.00    +0.000 A 
ATOM     20  N   UNL     1      45.116   4.850  10.473  0.00  0.00    +0.000 NA
BRANCH  19  21
ATOM     21  C   UNL     1      45.539   3.126   8.860  0.00  0.00    +0.000 A 
ATOM     22  C   UNL     1      45.960   4.000   7.836  0.00  0.00    +0.000 A 
ATOM     23  C   UNL     1      46.632   3.531   6.701  0.00  0.00    +0.000 A 
ATOM     24  C   UNL     1      46.907   2.175   6.569  0.00  0.00    +0.000 A 
ATOM     25  C   UNL     1      46.520   1.303   7.579  0.00  0.00    +0.000 A 
ATOM     26  F   UNL     1      46.790  -0.003   7.456  0.00  0.00    +0.000 F 
ATOM     27  C   UNL     1      45.851   1.762   8.710  0.00  0.00    +0.000 A 
ENDBRANCH  19  21
ENDBRANCH   1  15
TORSDOF 4
ENDMDL
MODEL 5
REMARK VINA RESULT:    -7.991      4.810      8.438
REMARK INTER + INTRA:         -10.382
REMARK INTER:                  -9.977
REMARK INTRA:                  -0.405
REMARK UNBOUND:                -0.523
REMARK  Name = 
REMARK  4 active torsions:
REMARK  status: ('A' for Active; 'I' for Inactive)
REMARK    1  A    between atoms: C_2  and  C_4
REMARK    2  A    between atoms: N_8  and  C_9
REMARK    3  A    between atoms: C_9  and  C_10
REMARK    4  A    between atoms: C_14  and  C_15
REMARK                            x       y       z     vdW  Elec       q    Type
REMARK                         _______ _______ _______ _____ _____    ______ ____
ROOT
ATOM      1  C   UNL     1      46.304   5.348  13.636  0.00  0.00    +0.000 C 
ENDROOT
BRANCH   1   6
ATOM      2  C   UNL     1      48.603   4.438  18.139  0.00  0.00    +0.000 A 
ATOM      3  C   UNL     1      48.653   5.539  17.293  0.00  0.00    +0.000 A 
ATOM      4  C   UNL     1      47.917   5.515  16.108  0.00  0.00    +0.000 A 
ATOM      5  C   UNL     1      47.148   4.399  15.787  0.00  0.00    +0.000 A 
ATOM      6  N   UNL     1      46.384   4.325  14.660  0.00  0.00    +0.000 N 
ATOM      7  N   UNL     1      47.116   3.320  16.592  0.00  0.00    +0.000 NA
ATOM      8  C   UNL     1      47.844   3.352  17.740  0.00  0.00    +0.000 A 
ATOM      9  H   UNL     1      45.874   3.461  14.509  0.00  0.00    +0.000 HD
BRANCH   2  11
ATOM     10  N   UNL     1      48.651   3.894  20.502  0.00  0.00    +0.000 N 
ATOM     11  C   UNL     1      49.329   4.391  19.423  0.00  0.00    +0.000 C 
ATOM     12  O   UNL     1      50.498   4.744  19.513  0.00  0.00    +0.000 OA
ATOM     13  H   UNL     1      49.187   3.764  21.350  0.00  0.00    +0.000 HD
ATOM     14  H   UNL     1      47.793   3.369  20.408  0.00  0.00    +0.000 HD
ENDBRANCH   2  11
ENDBRANCH   1   6
BRANCH   1  15
ATOM     15  C   UNL     1      45.290   5.039  12.547  0.00  0.00    +0.000 A 
ATOM     16  N   UNL     1      43.993   5.351  12.756  0.00  0.00    +0.000 NA
ATOM     17  C   UNL     1      43.141   5.039  11.767  0.00  0.00    +0.000 A 
ATOM     18  C   UNL     1      43.530   4.440  10.591  0.00  0.00    +0.000 A 
ATOM     19  C   UNL     1      44.878   4.164  10.448  0.00  0.00    +0.000 A 
ATOM     20  N   UNL     1      45.763   4.454  11.425  0.00  0.00    +0.000 NA
BRANCH  19  21
ATOM     21  C   UNL     1      45.438   3.520   9.240  0.00  0.00    +0.000 A 
ATOM     22  C   UNL     1      45.860   4.269   8.123  0.00  0.00    +0.000 A 
ATOM     23  C   UNL     1      46.359   3.651   6.970  0.00  0.00    +0.000 A 
ATOM     24  C   UNL     1      46.456   2.265   6.914  0.00  0.00    +0.000 A 
ATOM     25  C   UNL     1      46.068   1.513   8.014  0.00  0.00    +0.000 A 
ATOM     26  F   UNL     1      46.167   0.178   7.965  0.00  0.00    +0.000 F 
ATOM     27  C   UNL     1      45.570   2.121   9.163  0.00  0.00    +0.000 A 
ENDBRANCH  19  21
ENDBRANCH   1  15
TORSDOF 4
ENDMDL
MODEL 6
REMARK VINA RESULT:    -7.523      6.016      8.510
REMARK INTER + INTRA:          -9.805
REMARK INTER:                  -9.251
REMARK INTRA:                  -0.554
REMARK UNBOUND:                -0.523
REMARK  Name = 
REMARK  4 active torsions:
REMARK  status: ('A' for Active; 'I' for Inactive)
REMARK    1  A    between atoms: C_2  and  C_4
REMARK    2  A    between atoms: N_8  and  C_9
REMARK    3  A    between atoms: C_9  and  C_10
REMARK    4  A    between atoms: C_14  and  C_15
REMARK                            x       y       z     vdW  Elec       q    Type
REMARK                         _______ _______ _______ _____ _____    ______ ____
ROOT
ATOM      1  C   UNL     1      47.442   3.617  16.759  0.00  0.00    +0.000 C 
ENDROOT
BRANCH   1   6
ATOM      2  C   UNL     1      52.288   2.450  18.001  0.00  0.00    +0.000 A 
ATOM      3  C   UNL     1      51.543   3.604  18.210  0.00  0.00    +0.000 A 
ATOM      4  C   UNL     1      50.225   3.649  17.756  0.00  0.00    +0.000 A 
ATOM      5  C   UNL     1      49.674   2.550  17.102  0.00  0.00    +0.000 A 
ATOM      6  N   UNL     1      48.385   2.519  16.660  0.00  0.00    +0.000 N 
ATOM      7  N   UNL     1      50.400   1.438  16.875  0.00  0.00    +0.000 NA
ATOM      8  C   UNL     1      51.686   1.409  17.315  0.00  0.00    +0.000 A 
ATOM      9  H   UNL     1      48.085   1.677  16.180  0.00  0.00    +0.000 HD
BRANCH   2  11
ATOM     10  N   UNL     1      54.666   2.400  17.529  0.00  0.00    +0.000 N 
ATOM     11  C   UNL     1      53.680   2.308  18.472  0.00  0.00    +0.000 C 
ATOM     12  O   UNL     1      53.944   2.153  19.657  0.00  0.00    +0.000 OA
ATOM     13  H   UNL     1      55.618   2.411  17.873  0.00  0.00    +0.000 HD
ATOM     14  H   UNL     1      54.501   2.774  16.605  0.00  0.00    +0.000 HD
ENDBRANCH   2  11
ENDBRANCH   1   6
BRANCH   1  15
ATOM     15  C   UNL     1      47.433   4.519  15.535  0.00  0.00    +0.000 A 
ATOM     16  N   UNL     1      48.249   5.594  15.511  0.00  0.00    +0.000 NA
ATOM     17  C   UNL     1      48.185   6.364  14.414  0.00  0.00    +0.000 A 
ATOM     18  C   UNL     1      47.352   6.102  13.352  0.00  0.00    +0.000 A 
ATOM     19  C   UNL     1      46.556   4.975  13.446  0.00  0.00    +0.000 A 
ATOM     20  N   UNL     1      46.585   4.182  14.539  0.00  0.00    +0.000 NA
BRANCH  19  21
ATOM     21  C   UNL     1      45.610   4.572  12.383  0.00  0.00    +0.000 A 
ATOM     22  C   UNL     1      45.518   5.272  11.162  0.00  0.00    +0.000 A 
ATOM     23  C   UNL     1      44.598   4.905  10.173  0.00  0.00    +0.000 A 
ATOM     24  C   UNL     1      43.754   3.820  10.380  0.00  0.00    +0.000 A 
ATOM     25  C   UNL     1      43.847   3.105  11.567  0.00  0.00    +0.000 A 
ATOM     26  F   UNL     1      43.039   2.055  11.766  0.00  0.00    +0.000 F 
ATOM     27  C   UNL     1      44.760   3.465  12.555  0.00  0.00    +0.000 A 
ENDBRANCH  19  21
ENDBRANCH   1  15
TORSDOF 4
ENDMDL
MODEL 7
REMARK VINA RESULT:    -7.387      3.561      6.875
REMARK INTER + INTRA:          -9.637
REMARK INTER:                  -9.265
REMARK INTRA:                  -0.372
REMARK UNBOUND:                -0.523
REMARK  Name = 
REMARK  4 active torsions:
REMARK  status: ('A' for Active; 'I' for Inactive)
REMARK    1  A    between atoms: C_2  and  C_4
REMARK    2  A    between atoms: N_8  and  C_9
REMARK    3  A    between atoms: C_9  and  C_10
REMARK    4  A    between atoms: C_14  and  C_15
REMARK                            x       y       z     vdW  Elec       q    Type
REMARK                         _______ _______ _______ _____ _____    ______ ____
ROOT
ATOM      1  C   UNL     1      45.656   4.767  13.820  0.00  0.00    +0.000 C 
ENDROOT
BRANCH   1   6
ATOM      2  C   UNL     1      48.690   8.546  12.117  0.00  0.00    +0.000 A 
ATOM      3  C   UNL     1      47.310   8.477  12.265  0.00  0.00    +0.000 A 
ATOM      4  C   UNL     1      46.741   7.303  12.757  0.00  0.00    +0.000 A 
ATOM      5  C   UNL     1      47.551   6.220  13.090  0.00  0.00    +0.000 A 
ATOM      6  N   UNL     1      47.060   5.057  13.603  0.00  0.00    +0.000 N 
ATOM      7  N   UNL     1      48.887   6.273  12.926  0.00  0.00    +0.000 NA
ATOM      8  C   UNL     1      49.430   7.420  12.438  0.00  0.00    +0.000 A 
ATOM      9  H   UNL     1      47.732   4.322  13.796  0.00  0.00    +0.000 HD
BRANCH   2  11
ATOM     10  N   UNL     1      50.683   9.923  12.000  0.00  0.00    +0.000 N 
ATOM     11  C   UNL     1      49.377   9.758  11.629  0.00  0.00    +0.000 C 
ATOM     12  O   UNL     1      48.817  10.561  10.894  0.00  0.00    +0.000 OA
ATOM     13  H   UNL     1      51.178  10.697  11.574  0.00  0.00    +0.000 HD
ATOM     14  H   UNL     1      51.237   9.171  12.383  0.00  0.00    +0.000 HD
ENDBRANCH   2  11
ENDBRANCH   1   6
BRANCH   1  15
ATOM     15  C   UNL     1      44.832   4.768  12.542  0.00  0.00    +0.000 A 
ATOM     16  N   UNL     1      43.633   5.388  12.539  0.00  0.00    +0.000 NA
ATOM     17  C   UNL     1      42.943   5.340  11.389  0.00  0.00    +0.000 A 
ATOM     18  C   UNL     1      43.400   4.711  10.256  0.00  0.00    +0.000 A 
ATOM     19  C   UNL     1      44.644   4.109  10.335  0.00  0.00    +0.000 A 
ATOM     20  N   UNL     1      45.363   4.127  11.478  0.00  0.00    +0.000 NA
BRANCH  19  21
ATOM     21  C   UNL     1      45.260   3.393   9.197  0.00  0.00    +0.000 A 
ATOM     22  C   UNL     1      45.416   1.992   9.193  0.00  0.00    +0.000 A 
ATOM     23  C   UNL     1      46.030   1.324   8.128  0.00  0.00    +0.000 A 
ATOM     24  C   UNL     1      46.495   2.045   7.033  0.00  0.00    +0.000 A 
ATOM     25  C   UNL     1      46.329   3.423   7.010  0.00  0.00    +0.000 A 
ATOM     26  F   UNL     1      46.770   4.119   5.953  0.00  0.00    +0.000 F 
ATOM     27  C   UNL     1      45.719   4.094   8.066  0.00  0.00    +0.000 A 
ENDBRANCH  19  21
ENDBRANCH   1  15
TORSDOF 4
ENDMDL
MODEL 8
REMARK VINA RESULT:    -7.132      4.623      8.323
REMARK INTER + INTRA:          -9.322
REMARK INTER:                  -8.901
REMARK INTRA:                  -0.422
REMARK UNBOUND:                -0.523
REMARK  Name = 
REMARK  4 active torsions:
REMARK  status: ('A' for Active; 'I' for Inactive)
REMARK    1  A    between atoms: C_2  and  C_4
REMARK    2  A    between atoms: N_8  and  C_9
REMARK    3  A    between atoms: C_9  and  C_10
REMARK    4  A    between atoms: C_14  and  C_15
REMARK                            x       y       z     vdW  Elec       q    Type
REMARK                         _______ _______ _______ _____ _____    ______ ____
ROOT
ATOM      1  C   UNL     1      46.083   7.175  11.896  0.00  0.00    +0.000 C 
ENDROOT
BRANCH   1   6
ATOM      2  C   UNL     1      49.328   8.441  15.671  0.00  0.00    +0.000 A 
ATOM      3  C   UNL     1      48.279   9.145  15.092  0.00  0.00    +0.000 A 
ATOM      4  C   UNL     1      47.553   8.549  14.061  0.00  0.00    +0.000 A 
ATOM      5  C   UNL     1      47.883   7.269  13.624  0.00  0.00    +0.000 A 
ATOM      6  N   UNL     1      47.195   6.620  12.642  0.00  0.00    +0.000 N 
ATOM      7  N   UNL     1      48.914   6.592  14.166  0.00  0.00    +0.000 NA
ATOM      8  C   UNL     1      49.620   7.187  15.164  0.00  0.00    +0.000 A 
ATOM      9  H   UNL     1      47.527   5.696  12.385  0.00  0.00    +0.000 HD
BRANCH   2  11
ATOM     10  N   UNL     1      49.663   8.768  18.050  0.00  0.00    +0.000 N 
ATOM     11  C   UNL     1      50.130   8.986  16.784  0.00  0.00    +0.000 C 
ATOM     12  O   UNL     1      51.187   9.573  16.587  0.00  0.00    +0.000 OA
ATOM     13  H   UNL     1      50.272   9.048  18.809  0.00  0.00    +0.000 HD
ATOM     14  H   UNL     1      48.949   8.084  18.255  0.00  0.00    +0.000 HD
ENDBRANCH   2  11
ENDBRANCH   1   6
BRANCH   1  15
ATOM     15  C   UNL     1      45.188   6.119  11.265  0.00  0.00    +0.000 A 
ATOM     16  N   UNL     1      43.907   6.020  11.677  0.00  0.00    +0.000 NA
ATOM     17  C   UNL     1      43.170   5.060  11.098  0.00  0.00    +0.000 A 
ATOM     18  C   UNL     1      43.656   4.209  10.133  0.00  0.00    +0.000 A 
ATOM     19  C   UNL     1      44.976   4.382   9.756  0.00  0.00    +0.000 A 
ATOM     20  N   UNL     1      45.751   5.331  10.323  0.00  0.00    +0.000 NA
BRANCH  19  21
ATOM     21  C   UNL     1      45.633   3.539   8.733  0.00  0.00    +0.000 A 
ATOM     22  C   UNL     1      46.262   4.095   7.601  0.00  0.00    +0.000 A 
ATOM     23  C   UNL     1      46.854   3.290   6.620  0.00  0.00    +0.000 A 
ATOM     24  C   UNL     1      46.837   1.906   6.757  0.00  0.00    +0.000 A 
ATOM     25  C   UNL     1      46.242   1.343   7.878  0.00  0.00    +0.000 A 
ATOM     26  F   UNL     1      46.230   0.011   8.014  0.00  0.00    +0.000 F 
ATOM     27  C   UNL     1      45.652   2.138   8.856  0.00  0.00    +0.000 A 
ENDBRANCH  19  21
ENDBRANCH   1  15
TORSDOF 4
ENDMDL
MODEL 9
REMARK VINA RESULT:    -6.894      4.696      6.966
REMARK INTER + INTRA:          -9.028
REMARK INTER:                  -8.354
REMARK INTRA:                  -0.674
REMARK UNBOUND:                -0.523
REMARK  Name = 
REMARK  4 active torsions:
REMARK  status: ('A' for Active; 'I' for Inactive)
REMARK    1  A    between atoms: C_2  and  C_4
REMARK    2  A    between atoms: N_8  and  C_9
REMARK    3  A    between atoms: C_9  and  C_10
REMARK    4  A    between atoms: C_14  and  C_15
REMARK                            x       y       z     vdW  Elec       q    Type
REMARK                         _______ _______ _______ _____ _____    ______ ____
ROOT
ATOM      1  C   UNL     1      47.683   8.568  13.398  0.00  0.00    +0.000 C 
ENDROOT
BRANCH   1   6
ATOM      2  C   UNL     1      44.727   5.164  10.936  0.00  0.00    +0.000 A 
ATOM      3  C   UNL     1      45.915   5.782  10.564  0.00  0.00    +0.000 A 
ATOM      4  C   UNL     1      46.511   6.685  11.444  0.00  0.00    +0.000 A 
ATOM      5  C   UNL     1      45.917   6.958  12.673  0.00  0.00    +0.000 A 
ATOM      6  N   UNL     1      46.464   7.807  13.589  0.00  0.00    +0.000 N 
ATOM      7  N   UNL     1      44.753   6.380  13.028  0.00  0.00    +0.000 NA
ATOM      8  C   UNL     1      44.177   5.508  12.159  0.00  0.00    +0.000 A 
ATOM      9  H   UNL     1      45.943   7.952  14.448  0.00  0.00    +0.000 HD
BRANCH   2  11
ATOM     10  N   UNL     1      44.175   4.334   8.725  0.00  0.00    +0.000 N 
ATOM     11  C   UNL     1      44.043   4.177  10.078  0.00  0.00    +0.000 C 
ATOM     12  O   UNL     1      43.418   3.237  10.552  0.00  0.00    +0.000 OA
ATOM     13  H   UNL     1      43.796   3.594   8.147  0.00  0.00    +0.000 HD
ATOM     14  H   UNL     1      44.877   4.932   8.314  0.00  0.00    +0.000 HD
ENDBRANCH   2  11
ENDBRANCH   1   6
BRANCH   1  15
ATOM     15  C   UNL     1      48.847   8.070  14.239  0.00  0.00    +0.000 A 
ATOM     16  N   UNL     1      50.072   8.598  14.036  0.00  0.00    +0.000 NA
ATOM     17  C   UNL     1      51.064   8.107  14.795  0.00  0.00    +0.000 A 
ATOM     18  C   UNL     1      50.881   7.126  15.740  0.00  0.00    +0.000 A 
ATOM     19  C   UNL     1      49.594   6.645  15.899  0.00  0.00    +0.000 A 
ATOM     20  N   UNL     1      48.572   7.107  15.146  0.00  0.00    +0.000 NA
BRANCH  19  21
ATOM     21  C   UNL     1      49.249   5.588  16.874  0.00  0.00    +0.000 A 
ATOM     22  C   UNL     1      50.012   5.371  18.039  0.00  0.00    +0.000 A 
ATOM     23  C   UNL     1      49.699   4.347  18.942  0.00  0.00    +0.000 A 
ATOM     24  C   UNL     1      48.607   3.522  18.702  0.00  0.00    +0.000 A 
ATOM     25  C   UNL     1      47.830   3.736  17.572  0.00  0.00    +0.000 A 
ATOM     26  F   UNL     1      46.773   2.947  17.342  0.00  0.00    +0.000 F 
ATOM     27  C   UNL     1      48.136   4.752  16.670  0.00  0.00    +0.000 A 
ENDBRANCH  19  21
ENDBRANCH   1  15
TORSDOF 4
ENDMDL
