MODEL 1
REMARK VINA RESULT:    -8.517      0.000      0.000
REMARK INTER + INTRA:         -11.231
REMARK INTER:                 -10.758
REMARK INTRA:                  -0.474
REMARK UNBOUND:                -0.474
REMARK  Name = 
REMARK  5 active torsions:
REMARK  status: ('A' for Active; 'I' for Inactive)
REMARK    1  A    between atoms: C_2  and  C_4
REMARK    2  A    between atoms: N_8  and  C_9
REMARK    3  A    between atoms: C_9  and  C_10
REMARK    4  A    between atoms: C_10  and  O_11
REMARK    5  A    between atoms: C_10  and  C_12
REMARK                            x       y       z     vdW  Elec       q    Type
REMARK                         _______ _______ _______ _____ _____    ______ ____
ROOT
ATOM      1  C   UNL     1      46.243   2.128   7.960  0.00  0.00    +0.000 A 
ATOM      2  C   UNL     1      46.373   3.473   7.626  0.00  0.00    +0.000 A 
ATOM      3  C   UNL     1      45.554   4.406   8.255  0.00  0.00    +0.000 A 
ATOM      4  C   UNL     1      44.643   3.990   9.226  0.00  0.00    +0.000 A 
ATOM      5  N   UNL     1      43.999   4.981   9.958  0.00  0.00    +0.000 N 
ATOM      6  N   UNL     1      44.486   2.689   9.532  0.00  0.00    +0.000 NA
ATOM      7  C   UNL     1      45.269   1.782   8.884  0.00  0.00    +0.000 A 
ATOM      8  H   UNL     1      43.511   5.659   9.381  0.00  0.00    +0.000 HD
ENDROOT
BRANCH   1  10
ATOM      9  N   UNL     1      46.795  -0.222   7.690  0.00  0.00    +0.000 N 
ATOM     10  C   UNL     1      47.100   1.075   7.381  0.00  0.00    +0.000 C 
ATOM     11  O   UNL     1      48.021   1.346   6.620  0.00  0.00    +0.000 OA
ATOM     12  H   UNL     1      47.319  -0.935   7.198  0.00  0.00    +0.000 HD
ATOM     13  H   UNL     1      45.905  -0.491   8.085  0.00  0.00    +0.000 HD
ENDBRANCH   1  10
BRANCH   5  14
ATOM     14  C   UNL     1      43.257   4.569  11.147  0.00  0.00    +0.000 C 
BRANCH  14  15
ATOM     15  C   UNL     1      43.444   5.658  12.237  0.00  0.00    +0.000 C 
BRANCH  15  16
ATOM     16  C   UNL     1      44.878   5.805  12.704  0.00  0.00    +0.000 A 
ATOM     17  C   UNL     1      45.514   4.717  13.330  0.00  0.00    +0.000 A 
ATOM     18  C   UNL     1      46.837   4.809  13.764  0.00  0.00    +0.000 A 
ATOM     19  C   UNL     1      47.553   5.986  13.565  0.00  0.00    +0.000 A 
ATOM     20  C   UNL     1      46.949   7.065  12.924  0.00  0.00    +0.000 A 
ATOM     21  C   UNL     1      45.624   6.975  12.492  0.00  0.00    +0.000 A 
ENDBRANCH  15  16
BRANCH  15  22
ATOM     22  O   UNL     1      42.549   5.385  13.331  0.00  0.00    +0.000 OA
ATOM     23  H   UNL     1      41.735   5.889  13.157  0.00  0.00    +0.000 HD
ENDBRANCH  15  22
ENDBRANCH  14  15
ENDBRANCH   5  14
TORSDOF 5
ENDMDL
MODEL 2
REMARK VINA RESULT:    -7.367      3.014      6.473
REMARK INTER + INTRA:          -9.778
REMARK INTER:                  -9.423
REMARK INTRA:                  -0.355
REMARK UNBOUND:                -0.474
REMARK  Name = 
REMARK  5 active torsions:
REMARK  status: ('A' for Active; 'I' for Inactive)
REMARK    1  A    between atoms: C_2  and  C_4
REMARK    2  A    between atoms: N_8  and  C_9
REMARK    3  A    between atoms: C_9  and  C_10
REMARK    4  A    between atoms: C_10  and  O_11
REMARK    5  A    between atoms: C_10  and  C_12
REMARK                            x       y       z     vdW  Elec       q    Type
REMARK                         _______ _______ _______ _____ _____    ______ ____
ROOT
ATOM      1  C   UNL     1      47.148   4.516  14.736  0.00  0.00    +0.000 A 
ATOM      2  C   UNL     1      46.862   5.703  14.068  0.00  0.00    +0.000 A 
ATOM      3  C   UNL     1      46.238   5.645  12.825  0.00  0.00    +0.000 A 
ATOM      4  C   UNL     1      45.882   4.410  12.283  0.00  0.00    +0.000 A 
ATOM      5  N   UNL     1      45.088   4.424  11.143  0.00  0.00    +0.000 N 
ATOM      6  N   UNL     1      46.183   3.255  12.905  0.00  0.00    +0.000 NA
ATOM      7  C   UNL     1      46.826   3.325  14.103  0.00  0.00    +0.000 A 
ATOM      8  H   UNL     1      45.481   4.967  10.380  0.00  0.00    +0.000 HD
ENDROOT
BRANCH   1  10
ATOM      9  N   UNL     1      47.136   5.175  17.073  0.00  0.00    +0.000 N 
ATOM     10  C   UNL     1      47.764   4.481  16.076  0.00  0.00    +0.000 C 
ATOM     11  O   UNL     1      48.774   3.825  16.299  0.00  0.00    +0.000 OA
ATOM     12  H   UNL     1      47.507   5.051  18.008  0.00  0.00    +0.000 HD
ATOM     13  H   UNL     1      46.183   5.498  16.992  0.00  0.00    +0.000 HD
ENDBRANCH   1  10
BRANCH   5  14
ATOM     14  C   UNL     1      44.486   3.161  10.722  0.00  0.00    +0.000 C 
BRANCH  14  15
ATOM     15  C   UNL     1      44.249   3.223   9.189  0.00  0.00    +0.000 C 
BRANCH  15  16
ATOM     16  C   UNL     1      45.445   2.772   8.375  0.00  0.00    +0.000 A 
ATOM     17  C   UNL     1      45.822   1.417   8.396  0.00  0.00    +0.000 A 
ATOM     18  C   UNL     1      46.911   0.961   7.652  0.00  0.00    +0.000 A 
ATOM     19  C   UNL     1      47.632   1.850   6.859  0.00  0.00    +0.000 A 
ATOM     20  C   UNL     1      47.258   3.191   6.805  0.00  0.00    +0.000 A 
ATOM     21  C   UNL     1      46.170   3.648   7.552  0.00  0.00    +0.000 A 
ENDBRANCH  15  16
BRANCH  15  22
ATOM     22  O   UNL     1      43.826   4.552   8.834  0.00  0.00    +0.000 OA
ATOM     23  H   UNL     1      43.105   4.788   9.443  0.00  0.00    +0.000 HD
ENDBRANCH  15  22
ENDBRANCH  14  15
ENDBRANCH   5  14
TORSDOF 5
ENDMDL
MODEL 3
REMARK VINA RESULT:    -7.258      2.931      6.779
REMARK INTER + INTRA:          -9.641
REMARK INTER:                  -9.325
REMARK INTRA:                  -0.316
REMARK UNBOUND:                -0.474
REMARK  Name = 
REMARK  5 active torsions:
REMARK  status: ('A' for Active; 'I' for Inactive)
REMARK    1  A    between atoms: C_2  and  C_4
REMARK    2  A    between atoms: N_8  and  C_9
REMARK    3  A    between atoms: C_9  and  C_10
REMARK    4  A    between atoms: C_10  and  O_11
REMARK    5  A    between atoms: C_10  and  C_12
REMARK                            x       y       z     vdW  Elec       q    Type
REMARK                         _______ _______ _______ _____ _____    ______ ____
ROOT
ATOM      1  C   UNL     1      46.634   8.266  12.639  0.00  0.00    +0.000 A 
ATOM      2  C   UNL     1      45.337   8.567  12.235  0.00  0.00    +0.000 A 
ATOM      3  C   UNL     1      44.632   7.635  11.478  0.00  0.00    +0.000 A 
ATOM      4  C   UNL     1      45.219   6.410  11.162  0.00  0.00    +0.000 A 
ATOM      5  N   UNL     1      44.402   5.448  10.580  0.00  0.00    +0.000 N 
ATOM      6  N   UNL     1      46.484   6.122  11.519  0.00  0.00    +0.000 NA
ATOM      7  C   UNL     1      47.174   7.057  12.229  0.00  0.00    +0.000 A 
ATOM      8  H   UNL     1      43.937   5.766   9.736  0.00  0.00    +0.000 HD
ENDROOT
BRANCH   1  10
ATOM      9  N   UNL     1      47.420   8.950  14.833  0.00  0.00    +0.000 N 
ATOM     10  C   UNL     1      47.438   9.171  13.483  0.00  0.00    +0.000 C 
ATOM     11  O   UNL     1      48.127  10.058  12.994  0.00  0.00    +0.000 OA
ATOM     12  H   UNL     1      48.062   9.506  15.386  0.00  0.00    +0.000 HD
ATOM     13  H   UNL     1      47.088   8.087  15.237  0.00  0.00    +0.000 HD
ENDBRANCH   1  10
BRANCH   5  14
ATOM     14  C   UNL     1      44.920   4.084  10.492  0.00  0.00    +0.000 C 
BRANCH  14  15
ATOM     15  C   UNL     1      44.463   3.477   9.139  0.00  0.00    +0.000 C 
BRANCH  15  16
ATOM     16  C   UNL     1      45.602   2.904   8.319  0.00  0.00    +0.000 A 
ATOM     17  C   UNL     1      45.886   1.528   8.402  0.00  0.00    +0.000 A 
ATOM     18  C   UNL     1      46.919   0.960   7.656  0.00  0.00    +0.000 A 
ATOM     19  C   UNL     1      47.677   1.755   6.801  0.00  0.00    +0.000 A 
ATOM     20  C   UNL     1      47.395   3.114   6.686  0.00  0.00    +0.000 A 
ATOM     21  C   UNL     1      46.363   3.684   7.436  0.00  0.00    +0.000 A 
ENDBRANCH  15  16
BRANCH  15  22
ATOM     22  O   UNL     1      43.722   4.470   8.406  0.00  0.00    +0.000 OA
ATOM     23  H   UNL     1      44.150   5.326   8.585  0.00  0.00    +0.000 HD
ENDBRANCH  15  22
ENDBRANCH  14  15
ENDBRANCH   5  14
TORSDOF 5
ENDMDL
MODEL 4
REMARK VINA RESULT:    -7.055      2.565      6.588
REMARK INTER + INTRA:          -9.385
REMARK INTER:                  -9.027
REMARK INTRA:                  -0.358
REMARK UNBOUND:                -0.474
REMARK  Name = 
REMARK  5 active torsions:
REMARK  status: ('A' for Active; 'I' for Inactive)
REMARK    1  A    between atoms: C_2  and  C_4
REMARK    2  A    between atoms: N_8  and  C_9
REMARK    3  A    between atoms: C_9  and  C_10
REMARK    4  A    between atoms: C_10  and  O_11
REMARK    5  A    between atoms: C_10  and  C_12
REMARK                            x       y       z     vdW  Elec       q    Type
REMARK                         _______ _______ _______ _____ _____    ______ ____
ROOT
ATOM      1  C   UNL     1      46.546   6.406  12.856  0.00  0.00    +0.000 A 
ATOM      2  C   UNL     1      45.500   5.755  13.504  0.00  0.00    +0.000 A 
ATOM      3  C   UNL     1      44.572   5.047  12.745  0.00  0.00    +0.000 A 
ATOM      4  C   UNL     1      44.719   4.973  11.360  0.00  0.00    +0.000 A 
ATOM      5  N   UNL     1      43.885   4.093  10.680  0.00  0.00    +0.000 N 
ATOM      6  N   UNL     1      45.707   5.625  10.720  0.00  0.00    +0.000 NA
ATOM      7  C   UNL     1      46.587   6.344  11.472  0.00  0.00    +0.000 A 
ATOM      8  H   UNL     1      42.897   4.253  10.854  0.00  0.00    +0.000 HD
ENDROOT
BRANCH   1  10
ATOM      9  N   UNL     1      47.248   8.317  14.181  0.00  0.00    +0.000 N 
ATOM     10  C   UNL     1      47.601   7.140  13.581  0.00  0.00    +0.000 C 
ATOM     11  O   UNL     1      48.738   6.695  13.678  0.00  0.00    +0.000 OA
ATOM     12  H   UNL     1      47.952   8.751  14.766  0.00  0.00    +0.000 HD
ATOM     13  H   UNL     1      46.285   8.574  14.346  0.00  0.00    +0.000 HD
ENDBRANCH   1  10
BRANCH   5  14
ATOM     14  C   UNL     1      44.201   3.802   9.284  0.00  0.00    +0.000 C 
BRANCH  14  15
ATOM     15  C   UNL     1      45.026   2.488   9.236  0.00  0.00    +0.000 C 
BRANCH  15  16
ATOM     16  C   UNL     1      45.927   2.384   8.022  0.00  0.00    +0.000 A 
ATOM     17  C   UNL     1      46.008   3.469   7.129  0.00  0.00    +0.000 A 
ATOM     18  C   UNL     1      46.834   3.416   6.006  0.00  0.00    +0.000 A 
ATOM     19  C   UNL     1      47.606   2.283   5.764  0.00  0.00    +0.000 A 
ATOM     20  C   UNL     1      47.558   1.210   6.650  0.00  0.00    +0.000 A 
ATOM     21  C   UNL     1      46.729   1.261   7.772  0.00  0.00    +0.000 A 
ENDBRANCH  15  16
BRANCH  15  22
ATOM     22  O   UNL     1      44.128   1.368   9.336  0.00  0.00    +0.000 OA
ATOM     23  H   UNL     1      43.232   1.713   9.176  0.00  0.00    +0.000 HD
ENDBRANCH  15  22
ENDBRANCH  14  15
ENDBRANCH   5  14
TORSDOF 5
ENDMDL
MODEL 5
REMARK VINA RESULT:    -6.461      4.188      6.285
REMARK INTER + INTRA:          -8.634
REMARK INTER:                  -8.330
REMARK INTRA:                  -0.304
REMARK UNBOUND:                -0.474
REMARK  Name = 
REMARK  5 active torsions:
REMARK  status: ('A' for Active; 'I' for Inactive)
REMARK    1  A    between atoms: C_2  and  C_4
REMARK    2  A    between atoms: N_8  and  C_9
REMARK    3  A    between atoms: C_9  and  C_10
REMARK    4  A    between atoms: C_10  and  O_11
REMARK    5  A    between atoms: C_10  and  C_12
REMARK                            x       y       z     vdW  Elec       q    Type
REMARK                         _______ _______ _______ _____ _____    ______ ____
ROOT
ATOM      1  C   UNL     1      44.566   4.917  11.845  0.00  0.00    +0.000 A 
ATOM      2  C   UNL     1      44.950   3.586  11.984  0.00  0.00    +0.000 A 
ATOM      3  C   UNL     1      45.880   3.252  12.965  0.00  0.00    +0.000 A 
ATOM      4  C   UNL     1      46.387   4.240  13.809  0.00  0.00    +0.000 A 
ATOM      5  N   UNL     1      47.152   3.819  14.890  0.00  0.00    +0.000 N 
ATOM      6  N   UNL     1      46.047   5.534  13.662  0.00  0.00    +0.000 NA
ATOM      7  C   UNL     1      45.164   5.852  12.675  0.00  0.00    +0.000 A 
ATOM      8  H   UNL     1      47.941   3.237  14.627  0.00  0.00    +0.000 HD
ENDROOT
BRANCH   1  10
ATOM      9  N   UNL     1      42.809   6.459  11.187  0.00  0.00    +0.000 N 
ATOM     10  C   UNL     1      43.553   5.357  10.866  0.00  0.00    +0.000 C 
ATOM     11  O   UNL     1      43.410   4.786   9.792  0.00  0.00    +0.000 OA
ATOM     12  H   UNL     1      42.199   6.815  10.460  0.00  0.00    +0.000 HD
ATOM     13  H   UNL     1      43.076   7.098  11.922  0.00  0.00    +0.000 HD
ENDBRANCH   1  10
BRANCH   5  14
ATOM     14  C   UNL     1      47.460   4.803  15.925  0.00  0.00    +0.000 C 
BRANCH  14  15
ATOM     15  C   UNL     1      47.687   4.047  17.261  0.00  0.00    +0.000 C 
BRANCH  15  16
ATOM     16  C   UNL     1      49.112   3.563  17.446  0.00  0.00    +0.000 A 
ATOM     17  C   UNL     1      49.446   2.247  17.075  0.00  0.00    +0.000 A 
ATOM     18  C   UNL     1      50.748   1.768  17.220  0.00  0.00    +0.000 A 
ATOM     19  C   UNL     1      51.744   2.600  17.722  0.00  0.00    +0.000 A 
ATOM     20  C   UNL     1      51.438   3.914  18.071  0.00  0.00    +0.000 A 
ATOM     21  C   UNL     1      50.134   4.393  17.930  0.00  0.00    +0.000 A 
ENDBRANCH  15  16
BRANCH  15  22
ATOM     22  O   UNL     1      46.738   2.970  17.358  0.00  0.00    +0.000 OA
ATOM     23  H   UNL     1      46.206   3.138  18.156  0.00  0.00    +0.000 HD
ENDBRANCH  15  22
ENDBRANCH  14  15
ENDBRANCH   5  14
TORSDOF 5
ENDMDL
MODEL 6
REMARK VINA RESULT:    -6.337      3.540      7.000
REMARK INTER + INTRA:          -8.478
REMARK INTER:                  -8.154
REMARK INTRA:                  -0.324
REMARK UNBOUND:                -0.474
REMARK  Name = 
REMARK  5 active torsions:
REMARK  status: ('A' for Active; 'I' for Inactive)
REMARK    1  A    between atoms: C_2  and  C_4
REMARK    2  A    between atoms: N_8  and  C_9
REMARK    3  A    between atoms: C_9  and  C_10
REMARK    4  A    between atoms: C_10  and  O_11
REMARK    5  A    between atoms: C_10  and  C_12
REMARK                            x       y       z     vdW  Elec       q    Type
REMARK                         _______ _______ _______ _____ _____    ______ ____
ROOT
ATOM      1  C   UNL     1      48.035   5.055  16.129  0.00  0.00    +0.000 A 
ATOM      2  C   UNL     1      48.321   6.123  15.283  0.00  0.00    +0.000 A 
ATOM      3  C   UNL     1      47.709   6.176  14.034  0.00  0.00    +0.000 A 
ATOM      4  C   UNL     1      46.802   5.184  13.660  0.00  0.00    +0.000 A 
ATOM      5  N   UNL     1      46.077   5.395  12.494  0.00  0.00    +0.000 N 
ATOM      6  N   UNL     1      46.545   4.130  14.457  0.00  0.00    +0.000 NA
ATOM      7  C   UNL     1      47.177   4.072  15.661  0.00  0.00    +0.000 A 
ATOM      8  H   UNL     1      46.659   5.570  11.680  0.00  0.00    +0.000 HD
ENDROOT
BRANCH   1  10
ATOM      9  N   UNL     1      49.732   4.189  17.636  0.00  0.00    +0.000 N 
ATOM     10  C   UNL     1      48.599   4.940  17.488  0.00  0.00    +0.000 C 
ATOM     11  O   UNL     1      48.097   5.526  18.440  0.00  0.00    +0.000 OA
ATOM     12  H   UNL     1      50.168   4.211  18.550  0.00  0.00    +0.000 HD
ATOM     13  H   UNL     1      50.310   3.920  16.853  0.00  0.00    +0.000 HD
ENDBRANCH   1  10
BRANCH   5  14
ATOM     14  C   UNL     1      44.943   4.511  12.233  0.00  0.00    +0.000 C 
BRANCH  14  15
ATOM     15  C   UNL     1      44.387   4.838  10.821  0.00  0.00    +0.000 C 
BRANCH  15  16
ATOM     16  C   UNL     1      44.992   3.988   9.722  0.00  0.00    +0.000 A 
ATOM     17  C   UNL     1      45.680   4.613   8.666  0.00  0.00    +0.000 A 
ATOM     18  C   UNL     1      46.260   3.865   7.641  0.00  0.00    +0.000 A 
ATOM     19  C   UNL     1      46.175   2.476   7.662  0.00  0.00    +0.000 A 
ATOM     20  C   UNL     1      45.519   1.837   8.712  0.00  0.00    +0.000 A 
ATOM     21  C   UNL     1      44.936   2.586   9.736  0.00  0.00    +0.000 A 
ENDBRANCH  15  16
BRANCH  15  22
ATOM     22  O   UNL     1      44.556   6.245  10.566  0.00  0.00    +0.000 OA
ATOM     23  H   UNL     1      44.258   6.400   9.653  0.00  0.00    +0.000 HD
ENDBRANCH  15  22
ENDBRANCH  14  15
ENDBRANCH   5  14
TORSDOF 5
ENDMDL
MODEL 7
REMARK VINA RESULT:    -5.834      4.436      5.816
REMARK INTER + INTRA:          -7.843
REMARK INTER:                  -7.536
REMARK INTRA:                  -0.307
REMARK UNBOUND:                -0.474
REMARK  Name = 
REMARK  5 active torsions:
REMARK  status: ('A' for Active; 'I' for Inactive)
REMARK    1  A    between atoms: C_2  and  C_4
REMARK    2  A    between atoms: N_8  and  C_9
REMARK    3  A    between atoms: C_9  and  C_10
REMARK    4  A    between atoms: C_10  and  O_11
REMARK    5  A    between atoms: C_10  and  C_12
REMARK                            x       y       z     vdW  Elec       q    Type
REMARK                         _______ _______ _______ _____ _____    ______ ____
ROOT
ATOM      1  C   UNL     1      45.148   4.235  11.340  0.00  0.00    +0.000 A 
ATOM      2  C   UNL     1      45.737   5.492  11.438  0.00  0.00    +0.000 A 
ATOM      3  C   UNL     1      46.299   5.881  12.651  0.00  0.00    +0.000 A 
ATOM      4  C   UNL     1      46.292   5.004  13.735  0.00  0.00    +0.000 A 
ATOM      5  N   UNL     1      47.038   5.366  14.850  0.00  0.00    +0.000 N 
ATOM      6  N   UNL     1      45.695   3.799  13.661  0.00  0.00    +0.000 NA
ATOM      7  C   UNL     1      45.118   3.445  12.479  0.00  0.00    +0.000 A 
ATOM      8  H   UNL     1      46.796   6.279  15.222  0.00  0.00    +0.000 HD
ENDROOT
BRANCH   1  10
ATOM      9  N   UNL     1      44.156   4.639   9.161  0.00  0.00    +0.000 N 
ATOM     10  C   UNL     1      44.571   3.720  10.084  0.00  0.00    +0.000 C 
ATOM     11  O   UNL     1      44.502   2.518   9.858  0.00  0.00    +0.000 OA
ATOM     12  H   UNL     1      43.867   4.272   8.261  0.00  0.00    +0.000 HD
ATOM     13  H   UNL     1      44.436   5.608   9.197  0.00  0.00    +0.000 HD
ENDBRANCH   1  10
BRANCH   5  14
ATOM     14  C   UNL     1      47.262   4.348  15.874  0.00  0.00    +0.000 C 
BRANCH  14  15
ATOM     15  C   UNL     1      48.562   4.708  16.641  0.00  0.00    +0.000 C 
BRANCH  15  16
ATOM     16  C   UNL     1      48.331   5.038  18.102  0.00  0.00    +0.000 A 
ATOM     17  C   UNL     1      48.786   4.146  19.090  0.00  0.00    +0.000 A 
ATOM     18  C   UNL     1      48.602   4.418  20.446  0.00  0.00    +0.000 A 
ATOM     19  C   UNL     1      47.974   5.596  20.839  0.00  0.00    +0.000 A 
ATOM     20  C   UNL     1      47.539   6.504  19.876  0.00  0.00    +0.000 A 
ATOM     21  C   UNL     1      47.720   6.230  18.519  0.00  0.00    +0.000 A 
ENDBRANCH  15  16
BRANCH  15  22
ATOM     22  O   UNL     1      49.233   5.778  15.949  0.00  0.00    +0.000 OA
ATOM     23  H   UNL     1      50.124   5.453  15.730  0.00  0.00    +0.000 HD
ENDBRANCH  15  22
ENDBRANCH  14  15
ENDBRANCH   5  14
TORSDOF 5
ENDMDL
MODEL 8
REMARK VINA RESULT:    -5.710      4.182      6.863
REMARK INTER + INTRA:          -7.686
REMARK INTER:                  -7.438
REMARK INTRA:                  -0.248
REMARK UNBOUND:                -0.474
REMARK  Name = 
REMARK  5 active torsions:
REMARK  status: ('A' for Active; 'I' for Inactive)
REMARK    1  A    between atoms: C_2  and  C_4
REMARK    2  A    between atoms: N_8  and  C_9
REMARK    3  A    between atoms: C_9  and  C_10
REMARK    4  A    between atoms: C_10  and  O_11
REMARK    5  A    between atoms: C_10  and  C_12
REMARK                            x       y       z     vdW  Elec       q    Type
REMARK                         _______ _______ _______ _____ _____    ______ ____
ROOT
ATOM      1  C   UNL     1      47.711   4.498  16.451  0.00  0.00    +0.000 A 
ATOM      2  C   UNL     1      48.429   5.675  16.640  0.00  0.00    +0.000 A 
ATOM      3  C   UNL     1      48.639   6.520  15.554  0.00  0.00    +0.000 A 
ATOM      4  C   UNL     1      48.105   6.195  14.307  0.00  0.00    +0.000 A 
ATOM      5  N   UNL     1      48.175   7.166  13.315  0.00  0.00    +0.000 N 
ATOM      6  N   UNL     1      47.438   5.044  14.105  0.00  0.00    +0.000 NA
ATOM      7  C   UNL     1      47.271   4.209  15.168  0.00  0.00    +0.000 A 
ATOM      8  H   UNL     1      49.116   7.504  13.142  0.00  0.00    +0.000 HD
ENDROOT
BRANCH   1  10
ATOM      9  N   UNL     1      48.202   3.611  18.657  0.00  0.00    +0.000 N 
ATOM     10  C   UNL     1      47.399   3.566  17.552  0.00  0.00    +0.000 C 
ATOM     11  O   UNL     1      46.436   2.811  17.497  0.00  0.00    +0.000 OA
ATOM     12  H   UNL     1      47.910   3.047  19.447  0.00  0.00    +0.000 HD
ATOM     13  H   UNL     1      48.824   4.384  18.846  0.00  0.00    +0.000 HD
ENDBRANCH   1  10
BRANCH   5  14
ATOM     14  C   UNL     1      47.390   6.951  12.101  0.00  0.00    +0.000 C 
BRANCH  14  15
ATOM     15  C   UNL     1      45.906   7.276  12.418  0.00  0.00    +0.000 C 
BRANCH  15  16
ATOM     16  C   UNL     1      44.949   6.164  12.037  0.00  0.00    +0.000 A 
ATOM     17  C   UNL     1      43.995   5.726  12.973  0.00  0.00    +0.000 A 
ATOM     18  C   UNL     1      43.089   4.712  12.657  0.00  0.00    +0.000 A 
ATOM     19  C   UNL     1      43.112   4.129  11.392  0.00  0.00    +0.000 A 
ATOM     20  C   UNL     1      44.033   4.567  10.444  0.00  0.00    +0.000 A 
ATOM     21  C   UNL     1      44.942   5.580  10.761  0.00  0.00    +0.000 A 
ENDBRANCH  15  16
BRANCH  15  22
ATOM     22  O   UNL     1      45.556   8.524  11.791  0.00  0.00    +0.000 OA
ATOM     23  H   UNL     1      45.594   9.205  12.485  0.00  0.00    +0.000 HD
ENDBRANCH  15  22
ENDBRANCH  14  15
ENDBRANCH   5  14
TORSDOF 5
ENDMDL
