MODEL 1
REMARK VINA RESULT:    -6.491      0.000      0.000
REMARK INTER + INTRA:          -9.093
REMARK INTER:                  -8.388
REMARK INTRA:                  -0.705
REMARK UNBOUND:                -0.705
REMARK  Name = 
REMARK  7 active torsions:
REMARK  status: ('A' for Active; 'I' for Inactive)
REMARK    1  A    between atoms: C_1  and  C_2
REMARK    2  A    between atoms: C_2  and  C_3
REMARK    3  A    between atoms: C_2  and  N_4
REMARK    4  A    between atoms: N_4  and  C_5
REMARK    5  A    between atoms: C_5  and  C_6
REMARK    6  A    between atoms: C_9  and  C_10
REMARK    7  A    between atoms: C_10  and  N_11
REMARK                            x       y       z     vdW  Elec       q    Type
REMARK                         _______ _______ _______ _____ _____    ______ ____
ROOT
ATOM      1  C   UNL     1      45.035   3.565   9.088  0.00  0.00    +0.000 A 
ATOM      2  C   UNL     1      44.512   2.926  10.219  0.00  0.00    +0.000 A 
ATOM      3  C   UNL     1      44.443   3.592  11.446  0.00  0.00    +0.000 A 
ATOM      4  C   UNL     1      44.904   4.909  11.573  0.00  0.00    +0.000 A 
ATOM      5  C   UNL     1      45.430   5.548  10.442  0.00  0.00    +0.000 A 
ATOM      6  C   UNL     1      45.489   4.885   9.213  0.00  0.00    +0.000 A 
ENDROOT
BRANCH   1   7
ATOM      7  C   UNL     1      45.143   2.841   7.763  0.00  0.00    +0.000 C 
BRANCH   7   8
ATOM      8  N   UNL     1      46.209   3.394   6.929  0.00  0.00    +0.000 NA
ATOM      9  H   UNL     1      45.837   3.561   5.995  0.00  0.00    +0.000 HD
BRANCH   8  11
ATOM     10  C   UNL     1      47.000   1.147   7.404  0.00  0.00    +0.000 C 
ATOM     11  C   UNL     1      47.381   2.514   6.826  0.00  0.00    +0.000 C 
ATOM     12  C   UNL     1      47.855   2.343   5.382  0.00  0.00    +0.000 C 
ENDBRANCH   8  11
ENDBRANCH   7   8
ENDBRANCH   1   7
BRANCH   4  13
ATOM     13  C   UNL     1      44.850   5.623  12.898  0.00  0.00    +0.000 C 
BRANCH  13  14
ATOM     14  N   UNL     1      46.092   6.338  13.189  0.00  0.00    +0.000 N 
ATOM     15  C   UNL     1      47.220   5.742  13.700  0.00  0.00    +0.000 A 
ATOM     16  C   UNL     1      48.211   6.693  13.768  0.00  0.00    +0.000 A 
ATOM     17  C   UNL     1      47.676   7.913  13.271  0.00  0.00    +0.000 A 
ATOM     18  C   UNL     1      48.203   9.197  13.087  0.00  0.00    +0.000 A 
ATOM     19  N   UNL     1      47.439  10.190  12.570  0.00  0.00    +0.000 NA
ATOM     20  C   UNL     1      46.161   9.916  12.237  0.00  0.00    +0.000 A 
ATOM     21  C   UNL     1      45.546   8.681  12.380  0.00  0.00    +0.000 A 
ATOM     22  C   UNL     1      46.348   7.667  12.912  0.00  0.00    +0.000 A 
ENDBRANCH  13  14
ENDBRANCH   4  13
TORSDOF 5
ENDMDL
MODEL 2
REMARK VINA RESULT:    -6.364      1.462      2.484
REMARK INTER + INTRA:          -8.930
REMARK INTER:                  -8.295
REMARK INTRA:                  -0.634
REMARK UNBOUND:                -0.705
REMARK  Name = 
REMARK  7 active torsions:
REMARK  status: ('A' for Active; 'I' for Inactive)
REMARK    1  A    between atoms: C_1  and  C_2
REMARK    2  A    between atoms: C_2  and  C_3
REMARK    3  A    between atoms: C_2  and  N_4
REMARK    4  A    between atoms: N_4  and  C_5
REMARK    5  A    between atoms: C_5  and  C_6
REMARK    6  A    between atoms: C_9  and  C_10
REMARK    7  A    between atoms: C_10  and  N_11
REMARK                            x       y       z     vdW  Elec       q    Type
REMARK                         _______ _______ _______ _____ _____    ______ ____
ROOT
ATOM      1  C   UNL     1      44.918   3.663  10.096  0.00  0.00    +0.000 A 
ATOM      2  C   UNL     1      45.271   4.985   9.798  0.00  0.00    +0.000 A 
ATOM      3  C   UNL     1      45.660   5.864  10.812  0.00  0.00    +0.000 A 
ATOM      4  C   UNL     1      45.695   5.445  12.149  0.00  0.00    +0.000 A 
ATOM      5  C   UNL     1      45.340   4.123  12.448  0.00  0.00    +0.000 A 
ATOM      6  C   UNL     1      44.961   3.241  11.431  0.00  0.00    +0.000 A 
ENDROOT
BRANCH   1   7
ATOM      7  C   UNL     1      44.465   2.713   9.007  0.00  0.00    +0.000 C 
BRANCH   7   8
ATOM      8  N   UNL     1      45.453   1.662   8.760  0.00  0.00    +0.000 NA
ATOM      9  H   UNL     1      45.836   1.361   9.655  0.00  0.00    +0.000 HD
BRANCH   8  11
ATOM     10  C   UNL     1      47.164   0.849   7.239  0.00  0.00    +0.000 C 
ATOM     11  C   UNL     1      46.554   2.095   7.889  0.00  0.00    +0.000 C 
ATOM     12  C   UNL     1      46.087   3.062   6.799  0.00  0.00    +0.000 C 
ENDBRANCH   8  11
ENDBRANCH   7   8
ENDBRANCH   1   7
BRANCH   4  13
ATOM     13  C   UNL     1      46.094   6.396  13.247  0.00  0.00    +0.000 C 
BRANCH  13  14
ATOM     14  N   UNL     1      46.499   7.700  12.726  0.00  0.00    +0.000 N 
ATOM     15  C   UNL     1      45.670   8.795  12.667  0.00  0.00    +0.000 A 
ATOM     16  C   UNL     1      46.403   9.861  12.201  0.00  0.00    +0.000 A 
ATOM     17  C   UNL     1      47.732   9.406  11.975  0.00  0.00    +0.000 A 
ATOM     18  C   UNL     1      48.903  10.028  11.524  0.00  0.00    +0.000 A 
ATOM     19  N   UNL     1      50.058   9.327  11.413  0.00  0.00    +0.000 NA
ATOM     20  C   UNL     1      50.056   8.020  11.747  0.00  0.00    +0.000 A 
ATOM     21  C   UNL     1      48.953   7.314  12.202  0.00  0.00    +0.000 A 
ATOM     22  C   UNL     1      47.770   8.051  12.313  0.00  0.00    +0.000 A 
ENDBRANCH  13  14
ENDBRANCH   4  13
TORSDOF 5
ENDMDL
MODEL 3
REMARK VINA RESULT:    -6.335      2.024      7.107
REMARK INTER + INTRA:          -8.891
REMARK INTER:                  -8.221
REMARK INTRA:                  -0.670
REMARK UNBOUND:                -0.705
REMARK  Name = 
REMARK  7 active torsions:
REMARK  status: ('A' for Active; 'I' for Inactive)
REMARK    1  A    between atoms: C_1  and  C_2
REMARK    2  A    between atoms: C_2  and  C_3
REMARK    3  A    between atoms: C_2  and  N_4
REMARK    4  A    between atoms: N_4  and  C_5
REMARK    5  A    between atoms: C_5  and  C_6
REMARK    6  A    between atoms: C_9  and  C_10
REMARK    7  A    between atoms: C_10  and  N_11
REMARK                            x       y       z     vdW  Elec       q    Type
REMARK                         _______ _______ _______ _____ _____    ______ ____
ROOT
ATOM      1  C   UNL     1      47.837   7.483  13.567  0.00  0.00    +0.000 A 
ATOM      2  C   UNL     1      47.712   6.215  12.987  0.00  0.00    +0.000 A 
ATOM      3  C   UNL     1      46.557   5.865  12.281  0.00  0.00    +0.000 A 
ATOM      4  C   UNL     1      45.498   6.773  12.146  0.00  0.00    +0.000 A 
ATOM      5  C   UNL     1      45.623   8.042  12.727  0.00  0.00    +0.000 A 
ATOM      6  C   UNL     1      46.782   8.394  13.425  0.00  0.00    +0.000 A 
ENDROOT
BRANCH   1   7
ATOM      7  C   UNL     1      49.071   7.859  14.360  0.00  0.00    +0.000 C 
BRANCH   7   8
ATOM      8  N   UNL     1      49.799   6.677  14.821  0.00  0.00    +0.000 NA
ATOM      9  H   UNL     1      49.396   5.853  14.376  0.00  0.00    +0.000 HD
BRANCH   8  11
ATOM     10  C   UNL     1      48.633   5.515  16.607  0.00  0.00    +0.000 C 
ATOM     11  C   UNL     1      49.758   6.502  16.279  0.00  0.00    +0.000 C 
ATOM     12  C   UNL     1      51.080   5.973  16.839  0.00  0.00    +0.000 C 
ENDBRANCH   8  11
ENDBRANCH   7   8
ENDBRANCH   1   7
BRANCH   4  13
ATOM     13  C   UNL     1      44.244   6.393  11.402  0.00  0.00    +0.000 C 
BRANCH  13  14
ATOM     14  N   UNL     1      44.163   4.954  11.160  0.00  0.00    +0.000 N 
ATOM     15  C   UNL     1      43.468   4.077  11.959  0.00  0.00    +0.000 A 
ATOM     16  C   UNL     1      43.543   2.828  11.388  0.00  0.00    +0.000 A 
ATOM     17  C   UNL     1      44.301   2.945  10.190  0.00  0.00    +0.000 A 
ATOM     18  C   UNL     1      44.692   2.034   9.200  0.00  0.00    +0.000 A 
ATOM     19  N   UNL     1      45.425   2.443   8.137  0.00  0.00    +0.000 NA
ATOM     20  C   UNL     1      45.771   3.743   8.051  0.00  0.00    +0.000 A 
ATOM     21  C   UNL     1      45.436   4.721   8.976  0.00  0.00    +0.000 A 
ATOM     22  C   UNL     1      44.678   4.285  10.065  0.00  0.00    +0.000 A 
ENDBRANCH  13  14
ENDBRANCH   4  13
TORSDOF 5
ENDMDL
MODEL 4
REMARK VINA RESULT:    -6.315      1.964      6.769
REMARK INTER + INTRA:          -8.866
REMARK INTER:                  -8.075
REMARK INTRA:                  -0.791
REMARK UNBOUND:                -0.705
REMARK  Name = 
REMARK  7 active torsions:
REMARK  status: ('A' for Active; 'I' for Inactive)
REMARK    1  A    between atoms: C_1  and  C_2
REMARK    2  A    between atoms: C_2  and  C_3
REMARK    3  A    between atoms: C_2  and  N_4
REMARK    4  A    between atoms: N_4  and  C_5
REMARK    5  A    between atoms: C_5  and  C_6
REMARK    6  A    between atoms: C_9  and  C_10
REMARK    7  A    between atoms: C_10  and  N_11
REMARK                            x       y       z     vdW  Elec       q    Type
REMARK                         _______ _______ _______ _____ _____    ______ ____
ROOT
ATOM      1  C   UNL     1      47.608   7.397  13.666  0.00  0.00    +0.000 A 
ATOM      2  C   UNL     1      46.635   8.356  13.355  0.00  0.00    +0.000 A 
ATOM      3  C   UNL     1      45.476   7.995  12.663  0.00  0.00    +0.000 A 
ATOM      4  C   UNL     1      45.266   6.670  12.258  0.00  0.00    +0.000 A 
ATOM      5  C   UNL     1      46.239   5.711  12.568  0.00  0.00    +0.000 A 
ATOM      6  C   UNL     1      47.394   6.070  13.269  0.00  0.00    +0.000 A 
ENDROOT
BRANCH   1   7
ATOM      7  C   UNL     1      48.881   7.785  14.388  0.00  0.00    +0.000 C 
BRANCH   7   8
ATOM      8  N   UNL     1      50.064   7.221  13.738  0.00  0.00    +0.000 NA
ATOM      9  H   UNL     1      50.711   6.905  14.460  0.00  0.00    +0.000 HD
BRANCH   8  11
ATOM     10  C   UNL     1      50.345   7.878  11.416  0.00  0.00    +0.000 C 
ATOM     11  C   UNL     1      50.755   8.177  12.862  0.00  0.00    +0.000 C 
ATOM     12  C   UNL     1      50.411   9.629  13.200  0.00  0.00    +0.000 C 
ENDBRANCH   8  11
ENDBRANCH   7   8
ENDBRANCH   1   7
BRANCH   4  13
ATOM     13  C   UNL     1      44.026   6.282  11.494  0.00  0.00    +0.000 C 
BRANCH  13  14
ATOM     14  N   UNL     1      43.993   4.853  11.191  0.00  0.00    +0.000 N 
ATOM     15  C   UNL     1      43.264   3.932  11.905  0.00  0.00    +0.000 A 
ATOM     16  C   UNL     1      43.404   2.709  11.292  0.00  0.00    +0.000 A 
ATOM     17  C   UNL     1      44.240   2.887  10.155  0.00  0.00    +0.000 A 
ATOM     18  C   UNL     1      44.717   2.025   9.160  0.00  0.00    +0.000 A 
ATOM     19  N   UNL     1      45.513   2.490   8.167  0.00  0.00    +0.000 NA
ATOM     20  C   UNL     1      45.836   3.799   8.156  0.00  0.00    +0.000 A 
ATOM     21  C   UNL     1      45.418   4.732   9.093  0.00  0.00    +0.000 A 
ATOM     22  C   UNL     1      44.595   4.238  10.109  0.00  0.00    +0.000 A 
ENDBRANCH  13  14
ENDBRANCH   4  13
TORSDOF 5
ENDMDL
MODEL 5
REMARK VINA RESULT:    -6.064      2.059      3.381
REMARK INTER + INTRA:          -8.542
REMARK INTER:                  -7.776
REMARK INTRA:                  -0.766
REMARK UNBOUND:                -0.705
REMARK  Name = 
REMARK  7 active torsions:
REMARK  status: ('A' for Active; 'I' for Inactive)
REMARK    1  A    between atoms: C_1  and  C_2
REMARK    2  A    between atoms: C_2  and  C_3
REMARK    3  A    between atoms: C_2  and  N_4
REMARK    4  A    between atoms: N_4  and  C_5
REMARK    5  A    between atoms: C_5  and  C_6
REMARK    6  A    between atoms: C_9  and  C_10
REMARK    7  A    between atoms: C_10  and  N_11
REMARK                            x       y       z     vdW  Elec       q    Type
REMARK                         _______ _______ _______ _____ _____    ______ ____
ROOT
ATOM      1  C   UNL     1      44.980   4.724  11.126  0.00  0.00    +0.000 A 
ATOM      2  C   UNL     1      45.211   4.394  12.468  0.00  0.00    +0.000 A 
ATOM      3  C   UNL     1      46.081   5.160  13.250  0.00  0.00    +0.000 A 
ATOM      4  C   UNL     1      46.747   6.267  12.706  0.00  0.00    +0.000 A 
ATOM      5  C   UNL     1      46.517   6.596  11.363  0.00  0.00    +0.000 A 
ATOM      6  C   UNL     1      45.639   5.836  10.585  0.00  0.00    +0.000 A 
ENDROOT
BRANCH   1   7
ATOM      7  C   UNL     1      44.065   3.881  10.263  0.00  0.00    +0.000 C 
BRANCH   7   8
ATOM      8  N   UNL     1      44.199   4.216   8.845  0.00  0.00    +0.000 NA
ATOM      9  H   UNL     1      43.266   4.348   8.454  0.00  0.00    +0.000 HD
BRANCH   8  11
ATOM     10  C   UNL     1      46.210   3.789   7.551  0.00  0.00    +0.000 C 
ATOM     11  C   UNL     1      44.901   3.185   8.070  0.00  0.00    +0.000 C 
ATOM     12  C   UNL     1      45.209   1.939   8.904  0.00  0.00    +0.000 C 
ENDBRANCH   8  11
ENDBRANCH   7   8
ENDBRANCH   1   7
BRANCH   4  13
ATOM     13  C   UNL     1      47.700   7.082  13.540  0.00  0.00    +0.000 C 
BRANCH  13  14
ATOM     14  N   UNL     1      48.105   8.314  12.867  0.00  0.00    +0.000 N 
ATOM     15  C   UNL     1      47.405   9.496  12.939  0.00  0.00    +0.000 A 
ATOM     16  C   UNL     1      48.116  10.455  12.255  0.00  0.00    +0.000 A 
ATOM     17  C   UNL     1      49.299   9.843  11.755  0.00  0.00    +0.000 A 
ATOM     18  C   UNL     1      50.389  10.310  11.011  0.00  0.00    +0.000 A 
ATOM     19  N   UNL     1      51.404   9.478  10.677  0.00  0.00    +0.000 NA
ATOM     20  C   UNL     1      51.344   8.191  11.075  0.00  0.00    +0.000 A 
ATOM     21  C   UNL     1      50.311   7.631  11.812  0.00  0.00    +0.000 A 
ATOM     22  C   UNL     1      49.272   8.503  12.151  0.00  0.00    +0.000 A 
ENDBRANCH  13  14
ENDBRANCH   4  13
TORSDOF 5
ENDMDL
MODEL 6
REMARK VINA RESULT:    -6.006      2.058      7.321
REMARK INTER + INTRA:          -8.467
REMARK INTER:                  -7.691
REMARK INTRA:                  -0.777
REMARK UNBOUND:                -0.705
REMARK  Name = 
REMARK  7 active torsions:
REMARK  status: ('A' for Active; 'I' for Inactive)
REMARK    1  A    between atoms: C_1  and  C_2
REMARK    2  A    between atoms: C_2  and  C_3
REMARK    3  A    between atoms: C_2  and  N_4
REMARK    4  A    between atoms: N_4  and  C_5
REMARK    5  A    between atoms: C_5  and  C_6
REMARK    6  A    between atoms: C_9  and  C_10
REMARK    7  A    between atoms: C_10  and  N_11
REMARK                            x       y       z     vdW  Elec       q    Type
REMARK                         _______ _______ _______ _____ _____    ______ ____
ROOT
ATOM      1  C   UNL     1      47.215   6.152  13.293  0.00  0.00    +0.000 A 
ATOM      2  C   UNL     1      46.364   5.065  13.533  0.00  0.00    +0.000 A 
ATOM      3  C   UNL     1      45.454   4.644  12.560  0.00  0.00    +0.000 A 
ATOM      4  C   UNL     1      45.367   5.305  11.327  0.00  0.00    +0.000 A 
ATOM      5  C   UNL     1      46.216   6.394  11.087  0.00  0.00    +0.000 A 
ATOM      6  C   UNL     1      47.133   6.808  12.057  0.00  0.00    +0.000 A 
ENDROOT
BRANCH   1   7
ATOM      7  C   UNL     1      48.181   6.635  14.353  0.00  0.00    +0.000 C 
BRANCH   7   8
ATOM      8  N   UNL     1      48.245   5.714  15.488  0.00  0.00    +0.000 NA
ATOM      9  H   UNL     1      47.308   5.351  15.664  0.00  0.00    +0.000 HD
BRANCH   8  11
ATOM     10  C   UNL     1      50.096   5.687  17.061  0.00  0.00    +0.000 C 
ATOM     11  C   UNL     1      48.754   6.340  16.716  0.00  0.00    +0.000 C 
ATOM     12  C   UNL     1      48.947   7.850  16.561  0.00  0.00    +0.000 C 
ENDBRANCH   8  11
ENDBRANCH   7   8
ENDBRANCH   1   7
BRANCH   4  13
ATOM     13  C   UNL     1      44.373   4.867  10.283  0.00  0.00    +0.000 C 
BRANCH  13  14
ATOM     14  N   UNL     1      44.783   3.631   9.619  0.00  0.00    +0.000 N 
ATOM     15  C   UNL     1      44.251   2.395   9.900  0.00  0.00    +0.000 A 
ATOM     16  C   UNL     1      44.810   1.484   9.034  0.00  0.00    +0.000 A 
ATOM     17  C   UNL     1      45.707   2.187   8.184  0.00  0.00    +0.000 A 
ATOM     18  C   UNL     1      46.537   1.803   7.123  0.00  0.00    +0.000 A 
ATOM     19  N   UNL     1      47.297   2.719   6.475  0.00  0.00    +0.000 NA
ATOM     20  C   UNL     1      47.239   4.006   6.873  0.00  0.00    +0.000 A 
ATOM     21  C   UNL     1      46.454   4.487   7.910  0.00  0.00    +0.000 A 
ATOM     22  C   UNL     1      45.673   3.531   8.567  0.00  0.00    +0.000 A 
ENDBRANCH  13  14
ENDBRANCH   4  13
TORSDOF 5
ENDMDL
MODEL 7
REMARK VINA RESULT:    -5.732      2.856      4.595
REMARK INTER + INTRA:          -8.112
REMARK INTER:                  -7.161
REMARK INTRA:                  -0.951
REMARK UNBOUND:                -0.705
REMARK  Name = 
REMARK  7 active torsions:
REMARK  status: ('A' for Active; 'I' for Inactive)
REMARK    1  A    between atoms: C_1  and  C_2
REMARK    2  A    between atoms: C_2  and  C_3
REMARK    3  A    between atoms: C_2  and  N_4
REMARK    4  A    between atoms: N_4  and  C_5
REMARK    5  A    between atoms: C_5  and  C_6
REMARK    6  A    between atoms: C_9  and  C_10
REMARK    7  A    between atoms: C_10  and  N_11
REMARK                            x       y       z     vdW  Elec       q    Type
REMARK                         _______ _______ _______ _____ _____    ______ ____
ROOT
ATOM      1  C   UNL     1      45.534   5.358  11.936  0.00  0.00    +0.000 A 
ATOM      2  C   UNL     1      46.112   4.782  13.075  0.00  0.00    +0.000 A 
ATOM      3  C   UNL     1      47.266   5.329  13.642  0.00  0.00    +0.000 A 
ATOM      4  C   UNL     1      47.874   6.459  13.079  0.00  0.00    +0.000 A 
ATOM      5  C   UNL     1      47.297   7.035  11.939  0.00  0.00    +0.000 A 
ATOM      6  C   UNL     1      46.137   6.493  11.378  0.00  0.00    +0.000 A 
ENDROOT
BRANCH   1   7
ATOM      7  C   UNL     1      44.303   4.753  11.296  0.00  0.00    +0.000 C 
BRANCH   7   8
ATOM      8  N   UNL     1      44.204   5.098   9.878  0.00  0.00    +0.000 NA
ATOM      9  H   UNL     1      43.275   5.477   9.700  0.00  0.00    +0.000 HD
BRANCH   8  11
ATOM     10  C   UNL     1      45.737   4.203   8.219  0.00  0.00    +0.000 C 
ATOM     11  C   UNL     1      44.433   3.954   8.986  0.00  0.00    +0.000 C 
ATOM     12  C   UNL     1      44.535   2.632   9.749  0.00  0.00    +0.000 C 
ENDBRANCH   8  11
ENDBRANCH   7   8
ENDBRANCH   1   7
BRANCH   4  13
ATOM     13  C   UNL     1      49.130   7.040  13.677  0.00  0.00    +0.000 C 
BRANCH  13  14
ATOM     14  N   UNL     1      48.870   7.732  14.937  0.00  0.00    +0.000 N 
ATOM     15  C   UNL     1      48.365   9.008  15.024  0.00  0.00    +0.000 A 
ATOM     16  C   UNL     1      48.175   9.303  16.354  0.00  0.00    +0.000 A 
ATOM     17  C   UNL     1      48.566   8.163  17.110  0.00  0.00    +0.000 A 
ATOM     18  C   UNL     1      48.586   7.871  18.479  0.00  0.00    +0.000 A 
ATOM     19  N   UNL     1      49.016   6.664  18.922  0.00  0.00    +0.000 NA
ATOM     20  C   UNL     1      49.424   5.751  18.017  0.00  0.00    +0.000 A 
ATOM     21  C   UNL     1      49.445   5.943  16.643  0.00  0.00    +0.000 A 
ATOM     22  C   UNL     1      48.996   7.191  16.203  0.00  0.00    +0.000 A 
ENDBRANCH  13  14
ENDBRANCH   4  13
TORSDOF 5
ENDMDL
MODEL 8
REMARK VINA RESULT:    -5.613      2.081      3.029
REMARK INTER + INTRA:          -7.959
REMARK INTER:                  -7.188
REMARK INTRA:                  -0.770
REMARK UNBOUND:                -0.705
REMARK  Name = 
REMARK  7 active torsions:
REMARK  status: ('A' for Active; 'I' for Inactive)
REMARK    1  A    between atoms: C_1  and  C_2
REMARK    2  A    between atoms: C_2  and  C_3
REMARK    3  A    between atoms: C_2  and  N_4
REMARK    4  A    between atoms: N_4  and  C_5
REMARK    5  A    between atoms: C_5  and  C_6
REMARK    6  A    between atoms: C_9  and  C_10
REMARK    7  A    between atoms: C_10  and  N_11
REMARK                            x       y       z     vdW  Elec       q    Type
REMARK                         _______ _______ _______ _____ _____    ______ ____
ROOT
ATOM      1  C   UNL     1      44.799   4.153  10.996  0.00  0.00    +0.000 A 
ATOM      2  C   UNL     1      45.480   3.937  12.200  0.00  0.00    +0.000 A 
ATOM      3  C   UNL     1      46.013   5.010  12.920  0.00  0.00    +0.000 A 
ATOM      4  C   UNL     1      45.884   6.323  12.448  0.00  0.00    +0.000 A 
ATOM      5  C   UNL     1      45.203   6.540  11.242  0.00  0.00    +0.000 A 
ATOM      6  C   UNL     1      44.662   5.468  10.528  0.00  0.00    +0.000 A 
ENDROOT
BRANCH   1   7
ATOM      7  C   UNL     1      44.246   2.995  10.193  0.00  0.00    +0.000 C 
BRANCH   7   8
ATOM      8  N   UNL     1      44.429   3.195   8.756  0.00  0.00    +0.000 NA
ATOM      9  H   UNL     1      43.769   2.598   8.259  0.00  0.00    +0.000 HD
BRANCH   8  11
ATOM     10  C   UNL     1      45.996   1.376   8.387  0.00  0.00    +0.000 C 
ATOM     11  C   UNL     1      45.790   2.891   8.296  0.00  0.00    +0.000 C 
ATOM     12  C   UNL     1      46.036   3.354   6.859  0.00  0.00    +0.000 C 
ENDBRANCH   8  11
ENDBRANCH   7   8
ENDBRANCH   1   7
BRANCH   4  13
ATOM     13  C   UNL     1      46.475   7.480  13.211  0.00  0.00    +0.000 C 
BRANCH  13  14
ATOM     14  N   UNL     1      47.905   7.634  12.957  0.00  0.00    +0.000 N 
ATOM     15  C   UNL     1      48.438   7.954  11.731  0.00  0.00    +0.000 A 
ATOM     16  C   UNL     1      49.798   8.095  11.880  0.00  0.00    +0.000 A 
ATOM     17  C   UNL     1      50.110   7.863  13.249  0.00  0.00    +0.000 A 
ATOM     18  C   UNL     1      51.301   7.878  13.986  0.00  0.00    +0.000 A 
ATOM     19  N   UNL     1      51.293   7.620  15.316  0.00  0.00    +0.000 NA
ATOM     20  C   UNL     1      50.116   7.348  15.915  0.00  0.00    +0.000 A 
ATOM     21  C   UNL     1      48.885   7.308  15.276  0.00  0.00    +0.000 A 
ATOM     22  C   UNL     1      48.910   7.578  13.905  0.00  0.00    +0.000 A 
ENDBRANCH  13  14
ENDBRANCH   4  13
TORSDOF 5
ENDMDL
MODEL 9
REMARK VINA RESULT:    -5.350      2.272      6.839
REMARK INTER + INTRA:          -7.619
REMARK INTER:                  -6.975
REMARK INTRA:                  -0.644
REMARK UNBOUND:                -0.705
REMARK  Name = 
REMARK  7 active torsions:
REMARK  status: ('A' for Active; 'I' for Inactive)
REMARK    1  A    between atoms: C_1  and  C_2
REMARK    2  A    between atoms: C_2  and  C_3
REMARK    3  A    between atoms: C_2  and  N_4
REMARK    4  A    between atoms: N_4  and  C_5
REMARK    5  A    between atoms: C_5  and  C_6
REMARK    6  A    between atoms: C_9  and  C_10
REMARK    7  A    between atoms: C_10  and  N_11
REMARK                            x       y       z     vdW  Elec       q    Type
REMARK                         _______ _______ _______ _____ _____    ______ ____
ROOT
ATOM      1  C   UNL     1      49.122   8.105  12.255  0.00  0.00    +0.000 A 
ATOM      2  C   UNL     1      48.862   6.798  12.688  0.00  0.00    +0.000 A 
ATOM      3  C   UNL     1      47.547   6.346  12.834  0.00  0.00    +0.000 A 
ATOM      4  C   UNL     1      46.464   7.191  12.559  0.00  0.00    +0.000 A 
ATOM      5  C   UNL     1      46.725   8.498  12.127  0.00  0.00    +0.000 A 
ATOM      6  C   UNL     1      48.039   8.947  11.972  0.00  0.00    +0.000 A 
ENDROOT
BRANCH   1   7
ATOM      7  C   UNL     1      50.542   8.614  12.125  0.00  0.00    +0.000 C 
BRANCH   7   8
ATOM      8  N   UNL     1      51.481   7.805  12.903  0.00  0.00    +0.000 NA
ATOM      9  H   UNL     1      51.029   6.923  13.140  0.00  0.00    +0.000 HD
BRANCH   8  11
ATOM     10  C   UNL     1      51.247   7.765  15.320  0.00  0.00    +0.000 C 
ATOM     11  C   UNL     1      51.927   8.463  14.138  0.00  0.00    +0.000 C 
ATOM     12  C   UNL     1      53.446   8.400  14.314  0.00  0.00    +0.000 C 
ENDBRANCH   8  11
ENDBRANCH   7   8
ENDBRANCH   1   7
BRANCH   4  13
ATOM     13  C   UNL     1      45.046   6.712  12.734  0.00  0.00    +0.000 C 
BRANCH  13  14
ATOM     14  N   UNL     1      44.871   5.334  12.281  0.00  0.00    +0.000 N 
ATOM     15  C   UNL     1      44.352   4.328  13.062  0.00  0.00    +0.000 A 
ATOM     16  C   UNL     1      44.259   3.194  12.289  0.00  0.00    +0.000 A 
ATOM     17  C   UNL     1      44.726   3.518  10.986  0.00  0.00    +0.000 A 
ATOM     18  C   UNL     1      44.855   2.790   9.796  0.00  0.00    +0.000 A 
ATOM     19  N   UNL     1      45.338   3.380   8.675  0.00  0.00    +0.000 NA
ATOM     20  C   UNL     1      45.692   4.680   8.729  0.00  0.00    +0.000 A 
ATOM     21  C   UNL     1      45.605   5.485   9.855  0.00  0.00    +0.000 A 
ATOM     22  C   UNL     1      45.103   4.863  11.002  0.00  0.00    +0.000 A 
ENDBRANCH  13  14
ENDBRANCH   4  13
TORSDOF 5
ENDMDL
