MODEL 1
REMARK VINA RESULT:    -8.256      0.000      0.000
REMARK INTER + INTRA:         -12.464
REMARK INTER:                 -11.393
REMARK INTRA:                  -1.071
REMARK UNBOUND:                -1.071
REMARK  Name = 
REMARK  8 active torsions:
REMARK  status: ('A' for Active; 'I' for Inactive)
REMARK    1  A    between atoms: C_1  and  C_2
REMARK    2  A    between atoms: C_2  and  C_3
REMARK    3  A    between atoms: C_7  and  C_8
REMARK    4  A    between atoms: C_8  and  C_9
REMARK    5  A    between atoms: C_9  and  N_10
REMARK    6  A    between atoms: N_10  and  C_11
REMARK    7  A    between atoms: C_14  and  C_15
REMARK    8  A    between atoms: C_23  and  O_24
REMARK                            x       y       z     vdW  Elec       q    Type
REMARK                         _______ _______ _______ _____ _____    ______ ____
ROOT
ATOM      1  C   UNL     1      46.821   6.749  12.919  0.00  0.00    +0.000 A 
ATOM      2  C   UNL     1      47.477   5.696  13.572  0.00  0.00    +0.000 A 
ATOM      3  C   UNL     1      46.835   4.475  13.797  0.00  0.00    +0.000 A 
ATOM      4  C   UNL     1      45.514   4.284  13.393  0.00  0.00    +0.000 A 
ATOM      5  C   UNL     1      44.826   5.307  12.738  0.00  0.00    +0.000 A 
ATOM      6  C   UNL     1      45.516   6.504  12.476  0.00  0.00    +0.000 A 
ENDROOT
BRANCH   1   8
ATOM      7  C   UNL     1      46.335   9.105  12.340  0.00  0.00    +0.000 C 
ATOM      8  C   UNL     1      47.463   8.149  12.799  0.00  0.00    +0.000 C 
ATOM      9  C   UNL     1      48.034   8.586  14.172  0.00  0.00    +0.000 C 
ATOM     10  C   UNL     1      48.796   9.915  14.128  0.00  0.00    +0.000 C 
ATOM     11  C   UNL     1      49.890   9.944  13.064  0.00  0.00    +0.000 C 
ATOM     12  C   UNL     1      49.360   9.539  11.695  0.00  0.00    +0.000 C 
ATOM     13  C   UNL     1      48.614   8.205  11.744  0.00  0.00    +0.000 C 
BRANCH  11  14
ATOM     14  O   UNL     1      50.967   9.089  13.441  0.00  0.00    +0.000 OA
ATOM     15  H   UNL     1      50.897   8.254  12.951  0.00  0.00    +0.000 HD
ENDBRANCH  11  14
ENDBRANCH   1   8
BRANCH   5  16
ATOM     16  C   UNL     1      43.355   5.141  12.383  0.00  0.00    +0.000 C 
BRANCH  16  17
ATOM     17  C   UNL     1      43.132   4.314  11.112  0.00  0.00    +0.000 C 
BRANCH  17  18
ATOM     18  N   UNL     1      43.766   4.867   9.919  0.00  0.00    +0.000 N 
ATOM     19  H   UNL     1      44.281   5.724  10.115  0.00  0.00    +0.000 HD
BRANCH  18  20
ATOM     20  C   UNL     1      44.547   3.941   9.191  0.00  0.00    +0.000 A 
ATOM     21  C   UNL     1      45.532   4.330   8.274  0.00  0.00    +0.000 A 
ATOM     22  C   UNL     1      46.354   3.388   7.658  0.00  0.00    +0.000 A 
ATOM     23  C   UNL     1      46.186   2.059   8.000  0.00  0.00    +0.000 A 
ATOM     24  N   UNL     1      45.257   1.614   8.889  0.00  0.00    +0.000 NA
ATOM     25  C   UNL     1      44.481   2.570   9.464  0.00  0.00    +0.000 A 
BRANCH  23  26
ATOM     26  C   UNL     1      47.103   1.039   7.396  0.00  0.00    +0.000 C 
ATOM     27  N   UNL     1      46.811  -0.259   7.707  0.00  0.00    +0.000 N 
ATOM     28  O   UNL     1      48.049   1.336   6.684  0.00  0.00    +0.000 OA
ATOM     29  H   UNL     1      46.044  -0.460   8.339  0.00  0.00    +0.000 HD
ATOM     30  H   UNL     1      47.417  -0.998   7.379  0.00  0.00    +0.000 HD
ENDBRANCH  23  26
ENDBRANCH  18  20
ENDBRANCH  17  18
ENDBRANCH  16  17
ENDBRANCH   5  16
TORSDOF 7
ENDMDL
MODEL 2
REMARK VINA RESULT:    -8.185      1.132      1.350
REMARK INTER + INTRA:         -12.366
REMARK INTER:                 -11.160
REMARK INTRA:                  -1.206
REMARK UNBOUND:                -1.071
REMARK  Name = 
REMARK  8 active torsions:
REMARK  status: ('A' for Active; 'I' for Inactive)
REMARK    1  A    between atoms: C_1  and  C_2
REMARK    2  A    between atoms: C_2  and  C_3
REMARK    3  A    between atoms: C_7  and  C_8
REMARK    4  A    between atoms: C_8  and  C_9
REMARK    5  A    between atoms: C_9  and  N_10
REMARK    6  A    between atoms: N_10  and  C_11
REMARK    7  A    between atoms: C_14  and  C_15
REMARK    8  A    between atoms: C_23  and  O_24
REMARK                            x       y       z     vdW  Elec       q    Type
REMARK                         _______ _______ _______ _____ _____    ______ ____
ROOT
ATOM      1  C   UNL     1      47.044   6.310  13.048  0.00  0.00    +0.000 A 
ATOM      2  C   UNL     1      47.558   5.147  13.640  0.00  0.00    +0.000 A 
ATOM      3  C   UNL     1      46.776   3.995  13.765  0.00  0.00    +0.000 A 
ATOM      4  C   UNL     1      45.454   3.984  13.320  0.00  0.00    +0.000 A 
ATOM      5  C   UNL     1      44.905   5.120  12.725  0.00  0.00    +0.000 A 
ATOM      6  C   UNL     1      45.733   6.246  12.563  0.00  0.00    +0.000 A 
ENDROOT
BRANCH   1   8
ATOM      7  C   UNL     1      46.800   8.768  13.191  0.00  0.00    +0.000 C 
ATOM      8  C   UNL     1      47.841   7.633  13.041  0.00  0.00    +0.000 C 
ATOM      9  C   UNL     1      48.849   7.647  14.219  0.00  0.00    +0.000 C 
ATOM     10  C   UNL     1      49.770   8.871  14.227  0.00  0.00    +0.000 C 
ATOM     11  C   UNL     1      50.500   9.082  12.903  0.00  0.00    +0.000 C 
ATOM     12  C   UNL     1      49.537   9.094  11.722  0.00  0.00    +0.000 C 
ATOM     13  C   UNL     1      48.632   7.862  11.713  0.00  0.00    +0.000 C 
BRANCH  11  14
ATOM     14  O   UNL     1      51.486   8.070  12.716  0.00  0.00    +0.000 OA
ATOM     15  H   UNL     1      51.881   8.170  11.835  0.00  0.00    +0.000 HD
ENDBRANCH  11  14
ENDBRANCH   1   8
BRANCH   5  16
ATOM     16  C   UNL     1      43.436   5.148  12.328  0.00  0.00    +0.000 C 
BRANCH  16  17
ATOM     17  C   UNL     1      43.146   4.377  11.035  0.00  0.00    +0.000 C 
BRANCH  17  18
ATOM     18  N   UNL     1      43.755   4.958   9.843  0.00  0.00    +0.000 N 
ATOM     19  H   UNL     1      44.113   5.897  10.008  0.00  0.00    +0.000 HD
BRANCH  18  20
ATOM     20  C   UNL     1      44.716   4.133   9.217  0.00  0.00    +0.000 A 
ATOM     21  C   UNL     1      44.734   2.740   9.360  0.00  0.00    +0.000 A 
ATOM     22  C   UNL     1      45.632   1.953   8.641  0.00  0.00    +0.000 A 
ATOM     23  C   UNL     1      46.487   2.588   7.760  0.00  0.00    +0.000 A 
ATOM     24  N   UNL     1      46.516   3.934   7.565  0.00  0.00    +0.000 NA
ATOM     25  C   UNL     1      45.622   4.658   8.288  0.00  0.00    +0.000 A 
BRANCH  23  26
ATOM     26  C   UNL     1      47.416   1.754   6.931  0.00  0.00    +0.000 C 
ATOM     27  N   UNL     1      48.520   2.408   6.460  0.00  0.00    +0.000 N 
ATOM     28  O   UNL     1      47.206   0.578   6.680  0.00  0.00    +0.000 OA
ATOM     29  H   UNL     1      48.632   3.397   6.653  0.00  0.00    +0.000 HD
ATOM     30  H   UNL     1      49.163   1.924   5.850  0.00  0.00    +0.000 HD
ENDBRANCH  23  26
ENDBRANCH  18  20
ENDBRANCH  17  18
ENDBRANCH  16  17
ENDBRANCH   5  16
TORSDOF 7
ENDMDL
MODEL 3
REMARK VINA RESULT:    -7.622      2.477      3.460
REMARK INTER + INTRA:         -11.589
REMARK INTER:                 -10.635
REMARK INTRA:                  -0.954
REMARK UNBOUND:                -1.071
REMARK  Name = 
REMARK  8 active torsions:
REMARK  status: ('A' for Active; 'I' for Inactive)
REMARK    1  A    between atoms: C_1  and  C_2
REMARK    2  A    between atoms: C_2  and  C_3
REMARK    3  A    between atoms: C_7  and  C_8
REMARK    4  A    between atoms: C_8  and  C_9
REMARK    5  A    between atoms: C_9  and  N_10
REMARK    6  A    between atoms: N_10  and  C_11
REMARK    7  A    between atoms: C_14  and  C_15
REMARK    8  A    between atoms: C_23  and  O_24
REMARK                            x       y       z     vdW  Elec       q    Type
REMARK                         _______ _______ _______ _____ _____    ______ ____
ROOT
ATOM      1  C   UNL     1      48.387   7.139  14.141  0.00  0.00    +0.000 A 
ATOM      2  C   UNL     1      49.008   7.905  13.143  0.00  0.00    +0.000 A 
ATOM      3  C   UNL     1      48.565   7.859  11.818  0.00  0.00    +0.000 A 
ATOM      4  C   UNL     1      47.503   7.031  11.454  0.00  0.00    +0.000 A 
ATOM      5  C   UNL     1      46.856   6.255  12.417  0.00  0.00    +0.000 A 
ATOM      6  C   UNL     1      47.289   6.364  13.751  0.00  0.00    +0.000 A 
ENDROOT
BRANCH   1   8
ATOM      7  C   UNL     1      50.500   7.090  15.426  0.00  0.00    +0.000 C 
ATOM      8  C   UNL     1      48.960   7.063  15.573  0.00  0.00    +0.000 C 
ATOM      9  C   UNL     1      48.462   8.273  16.405  0.00  0.00    +0.000 C 
ATOM     10  C   UNL     1      48.883   8.224  17.877  0.00  0.00    +0.000 C 
ATOM     11  C   UNL     1      48.505   6.916  18.566  0.00  0.00    +0.000 C 
ATOM     12  C   UNL     1      48.997   5.702  17.786  0.00  0.00    +0.000 C 
ATOM     13  C   UNL     1      48.559   5.752  16.322  0.00  0.00    +0.000 C 
BRANCH  11  14
ATOM     14  O   UNL     1      47.092   6.841  18.742  0.00  0.00    +0.000 OA
ATOM     15  H   UNL     1      46.729   7.741  18.777  0.00  0.00    +0.000 HD
ENDBRANCH  11  14
ENDBRANCH   1   8
BRANCH   5  16
ATOM     16  C   UNL     1      45.764   5.276  12.011  0.00  0.00    +0.000 C 
BRANCH  16  17
ATOM     17  C   UNL     1      44.844   5.822  10.913  0.00  0.00    +0.000 C 
BRANCH  17  18
ATOM     18  N   UNL     1      44.055   4.801  10.231  0.00  0.00    +0.000 N 
ATOM     19  H   UNL     1      43.224   5.186   9.784  0.00  0.00    +0.000 HD
BRANCH  18  20
ATOM     20  C   UNL     1      44.796   3.986   9.346  0.00  0.00    +0.000 A 
ATOM     21  C   UNL     1      45.674   4.505   8.387  0.00  0.00    +0.000 A 
ATOM     22  C   UNL     1      46.467   3.665   7.607  0.00  0.00    +0.000 A 
ATOM     23  C   UNL     1      46.381   2.303   7.829  0.00  0.00    +0.000 A 
ATOM     24  N   UNL     1      45.557   1.733   8.750  0.00  0.00    +0.000 NA
ATOM     25  C   UNL     1      44.805   2.593   9.486  0.00  0.00    +0.000 A 
BRANCH  23  26
ATOM     26  C   UNL     1      47.272   1.388   7.045  0.00  0.00    +0.000 C 
ATOM     27  N   UNL     1      48.364   1.985   6.480  0.00  0.00    +0.000 N 
ATOM     28  O   UNL     1      47.042   0.198   6.905  0.00  0.00    +0.000 OA
ATOM     29  H   UNL     1      48.493   2.986   6.582  0.00  0.00    +0.000 HD
ATOM     30  H   UNL     1      48.980   1.441   5.893  0.00  0.00    +0.000 HD
ENDBRANCH  23  26
ENDBRANCH  18  20
ENDBRANCH  17  18
ENDBRANCH  16  17
ENDBRANCH   5  16
TORSDOF 7
ENDMDL
MODEL 4
REMARK VINA RESULT:    -7.381      1.406      2.226
REMARK INTER + INTRA:         -11.257
REMARK INTER:                 -10.373
REMARK INTRA:                  -0.884
REMARK UNBOUND:                -1.071
REMARK  Name = 
REMARK  8 active torsions:
REMARK  status: ('A' for Active; 'I' for Inactive)
REMARK    1  A    between atoms: C_1  and  C_2
REMARK    2  A    between atoms: C_2  and  C_3
REMARK    3  A    between atoms: C_7  and  C_8
REMARK    4  A    between atoms: C_8  and  C_9
REMARK    5  A    between atoms: C_9  and  N_10
REMARK    6  A    between atoms: N_10  and  C_11
REMARK    7  A    between atoms: C_14  and  C_15
REMARK    8  A    between atoms: C_23  and  O_24
REMARK                            x       y       z     vdW  Elec       q    Type
REMARK                         _______ _______ _______ _____ _____    ______ ____
ROOT
ATOM      1  C   UNL     1      48.163   6.556  14.458  0.00  0.00    +0.000 A 
ATOM      2  C   UNL     1      47.876   5.416  15.223  0.00  0.00    +0.000 A 
ATOM      3  C   UNL     1      46.953   4.464  14.781  0.00  0.00    +0.000 A 
ATOM      4  C   UNL     1      46.280   4.638  13.572  0.00  0.00    +0.000 A 
ATOM      5  C   UNL     1      46.538   5.758  12.780  0.00  0.00    +0.000 A 
ATOM      6  C   UNL     1      47.512   6.671  13.225  0.00  0.00    +0.000 A 
ENDROOT
BRANCH   1   8
ATOM      7  C   UNL     1      50.204   6.996  15.785  0.00  0.00    +0.000 C 
ATOM      8  C   UNL     1      49.062   7.688  15.002  0.00  0.00    +0.000 C 
ATOM      9  C   UNL     1      49.625   8.525  13.826  0.00  0.00    +0.000 C 
ATOM     10  C   UNL     1      50.438   9.746  14.271  0.00  0.00    +0.000 C 
ATOM     11  C   UNL     1      49.683  10.644  15.248  0.00  0.00    +0.000 C 
ATOM     12  C   UNL     1      49.131   9.857  16.430  0.00  0.00    +0.000 C 
ATOM     13  C   UNL     1      48.310   8.650  15.977  0.00  0.00    +0.000 C 
BRANCH  11  14
ATOM     14  O   UNL     1      48.623  11.322  14.577  0.00  0.00    +0.000 OA
ATOM     15  H   UNL     1      48.991  12.065  14.071  0.00  0.00    +0.000 HD
ENDBRANCH  11  14
ENDBRANCH   1   8
BRANCH   5  16
ATOM     16  C   UNL     1      45.736   6.005  11.510  0.00  0.00    +0.000 C 
BRANCH  16  17
ATOM     17  C   UNL     1      44.509   5.094  11.386  0.00  0.00    +0.000 C 
BRANCH  17  18
ATOM     18  N   UNL     1      44.010   4.945  10.022  0.00  0.00    +0.000 N 
ATOM     19  H   UNL     1      43.911   5.840   9.545  0.00  0.00    +0.000 HD
BRANCH  18  20
ATOM     20  C   UNL     1      44.723   4.011   9.238  0.00  0.00    +0.000 A 
ATOM     21  C   UNL     1      45.659   4.388   8.266  0.00  0.00    +0.000 A 
ATOM     22  C   UNL     1      46.420   3.435   7.592  0.00  0.00    +0.000 A 
ATOM     23  C   UNL     1      46.243   2.106   7.930  0.00  0.00    +0.000 A 
ATOM     24  N   UNL     1      45.360   1.672   8.870  0.00  0.00    +0.000 NA
ATOM     25  C   UNL     1      44.642   2.638   9.502  0.00  0.00    +0.000 A 
BRANCH  23  26
ATOM     26  C   UNL     1      47.097   1.073   7.261  0.00  0.00    +0.000 C 
ATOM     27  N   UNL     1      46.847  -0.218   7.635  0.00  0.00    +0.000 N 
ATOM     28  O   UNL     1      47.962   1.353   6.447  0.00  0.00    +0.000 OA
ATOM     29  H   UNL     1      46.150  -0.403   8.349  0.00  0.00    +0.000 HD
ATOM     30  H   UNL     1      47.419  -0.963   7.265  0.00  0.00    +0.000 HD
ENDBRANCH  23  26
ENDBRANCH  18  20
ENDBRANCH  17  18
ENDBRANCH  16  17
ENDBRANCH   5  16
TORSDOF 7
ENDMDL
MODEL 5
REMARK VINA RESULT:    -7.317      1.590      2.357
REMARK INTER + INTRA:         -11.168
REMARK INTER:                 -10.129
REMARK INTRA:                  -1.039
REMARK UNBOUND:                -1.071
REMARK  Name = 
REMARK  8 active torsions:
REMARK  status: ('A' for Active; 'I' for Inactive)
REMARK    1  A    between atoms: C_1  and  C_2
REMARK    2  A    between atoms: C_2  and  C_3
REMARK    3  A    between atoms: C_7  and  C_8
REMARK    4  A    between atoms: C_8  and  C_9
REMARK    5  A    between atoms: C_9  and  N_10
REMARK    6  A    between atoms: N_10  and  C_11
REMARK    7  A    between atoms: C_14  and  C_15
REMARK    8  A    between atoms: C_23  and  O_24
REMARK                            x       y       z     vdW  Elec       q    Type
REMARK                         _______ _______ _______ _____ _____    ______ ____
ROOT
ATOM      1  C   UNL     1      47.127   7.501  12.445  0.00  0.00    +0.000 A 
ATOM      2  C   UNL     1      46.156   8.400  11.979  0.00  0.00    +0.000 A 
ATOM      3  C   UNL     1      44.877   7.962  11.626  0.00  0.00    +0.000 A 
ATOM      4  C   UNL     1      44.543   6.610  11.709  0.00  0.00    +0.000 A 
ATOM      5  C   UNL     1      45.480   5.683  12.169  0.00  0.00    +0.000 A 
ATOM      6  C   UNL     1      46.740   6.162  12.570  0.00  0.00    +0.000 A 
ENDROOT
BRANCH   1   8
ATOM      7  C   UNL     1      49.100   7.099  13.882  0.00  0.00    +0.000 C 
ATOM      8  C   UNL     1      48.585   7.945  12.693  0.00  0.00    +0.000 C 
ATOM      9  C   UNL     1      49.436   7.691  11.423  0.00  0.00    +0.000 C 
ATOM     10  C   UNL     1      50.875   8.208  11.532  0.00  0.00    +0.000 C 
ATOM     11  C   UNL     1      50.955   9.677  11.939  0.00  0.00    +0.000 C 
ATOM     12  C   UNL     1      50.145   9.961  13.197  0.00  0.00    +0.000 C 
ATOM     13  C   UNL     1      48.707   9.455  13.075  0.00  0.00    +0.000 C 
BRANCH  11  14
ATOM     14  O   UNL     1      50.506  10.510  10.873  0.00  0.00    +0.000 OA
ATOM     15  H   UNL     1      49.643  10.190  10.562  0.00  0.00    +0.000 HD
ENDBRANCH  11  14
ENDBRANCH   1   8
BRANCH   5  16
ATOM     16  C   UNL     1      45.156   4.196  12.169  0.00  0.00    +0.000 C 
BRANCH  16  17
ATOM     17  C   UNL     1      43.872   3.859  11.403  0.00  0.00    +0.000 C 
BRANCH  17  18
ATOM     18  N   UNL     1      43.932   2.607  10.655  0.00  0.00    +0.000 N 
ATOM     19  H   UNL     1      43.009   2.212  10.485  0.00  0.00    +0.000 HD
BRANCH  18  20
ATOM     20  C   UNL     1      44.701   2.671   9.471  0.00  0.00    +0.000 A 
ATOM     21  C   UNL     1      44.976   3.872   8.805  0.00  0.00    +0.000 A 
ATOM     22  C   UNL     1      45.828   3.905   7.703  0.00  0.00    +0.000 A 
ATOM     23  C   UNL     1      46.417   2.719   7.303  0.00  0.00    +0.000 A 
ATOM     24  N   UNL     1      46.201   1.521   7.910  0.00  0.00    +0.000 NA
ATOM     25  C   UNL     1      45.364   1.540   8.981  0.00  0.00    +0.000 A 
BRANCH  23  26
ATOM     26  C   UNL     1      47.385   2.746   6.160  0.00  0.00    +0.000 C 
ATOM     27  N   UNL     1      48.681   2.464   6.490  0.00  0.00    +0.000 N 
ATOM     28  O   UNL     1      47.052   3.009   5.015  0.00  0.00    +0.000 OA
ATOM     29  H   UNL     1      48.922   2.296   7.460  0.00  0.00    +0.000 HD
ATOM     30  H   UNL     1      49.397   2.515   5.780  0.00  0.00    +0.000 HD
ENDBRANCH  23  26
ENDBRANCH  18  20
ENDBRANCH  17  18
ENDBRANCH  16  17
ENDBRANCH   5  16
TORSDOF 7
ENDMDL
MODEL 6
REMARK VINA RESULT:    -7.222      1.797      2.476
REMARK INTER + INTRA:         -11.038
REMARK INTER:                  -9.901
REMARK INTRA:                  -1.137
REMARK UNBOUND:                -1.071
REMARK  Name = 
REMARK  8 active torsions:
REMARK  status: ('A' for Active; 'I' for Inactive)
REMARK    1  A    between atoms: C_1  and  C_2
REMARK    2  A    between atoms: C_2  and  C_3
REMARK    3  A    between atoms: C_7  and  C_8
REMARK    4  A    between atoms: C_8  and  C_9
REMARK    5  A    between atoms: C_9  and  N_10
REMARK    6  A    between atoms: N_10  and  C_11
REMARK    7  A    between atoms: C_14  and  C_15
REMARK    8  A    between atoms: C_23  and  O_24
REMARK                            x       y       z     vdW  Elec       q    Type
REMARK                         _______ _______ _______ _____ _____    ______ ____
ROOT
ATOM      1  C   UNL     1      46.583   7.105  12.969  0.00  0.00    +0.000 A 
ATOM      2  C   UNL     1      45.908   8.023  12.150  0.00  0.00    +0.000 A 
ATOM      3  C   UNL     1      44.737   7.663  11.476  0.00  0.00    +0.000 A 
ATOM      4  C   UNL     1      44.224   6.371  11.588  0.00  0.00    +0.000 A 
ATOM      5  C   UNL     1      44.864   5.429  12.394  0.00  0.00    +0.000 A 
ATOM      6  C   UNL     1      46.009   5.836  13.103  0.00  0.00    +0.000 A 
ENDROOT
BRANCH   1   8
ATOM      7  C   UNL     1      49.010   7.172  12.496  0.00  0.00    +0.000 C 
ATOM      8  C   UNL     1      47.955   7.439  13.595  0.00  0.00    +0.000 C 
ATOM      9  C   UNL     1      47.983   8.924  14.041  0.00  0.00    +0.000 C 
ATOM     10  C   UNL     1      49.264   9.321  14.782  0.00  0.00    +0.000 C 
ATOM     11  C   UNL     1      49.581   8.407  15.962  0.00  0.00    +0.000 C 
ATOM     12  C   UNL     1      49.583   6.938  15.557  0.00  0.00    +0.000 C 
ATOM     13  C   UNL     1      48.295   6.547  14.832  0.00  0.00    +0.000 C 
BRANCH  11  14
ATOM     14  O   UNL     1      48.646   8.620  17.017  0.00  0.00    +0.000 OA
ATOM     15  H   UNL     1      47.853   9.050  16.657  0.00  0.00    +0.000 HD
ENDBRANCH  11  14
ENDBRANCH   1   8
BRANCH   5  16
ATOM     16  C   UNL     1      44.367   3.991  12.442  0.00  0.00    +0.000 C 
BRANCH  16  17
ATOM     17  C   UNL     1      43.432   3.638  11.280  0.00  0.00    +0.000 C 
BRANCH  17  18
ATOM     18  N   UNL     1      43.746   2.374  10.621  0.00  0.00    +0.000 N 
ATOM     19  H   UNL     1      42.911   1.838  10.392  0.00  0.00    +0.000 HD
BRANCH  18  20
ATOM     20  C   UNL     1      44.614   2.494   9.512  0.00  0.00    +0.000 A 
ATOM     21  C   UNL     1      45.014   3.730   8.988  0.00  0.00    +0.000 A 
ATOM     22  C   UNL     1      45.955   3.806   7.963  0.00  0.00    +0.000 A 
ATOM     23  C   UNL     1      46.503   2.625   7.497  0.00  0.00    +0.000 A 
ATOM     24  N   UNL     1      46.167   1.393   7.968  0.00  0.00    +0.000 NA
ATOM     25  C   UNL     1      45.247   1.370   8.967  0.00  0.00    +0.000 A 
BRANCH  23  26
ATOM     26  C   UNL     1      47.562   2.691   6.440  0.00  0.00    +0.000 C 
ATOM     27  N   UNL     1      47.207   3.361   5.303  0.00  0.00    +0.000 N 
ATOM     28  O   UNL     1      48.662   2.178   6.570  0.00  0.00    +0.000 OA
ATOM     29  H   UNL     1      46.267   3.733   5.217  0.00  0.00    +0.000 HD
ATOM     30  H   UNL     1      47.851   3.400   4.526  0.00  0.00    +0.000 HD
ENDBRANCH  23  26
ENDBRANCH  18  20
ENDBRANCH  17  18
ENDBRANCH  16  17
ENDBRANCH   5  16
TORSDOF 7
ENDMDL
MODEL 7
REMARK VINA RESULT:    -7.117      3.461      7.679
REMARK INTER + INTRA:         -10.893
REMARK INTER:                 -10.086
REMARK INTRA:                  -0.806
REMARK UNBOUND:                -1.071
REMARK  Name = 
REMARK  8 active torsions:
REMARK  status: ('A' for Active; 'I' for Inactive)
REMARK    1  A    between atoms: C_1  and  C_2
REMARK    2  A    between atoms: C_2  and  C_3
REMARK    3  A    between atoms: C_7  and  C_8
REMARK    4  A    between atoms: C_8  and  C_9
REMARK    5  A    between atoms: C_9  and  N_10
REMARK    6  A    between atoms: N_10  and  C_11
REMARK    7  A    between atoms: C_14  and  C_15
REMARK    8  A    between atoms: C_23  and  O_24
REMARK                            x       y       z     vdW  Elec       q    Type
REMARK                         _______ _______ _______ _____ _____    ______ ____
ROOT
ATOM      1  C   UNL     1      45.233   3.753   9.537  0.00  0.00    +0.000 A 
ATOM      2  C   UNL     1      44.697   2.978  10.575  0.00  0.00    +0.000 A 
ATOM      3  C   UNL     1      44.524   3.508  11.856  0.00  0.00    +0.000 A 
ATOM      4  C   UNL     1      44.903   4.820  12.138  0.00  0.00    +0.000 A 
ATOM      5  C   UNL     1      45.439   5.626  11.132  0.00  0.00    +0.000 A 
ATOM      6  C   UNL     1      45.550   5.083   9.839  0.00  0.00    +0.000 A 
ENDROOT
BRANCH   1   8
ATOM      7  C   UNL     1      44.221   2.958   7.424  0.00  0.00    +0.000 C 
ATOM      8  C   UNL     1      45.570   3.139   8.160  0.00  0.00    +0.000 C 
ATOM      9  C   UNL     1      46.508   4.090   7.374  0.00  0.00    +0.000 C 
ATOM     10  C   UNL     1      46.993   3.513   6.039  0.00  0.00    +0.000 C 
ATOM     11  C   UNL     1      47.633   2.135   6.180  0.00  0.00    +0.000 C 
ATOM     12  C   UNL     1      46.731   1.165   6.932  0.00  0.00    +0.000 C 
ATOM     13  C   UNL     1      46.263   1.742   8.269  0.00  0.00    +0.000 C 
BRANCH  11  14
ATOM     14  O   UNL     1      48.892   2.240   6.841  0.00  0.00    +0.000 OA
ATOM     15  H   UNL     1      48.931   3.086   7.317  0.00  0.00    +0.000 HD
ENDBRANCH  11  14
ENDBRANCH   1   8
BRANCH   5  16
ATOM     16  C   UNL     1      45.946   7.025  11.454  0.00  0.00    +0.000 C 
BRANCH  16  17
ATOM     17  C   UNL     1      46.330   7.202  12.928  0.00  0.00    +0.000 C 
BRANCH  17  18
ATOM     18  N   UNL     1      47.717   6.862  13.230  0.00  0.00    +0.000 N 
ATOM     19  H   UNL     1      48.311   7.687  13.306  0.00  0.00    +0.000 HD
BRANCH  18  20
ATOM     20  C   UNL     1      47.879   5.996  14.334  0.00  0.00    +0.000 A 
ATOM     21  C   UNL     1      48.531   6.380  15.514  0.00  0.00    +0.000 A 
ATOM     22  C   UNL     1      48.574   5.533  16.620  0.00  0.00    +0.000 A 
ATOM     23  C   UNL     1      47.930   4.314  16.528  0.00  0.00    +0.000 A 
ATOM     24  N   UNL     1      47.272   3.883  15.418  0.00  0.00    +0.000 NA
ATOM     25  C   UNL     1      47.256   4.744  14.366  0.00  0.00    +0.000 A 
BRANCH  23  26
ATOM     26  C   UNL     1      47.912   3.417  17.728  0.00  0.00    +0.000 C 
ATOM     27  N   UNL     1      46.862   2.543  17.784  0.00  0.00    +0.000 N 
ATOM     28  O   UNL     1      48.762   3.462  18.603  0.00  0.00    +0.000 OA
ATOM     29  H   UNL     1      46.153   2.571  17.060  0.00  0.00    +0.000 HD
ATOM     30  H   UNL     1      46.755   1.945  18.591  0.00  0.00    +0.000 HD
ENDBRANCH  23  26
ENDBRANCH  18  20
ENDBRANCH  17  18
ENDBRANCH  16  17
ENDBRANCH   5  16
TORSDOF 7
ENDMDL
MODEL 8
REMARK VINA RESULT:    -6.925      3.563      5.804
REMARK INTER + INTRA:         -10.627
REMARK INTER:                  -9.419
REMARK INTRA:                  -1.208
REMARK UNBOUND:                -1.071
REMARK  Name = 
REMARK  8 active torsions:
REMARK  status: ('A' for Active; 'I' for Inactive)
REMARK    1  A    between atoms: C_1  and  C_2
REMARK    2  A    between atoms: C_2  and  C_3
REMARK    3  A    between atoms: C_7  and  C_8
REMARK    4  A    between atoms: C_8  and  C_9
REMARK    5  A    between atoms: C_9  and  N_10
REMARK    6  A    between atoms: N_10  and  C_11
REMARK    7  A    between atoms: C_14  and  C_15
REMARK    8  A    between atoms: C_23  and  O_24
REMARK                            x       y       z     vdW  Elec       q    Type
REMARK                         _______ _______ _______ _____ _____    ______ ____
ROOT
ATOM      1  C   UNL     1      48.761   6.560  16.424  0.00  0.00    +0.000 A 
ATOM      2  C   UNL     1      49.110   7.773  17.035  0.00  0.00    +0.000 A 
ATOM      3  C   UNL     1      49.181   8.959  16.298  0.00  0.00    +0.000 A 
ATOM      4  C   UNL     1      48.925   8.957  14.927  0.00  0.00    +0.000 A 
ATOM      5  C   UNL     1      48.573   7.771  14.280  0.00  0.00    +0.000 A 
ATOM      6  C   UNL     1      48.456   6.605  15.059  0.00  0.00    +0.000 A 
ENDROOT
BRANCH   1   8
ATOM      7  C   UNL     1      48.520   5.554  18.670  0.00  0.00    +0.000 C 
ATOM      8  C   UNL     1      48.827   5.221  17.191  0.00  0.00    +0.000 C 
ATOM      9  C   UNL     1      47.779   4.233  16.616  0.00  0.00    +0.000 C 
ATOM     10  C   UNL     1      47.847   2.833  17.237  0.00  0.00    +0.000 C 
ATOM     11  C   UNL     1      49.243   2.219  17.179  0.00  0.00    +0.000 C 
ATOM     12  C   UNL     1      50.298   3.155  17.754  0.00  0.00    +0.000 C 
ATOM     13  C   UNL     1      50.234   4.545  17.120  0.00  0.00    +0.000 C 
BRANCH  11  14
ATOM     14  O   UNL     1      49.577   1.878  15.835  0.00  0.00    +0.000 OA
ATOM     15  H   UNL     1      50.368   2.374  15.568  0.00  0.00    +0.000 HD
ENDBRANCH  11  14
ENDBRANCH   1   8
BRANCH   5  16
ATOM     16  C   UNL     1      48.390   7.742  12.769  0.00  0.00    +0.000 C 
BRANCH  16  17
ATOM     17  C   UNL     1      47.036   8.301  12.317  0.00  0.00    +0.000 C 
BRANCH  17  18
ATOM     18  N   UNL     1      45.899   7.813  13.090  0.00  0.00    +0.000 N 
ATOM     19  H   UNL     1      45.202   8.538  13.254  0.00  0.00    +0.000 HD
BRANCH  18  20
ATOM     20  C   UNL     1      45.315   6.630  12.586  0.00  0.00    +0.000 A 
ATOM     21  C   UNL     1      44.995   6.454  11.233  0.00  0.00    +0.000 A 
ATOM     22  C   UNL     1      44.521   5.232  10.758  0.00  0.00    +0.000 A 
ATOM     23  C   UNL     1      44.403   4.189  11.658  0.00  0.00    +0.000 A 
ATOM     24  N   UNL     1      44.705   4.288  12.981  0.00  0.00    +0.000 NA
ATOM     25  C   UNL     1      45.164   5.498  13.396  0.00  0.00    +0.000 A 
BRANCH  23  26
ATOM     26  C   UNL     1      43.956   2.851  11.154  0.00  0.00    +0.000 C 
ATOM     27  N   UNL     1      44.668   2.362  10.095  0.00  0.00    +0.000 N 
ATOM     28  O   UNL     1      43.019   2.238  11.640  0.00  0.00    +0.000 OA
ATOM     29  H   UNL     1      45.410   2.924   9.692  0.00  0.00    +0.000 HD
ATOM     30  H   UNL     1      44.390   1.490   9.668  0.00  0.00    +0.000 HD
ENDBRANCH  23  26
ENDBRANCH  18  20
ENDBRANCH  17  18
ENDBRANCH  16  17
ENDBRANCH   5  16
TORSDOF 7
ENDMDL
MODEL 9
REMARK VINA RESULT:    -6.853      4.242      6.970
REMARK INTER + INTRA:         -10.529
REMARK INTER:                  -8.905
REMARK INTRA:                  -1.624
REMARK UNBOUND:                -1.071
REMARK  Name = 
REMARK  8 active torsions:
REMARK  status: ('A' for Active; 'I' for Inactive)
REMARK    1  A    between atoms: C_1  and  C_2
REMARK    2  A    between atoms: C_2  and  C_3
REMARK    3  A    between atoms: C_7  and  C_8
REMARK    4  A    between atoms: C_8  and  C_9
REMARK    5  A    between atoms: C_9  and  N_10
REMARK    6  A    between atoms: N_10  and  C_11
REMARK    7  A    between atoms: C_14  and  C_15
REMARK    8  A    between atoms: C_23  and  O_24
REMARK                            x       y       z     vdW  Elec       q    Type
REMARK                         _______ _______ _______ _____ _____    ______ ____
ROOT
ATOM      1  C   UNL     1      48.306   6.716  17.828  0.00  0.00    +0.000 A 
ATOM      2  C   UNL     1      47.876   7.581  18.845  0.00  0.00    +0.000 A 
ATOM      3  C   UNL     1      47.852   8.965  18.652  0.00  0.00    +0.000 A 
ATOM      4  C   UNL     1      48.277   9.520  17.445  0.00  0.00    +0.000 A 
ATOM      5  C   UNL     1      48.711   8.694  16.407  0.00  0.00    +0.000 A 
ATOM      6  C   UNL     1      48.672   7.302  16.611  0.00  0.00    +0.000 A 
ENDROOT
BRANCH   1   8
ATOM      7  C   UNL     1      48.624   5.028  19.609  0.00  0.00    +0.000 C 
ATOM      8  C   UNL     1      48.483   5.202  18.077  0.00  0.00    +0.000 C 
ATOM      9  C   UNL     1      47.247   4.433  17.545  0.00  0.00    +0.000 C 
ATOM     10  C   UNL     1      47.380   2.909  17.642  0.00  0.00    +0.000 C 
ATOM     11  C   UNL     1      48.656   2.377  16.994  0.00  0.00    +0.000 C 
ATOM     12  C   UNL     1      49.896   3.097  17.509  0.00  0.00    +0.000 C 
ATOM     13  C   UNL     1      49.760   4.615  17.395  0.00  0.00    +0.000 C 
BRANCH  11  14
ATOM     14  O   UNL     1      48.577   2.498  15.576  0.00  0.00    +0.000 OA
ATOM     15  H   UNL     1      47.970   1.821  15.232  0.00  0.00    +0.000 HD
ENDBRANCH  11  14
ENDBRANCH   1   8
BRANCH   5  16
ATOM     16  C   UNL     1      49.269   9.296  15.125  0.00  0.00    +0.000 C 
BRANCH  16  17
ATOM     17  C   UNL     1      48.294   9.209  13.945  0.00  0.00    +0.000 C 
BRANCH  17  18
ATOM     18  N   UNL     1      48.497   8.048  13.085  0.00  0.00    +0.000 N 
ATOM     19  H   UNL     1      49.365   7.557  13.294  0.00  0.00    +0.000 HD
BRANCH  18  20
ATOM     20  C   UNL     1      47.396   7.163  13.029  0.00  0.00    +0.000 A 
ATOM     21  C   UNL     1      47.436   5.864  13.550  0.00  0.00    +0.000 A 
ATOM     22  C   UNL     1      46.296   5.062  13.572  0.00  0.00    +0.000 A 
ATOM     23  C   UNL     1      45.117   5.598  13.088  0.00  0.00    +0.000 A 
ATOM     24  N   UNL     1      45.007   6.855  12.577  0.00  0.00    +0.000 NA
ATOM     25  C   UNL     1      46.144   7.598  12.579  0.00  0.00    +0.000 A 
BRANCH  23  26
ATOM     26  C   UNL     1      43.868   4.775  13.161  0.00  0.00    +0.000 C 
ATOM     27  N   UNL     1      42.701   5.478  13.049  0.00  0.00    +0.000 N 
ATOM     28  O   UNL     1      43.879   3.564  13.319  0.00  0.00    +0.000 OA
ATOM     29  H   UNL     1      42.735   6.488  12.964  0.00  0.00    +0.000 HD
ATOM     30  H   UNL     1      41.819   4.996  13.142  0.00  0.00    +0.000 HD
ENDBRANCH  23  26
ENDBRANCH  18  20
ENDBRANCH  17  18
ENDBRANCH  16  17
ENDBRANCH   5  16
TORSDOF 7
ENDMDL
