MODEL 1
REMARK VINA RESULT:    -8.861      0.000      0.000
REMARK INTER + INTRA:         -11.903
REMARK INTER:                 -11.969
REMARK INTRA:                   0.066
REMARK UNBOUND:                 0.066
REMARK  Name = 
REMARK  7 active torsions:
REMARK  status: ('A' for Active; 'I' for Inactive)
REMARK    1  A    between atoms: N_1  and  C_2
REMARK    2  A    between atoms: C_2  and  C_3
REMARK    3  A    between atoms: C_3  and  O_4
REMARK    4  A    between atoms: C_3  and  C_5
REMARK    5  A    between atoms: C_8  and  C_9
REMARK    6  A    between atoms: C_9  and  N_10
REMARK    7  A    between atoms: C_15  and  C_16
REMARK                            x       y       z     vdW  Elec       q    Type
REMARK                         _______ _______ _______ _____ _____    ______ ____
ROOT
ATOM      1  C   UNL     1      44.686   5.793  11.160  0.00  0.00    +0.000 C 
ENDROOT
BRANCH   1   2
ATOM      2  N   UNL     1      44.263   4.658  10.349  0.00  0.00    +0.000 N 
ATOM      3  N   UNL     1      43.405   3.760  10.877  0.00  0.00    +0.000 NA
ATOM      4  N   UNL     1      43.710   2.578  10.360  0.00  0.00    +0.000 NA
ATOM      5  C   UNL     1      44.690   2.766   9.426  0.00  0.00    +0.000 A 
ATOM      6  C   UNL     1      45.441   1.839   8.695  0.00  0.00    +0.000 A 
ATOM      7  C   UNL     1      46.409   2.330   7.804  0.00  0.00    +0.000 A 
ATOM      8  C   UNL     1      46.552   3.709   7.577  0.00  0.00    +0.000 A 
ATOM      9  C   UNL     1      45.836   4.643   8.333  0.00  0.00    +0.000 A 
ATOM     10  C   UNL     1      44.951   4.125   9.284  0.00  0.00    +0.000 A 
BRANCH   7  11
ATOM     11  C   UNL     1      47.320   1.399   7.093  0.00  0.00    +0.000 C 
ATOM     12  N   UNL     1      48.408   1.955   6.480  0.00  0.00    +0.000 N 
ATOM     13  O   UNL     1      47.081   0.203   7.001  0.00  0.00    +0.000 OA
ATOM     14  H   UNL     1      48.492   2.954   6.318  0.00  0.00    +0.000 HD
ATOM     15  H   UNL     1      48.961   1.339   5.893  0.00  0.00    +0.000 HD
ENDBRANCH   7  11
ENDBRANCH   1   2
BRANCH   1  19
ATOM     16  C   UNL     1      47.114   4.499  14.516  0.00  0.00    +0.000 A 
ATOM     17  C   UNL     1      46.369   3.567  13.779  0.00  0.00    +0.000 A 
ATOM     18  C   UNL     1      45.624   3.970  12.665  0.00  0.00    +0.000 A 
ATOM     19  C   UNL     1      45.609   5.313  12.264  0.00  0.00    +0.000 A 
ATOM     20  C   UNL     1      46.372   6.239  12.990  0.00  0.00    +0.000 A 
ATOM     21  C   UNL     1      47.120   5.836  14.093  0.00  0.00    +0.000 A 
BRANCH  16  22
ATOM     22  C   UNL     1      47.904   4.063  15.730  0.00  0.00    +0.000 C 
BRANCH  22  23
ATOM     23  O   UNL     1      48.293   2.693  15.573  0.00  0.00    +0.000 OA
ATOM     24  H   UNL     1      49.052   2.561  16.170  0.00  0.00    +0.000 HD
ENDBRANCH  22  23
BRANCH  22  25
ATOM     25  C   UNL     1      47.087   4.244  17.033  0.00  0.00    +0.000 C 
BRANCH  25  26
ATOM     26  N   UNL     1      46.699   2.950  17.617  0.00  0.00    +0.000 NA
ATOM     27  H   UNL     1      45.860   2.613  17.144  0.00  0.00    +0.000 HD
ATOM     28  H   UNL     1      46.428   3.087  18.592  0.00  0.00    +0.000 HD
ENDBRANCH  25  26
ENDBRANCH  22  25
ENDBRANCH  16  22
ENDBRANCH   1  19
TORSDOF 7
ENDMDL
MODEL 2
REMARK VINA RESULT:    -8.700      1.971      2.253
REMARK INTER + INTRA:         -11.686
REMARK INTER:                 -10.872
REMARK INTRA:                  -0.814
REMARK UNBOUND:                 0.066
REMARK  Name = 
REMARK  7 active torsions:
REMARK  status: ('A' for Active; 'I' for Inactive)
REMARK    1  A    between atoms: N_1  and  C_2
REMARK    2  A    between atoms: C_2  and  C_3
REMARK    3  A    between atoms: C_3  and  O_4
REMARK    4  A    between atoms: C_3  and  C_5
REMARK    5  A    between atoms: C_8  and  C_9
REMARK    6  A    between atoms: C_9  and  N_10
REMARK    7  A    between atoms: C_15  and  C_16
REMARK                            x       y       z     vdW  Elec       q    Type
REMARK                         _______ _______ _______ _____ _____    ______ ____
ROOT
ATOM      1  C   UNL     1      43.644   5.541  10.938  0.00  0.00    +0.000 C 
ENDROOT
BRANCH   1   2
ATOM      2  N   UNL     1      43.592   4.221  10.323  0.00  0.00    +0.000 N 
ATOM      3  N   UNL     1      43.132   3.180  11.047  0.00  0.00    +0.000 NA
ATOM      4  N   UNL     1      43.795   2.103  10.648  0.00  0.00    +0.000 NA
ATOM      5  C   UNL     1      44.591   2.464   9.597  0.00  0.00    +0.000 A 
ATOM      6  C   UNL     1      45.571   1.741   8.908  0.00  0.00    +0.000 A 
ATOM      7  C   UNL     1      46.253   2.386   7.863  0.00  0.00    +0.000 A 
ATOM      8  C   UNL     1      45.896   3.682   7.456  0.00  0.00    +0.000 A 
ATOM      9  C   UNL     1      44.948   4.427   8.165  0.00  0.00    +0.000 A 
ATOM     10  C   UNL     1      44.357   3.793   9.263  0.00  0.00    +0.000 A 
BRANCH   7  11
ATOM     11  C   UNL     1      47.386   1.717   7.177  0.00  0.00    +0.000 C 
ATOM     12  N   UNL     1      48.333   2.530   6.621  0.00  0.00    +0.000 N 
ATOM     13  O   UNL     1      47.441   0.501   7.054  0.00  0.00    +0.000 OA
ATOM     14  H   UNL     1      48.184   3.525   6.480  0.00  0.00    +0.000 HD
ATOM     15  H   UNL     1      49.039   2.079   6.047  0.00  0.00    +0.000 HD
ENDBRANCH   7  11
ENDBRANCH   1   2
BRANCH   1  19
ATOM     16  C   UNL     1      47.345   6.316  13.068  0.00  0.00    +0.000 A 
ATOM     17  C   UNL     1      46.367   5.481  13.627  0.00  0.00    +0.000 A 
ATOM     18  C   UNL     1      45.193   5.187  12.924  0.00  0.00    +0.000 A 
ATOM     19  C   UNL     1      44.974   5.720  11.646  0.00  0.00    +0.000 A 
ATOM     20  C   UNL     1      45.964   6.537  11.080  0.00  0.00    +0.000 A 
ATOM     21  C   UNL     1      47.135   6.822  11.778  0.00  0.00    +0.000 A 
BRANCH  16  22
ATOM     22  C   UNL     1      48.605   6.646  13.838  0.00  0.00    +0.000 C 
BRANCH  22  23
ATOM     23  O   UNL     1      48.618   5.902  15.062  0.00  0.00    +0.000 OA
ATOM     24  H   UNL     1      48.385   6.537  15.764  0.00  0.00    +0.000 HD
ENDBRANCH  22  23
BRANCH  22  25
ATOM     25  C   UNL     1      48.708   8.163  14.131  0.00  0.00    +0.000 C 
BRANCH  25  26
ATOM     26  N   UNL     1      47.486   8.681  14.765  0.00  0.00    +0.000 NA
ATOM     27  H   UNL     1      47.598   8.645  15.779  0.00  0.00    +0.000 HD
ATOM     28  H   UNL     1      46.705   8.058  14.553  0.00  0.00    +0.000 HD
ENDBRANCH  25  26
ENDBRANCH  22  25
ENDBRANCH  16  22
ENDBRANCH   1  19
TORSDOF 7
ENDMDL
MODEL 3
REMARK VINA RESULT:    -8.448      2.271      6.740
REMARK INTER + INTRA:         -11.345
REMARK INTER:                 -10.901
REMARK INTRA:                  -0.445
REMARK UNBOUND:                 0.066
REMARK  Name = 
REMARK  7 active torsions:
REMARK  status: ('A' for Active; 'I' for Inactive)
REMARK    1  A    between atoms: N_1  and  C_2
REMARK    2  A    between atoms: C_2  and  C_3
REMARK    3  A    between atoms: C_3  and  O_4
REMARK    4  A    between atoms: C_3  and  C_5
REMARK    5  A    between atoms: C_8  and  C_9
REMARK    6  A    between atoms: C_9  and  N_10
REMARK    7  A    between atoms: C_15  and  C_16
REMARK                            x       y       z     vdW  Elec       q    Type
REMARK                         _______ _______ _______ _____ _____    ______ ____
ROOT
ATOM      1  C   UNL     1      43.214   3.195  11.234  0.00  0.00    +0.000 C 
ENDROOT
BRANCH   1   2
ATOM      2  N   UNL     1      43.464   4.393  12.025  0.00  0.00    +0.000 N 
ATOM      3  N   UNL     1      42.696   5.484  11.822  0.00  0.00    +0.000 NA
ATOM      4  N   UNL     1      43.462   6.545  12.035  0.00  0.00    +0.000 NA
ATOM      5  C   UNL     1      44.679   6.106  12.477  0.00  0.00    +0.000 A 
ATOM      6  C   UNL     1      45.866   6.806  12.719  0.00  0.00    +0.000 A 
ATOM      7  C   UNL     1      46.983   6.077  13.159  0.00  0.00    +0.000 A 
ATOM      8  C   UNL     1      46.886   4.705  13.445  0.00  0.00    +0.000 A 
ATOM      9  C   UNL     1      45.717   3.990  13.166  0.00  0.00    +0.000 A 
ATOM     10  C   UNL     1      44.653   4.725  12.634  0.00  0.00    +0.000 A 
BRANCH   7  11
ATOM     11  C   UNL     1      48.302   6.739  13.314  0.00  0.00    +0.000 C 
ATOM     12  N   UNL     1      48.647   7.651  12.355  0.00  0.00    +0.000 N 
ATOM     13  O   UNL     1      49.073   6.442  14.215  0.00  0.00    +0.000 OA
ATOM     14  H   UNL     1      48.154   7.725  11.471  0.00  0.00    +0.000 HD
ATOM     15  H   UNL     1      49.595   8.010  12.392  0.00  0.00    +0.000 HD
ENDBRANCH   7  11
ENDBRANCH   1   2
BRANCH   1  19
ATOM     16  C   UNL     1      46.140   3.167   8.030  0.00  0.00    +0.000 A 
ATOM     17  C   UNL     1      45.715   1.964   8.612  0.00  0.00    +0.000 A 
ATOM     18  C   UNL     1      44.735   1.962   9.611  0.00  0.00    +0.000 A 
ATOM     19  C   UNL     1      44.158   3.163  10.047  0.00  0.00    +0.000 A 
ATOM     20  C   UNL     1      44.570   4.362   9.448  0.00  0.00    +0.000 A 
ATOM     21  C   UNL     1      45.540   4.362   8.449  0.00  0.00    +0.000 A 
BRANCH  16  22
ATOM     22  C   UNL     1      47.213   3.167   6.963  0.00  0.00    +0.000 C 
BRANCH  22  23
ATOM     23  O   UNL     1      46.790   3.990   5.869  0.00  0.00    +0.000 OA
ATOM     24  H   UNL     1      47.545   4.572   5.665  0.00  0.00    +0.000 HD
ENDBRANCH  22  23
BRANCH  22  25
ATOM     25  C   UNL     1      47.521   1.733   6.468  0.00  0.00    +0.000 C 
BRANCH  25  26
ATOM     26  N   UNL     1      48.578   1.724   5.444  0.00  0.00    +0.000 NA
ATOM     27  H   UNL     1      49.023   2.643   5.421  0.00  0.00    +0.000 HD
ATOM     28  H   UNL     1      48.156   1.599   4.523  0.00  0.00    +0.000 HD
ENDBRANCH  25  26
ENDBRANCH  22  25
ENDBRANCH  16  22
ENDBRANCH   1  19
TORSDOF 7
ENDMDL
MODEL 4
REMARK VINA RESULT:    -7.912      2.634      7.496
REMARK INTER + INTRA:         -10.621
REMARK INTER:                  -9.985
REMARK INTRA:                  -0.636
REMARK UNBOUND:                 0.066
REMARK  Name = 
REMARK  7 active torsions:
REMARK  status: ('A' for Active; 'I' for Inactive)
REMARK    1  A    between atoms: N_1  and  C_2
REMARK    2  A    between atoms: C_2  and  C_3
REMARK    3  A    between atoms: C_3  and  O_4
REMARK    4  A    between atoms: C_3  and  C_5
REMARK    5  A    between atoms: C_8  and  C_9
REMARK    6  A    between atoms: C_9  and  N_10
REMARK    7  A    between atoms: C_15  and  C_16
REMARK                            x       y       z     vdW  Elec       q    Type
REMARK                         _______ _______ _______ _____ _____    ______ ____
ROOT
ATOM      1  C   UNL     1      44.585   4.709  11.284  0.00  0.00    +0.000 C 
ENDROOT
BRANCH   1   2
ATOM      2  N   UNL     1      45.717   4.672  12.201  0.00  0.00    +0.000 N 
ATOM      3  N   UNL     1      45.710   3.779  13.213  0.00  0.00    +0.000 NA
ATOM      4  N   UNL     1      46.344   4.342  14.233  0.00  0.00    +0.000 NA
ATOM      5  C   UNL     1      46.839   5.545  13.811  0.00  0.00    +0.000 A 
ATOM      6  C   UNL     1      47.466   6.572  14.525  0.00  0.00    +0.000 A 
ATOM      7  C   UNL     1      47.859   7.720  13.820  0.00  0.00    +0.000 A 
ATOM      8  C   UNL     1      47.718   7.798  12.424  0.00  0.00    +0.000 A 
ATOM      9  C   UNL     1      47.055   6.795  11.708  0.00  0.00    +0.000 A 
ATOM     10  C   UNL     1      46.586   5.708  12.454  0.00  0.00    +0.000 A 
BRANCH   7  11
ATOM     11  C   UNL     1      48.415   8.893  14.539  0.00  0.00    +0.000 C 
ATOM     12  N   UNL     1      47.805   9.239  15.712  0.00  0.00    +0.000 N 
ATOM     13  O   UNL     1      49.332   9.559  14.078  0.00  0.00    +0.000 OA
ATOM     14  H   UNL     1      46.897   8.875  15.983  0.00  0.00    +0.000 HD
ATOM     15  H   UNL     1      48.105  10.111  16.138  0.00  0.00    +0.000 HD
ENDBRANCH   7  11
ENDBRANCH   1   2
BRANCH   1  19
ATOM     16  C   UNL     1      45.887   2.585   7.731  0.00  0.00    +0.000 A 
ATOM     17  C   UNL     1      45.309   1.888   8.801  0.00  0.00    +0.000 A 
ATOM     18  C   UNL     1      44.841   2.572   9.929  0.00  0.00    +0.000 A 
ATOM     19  C   UNL     1      44.940   3.967  10.008  0.00  0.00    +0.000 A 
ATOM     20  C   UNL     1      45.499   4.664   8.927  0.00  0.00    +0.000 A 
ATOM     21  C   UNL     1      45.957   3.983   7.802  0.00  0.00    +0.000 A 
BRANCH  16  22
ATOM     22  C   UNL     1      46.408   1.840   6.521  0.00  0.00    +0.000 C 
BRANCH  22  23
ATOM     23  O   UNL     1      47.232   0.751   6.956  0.00  0.00    +0.000 OA
ATOM     24  H   UNL     1      48.036   0.789   6.405  0.00  0.00    +0.000 HD
ENDBRANCH  22  23
BRANCH  22  25
ATOM     25  C   UNL     1      47.207   2.776   5.580  0.00  0.00    +0.000 C 
BRANCH  25  26
ATOM     26  N   UNL     1      48.544   2.238   5.283  0.00  0.00    +0.000 NA
ATOM     27  H   UNL     1      49.036   2.073   6.162  0.00  0.00    +0.000 HD
ATOM     28  H   UNL     1      49.091   2.946   4.791  0.00  0.00    +0.000 HD
ENDBRANCH  25  26
ENDBRANCH  22  25
ENDBRANCH  16  22
ENDBRANCH   1  19
TORSDOF 7
ENDMDL
MODEL 5
REMARK VINA RESULT:    -7.517      3.156      4.635
REMARK INTER + INTRA:         -10.089
REMARK INTER:                  -9.510
REMARK INTRA:                  -0.579
REMARK UNBOUND:                 0.066
REMARK  Name = 
REMARK  7 active torsions:
REMARK  status: ('A' for Active; 'I' for Inactive)
REMARK    1  A    between atoms: N_1  and  C_2
REMARK    2  A    between atoms: C_2  and  C_3
REMARK    3  A    between atoms: C_3  and  O_4
REMARK    4  A    between atoms: C_3  and  C_5
REMARK    5  A    between atoms: C_8  and  C_9
REMARK    6  A    between atoms: C_9  and  N_10
REMARK    7  A    between atoms: C_15  and  C_16
REMARK                            x       y       z     vdW  Elec       q    Type
REMARK                         _______ _______ _______ _____ _____    ______ ____
ROOT
ATOM      1  C   UNL     1      44.711   4.525  12.217  0.00  0.00    +0.000 C 
ENDROOT
BRANCH   1   2
ATOM      2  N   UNL     1      44.281   3.830  11.010  0.00  0.00    +0.000 N 
ATOM      3  N   UNL     1      43.484   2.747  11.127  0.00  0.00    +0.000 NA
ATOM      4  N   UNL     1      43.799   1.922  10.137  0.00  0.00    +0.000 NA
ATOM      5  C   UNL     1      44.719   2.547   9.343  0.00  0.00    +0.000 A 
ATOM      6  C   UNL     1      45.459   2.068   8.256  0.00  0.00    +0.000 A 
ATOM      7  C   UNL     1      46.359   2.948   7.632  0.00  0.00    +0.000 A 
ATOM      8  C   UNL     1      46.444   4.295   8.021  0.00  0.00    +0.000 A 
ATOM      9  C   UNL     1      45.740   4.771   9.133  0.00  0.00    +0.000 A 
ATOM     10  C   UNL     1      44.927   3.846   9.795  0.00  0.00    +0.000 A 
BRANCH   7  11
ATOM     11  C   UNL     1      47.260   2.465   6.556  0.00  0.00    +0.000 C 
ATOM     12  N   UNL     1      47.244   3.167   5.383  0.00  0.00    +0.000 N 
ATOM     13  O   UNL     1      47.937   1.454   6.683  0.00  0.00    +0.000 OA
ATOM     14  H   UNL     1      46.517   3.839   5.159  0.00  0.00    +0.000 HD
ATOM     15  H   UNL     1      47.765   2.767   4.609  0.00  0.00    +0.000 HD
ENDBRANCH   7  11
ENDBRANCH   1   2
BRANCH   1  19
ATOM     16  C   UNL     1      44.343   8.780  11.448  0.00  0.00    +0.000 A 
ATOM     17  C   UNL     1      43.313   7.902  11.083  0.00  0.00    +0.000 A 
ATOM     18  C   UNL     1      43.403   6.535  11.373  0.00  0.00    +0.000 A 
ATOM     19  C   UNL     1      44.524   6.019  12.036  0.00  0.00    +0.000 A 
ATOM     20  C   UNL     1      45.543   6.903  12.420  0.00  0.00    +0.000 A 
ATOM     21  C   UNL     1      45.449   8.264  12.138  0.00  0.00    +0.000 A 
BRANCH  16  22
ATOM     22  C   UNL     1      44.251  10.253  11.118  0.00  0.00    +0.000 C 
BRANCH  22  23
ATOM     23  O   UNL     1      44.889  11.010  12.154  0.00  0.00    +0.000 OA
ATOM     24  H   UNL     1      44.936  10.418  12.927  0.00  0.00    +0.000 HD
ENDBRANCH  22  23
BRANCH  22  25
ATOM     25  C   UNL     1      42.779  10.706  10.951  0.00  0.00    +0.000 C 
BRANCH  25  26
ATOM     26  N   UNL     1      42.188  11.122  12.232  0.00  0.00    +0.000 NA
ATOM     27  H   UNL     1      41.419  10.492  12.461  0.00  0.00    +0.000 HD
ATOM     28  H   UNL     1      41.763  12.045  12.125  0.00  0.00    +0.000 HD
ENDBRANCH  25  26
ENDBRANCH  22  25
ENDBRANCH  16  22
ENDBRANCH   1  19
TORSDOF 7
ENDMDL
MODEL 6
REMARK VINA RESULT:    -7.047      3.642      5.913
REMARK INTER + INTRA:          -9.453
REMARK INTER:                  -8.845
REMARK INTRA:                  -0.608
REMARK UNBOUND:                 0.066
REMARK  Name = 
REMARK  7 active torsions:
REMARK  status: ('A' for Active; 'I' for Inactive)
REMARK    1  A    between atoms: N_1  and  C_2
REMARK    2  A    between atoms: C_2  and  C_3
REMARK    3  A    between atoms: C_3  and  O_4
REMARK    4  A    between atoms: C_3  and  C_5
REMARK    5  A    between atoms: C_8  and  C_9
REMARK    6  A    between atoms: C_9  and  N_10
REMARK    7  A    between atoms: C_15  and  C_16
REMARK                            x       y       z     vdW  Elec       q    Type
REMARK                         _______ _______ _______ _____ _____    ______ ____
ROOT
ATOM      1  C   UNL     1      47.517   4.767  16.410  0.00  0.00    +0.000 C 
ENDROOT
BRANCH   1   2
ATOM      2  N   UNL     1      47.711   5.190  15.029  0.00  0.00    +0.000 N 
ATOM      3  N   UNL     1      48.273   6.393  14.786  0.00  0.00    +0.000 NA
ATOM      4  N   UNL     1      47.729   6.860  13.670  0.00  0.00    +0.000 NA
ATOM      5  C   UNL     1      46.907   5.892  13.164  0.00  0.00    +0.000 A 
ATOM      6  C   UNL     1      46.013   5.927  12.089  0.00  0.00    +0.000 A 
ATOM      7  C   UNL     1      45.274   4.767  11.807  0.00  0.00    +0.000 A 
ATOM      8  C   UNL     1      45.496   3.575  12.517  0.00  0.00    +0.000 A 
ATOM      9  C   UNL     1      46.357   3.542  13.620  0.00  0.00    +0.000 A 
ATOM     10  C   UNL     1      47.003   4.740  13.938  0.00  0.00    +0.000 A 
BRANCH   7  11
ATOM     11  C   UNL     1      44.223   4.779  10.760  0.00  0.00    +0.000 C 
ATOM     12  N   UNL     1      43.496   5.929  10.634  0.00  0.00    +0.000 N 
ATOM     13  O   UNL     1      43.971   3.790  10.084  0.00  0.00    +0.000 OA
ATOM     14  H   UNL     1      43.503   6.659  11.339  0.00  0.00    +0.000 HD
ATOM     15  H   UNL     1      42.699   5.895  10.006  0.00  0.00    +0.000 HD
ENDBRANCH   7  11
ENDBRANCH   1   2
BRANCH   1  19
ATOM     16  C   UNL     1      50.908   2.224  17.337  0.00  0.00    +0.000 A 
ATOM     17  C   UNL     1      50.927   3.583  17.681  0.00  0.00    +0.000 A 
ATOM     18  C   UNL     1      49.817   4.397  17.430  0.00  0.00    +0.000 A 
ATOM     19  C   UNL     1      48.665   3.869  16.832  0.00  0.00    +0.000 A 
ATOM     20  C   UNL     1      48.641   2.505  16.509  0.00  0.00    +0.000 A 
ATOM     21  C   UNL     1      49.743   1.693  16.766  0.00  0.00    +0.000 A 
BRANCH  16  22
ATOM     22  C   UNL     1      52.117   1.349  17.593  0.00  0.00    +0.000 C 
BRANCH  22  23
ATOM     23  O   UNL     1      51.704   0.167  18.291  0.00  0.00    +0.000 OA
ATOM     24  H   UNL     1      50.787   0.332  18.577  0.00  0.00    +0.000 HD
ENDBRANCH  22  23
BRANCH  22  25
ATOM     25  C   UNL     1      53.199   2.102  18.405  0.00  0.00    +0.000 C 
BRANCH  25  26
ATOM     26  N   UNL     1      54.085   1.173  19.125  0.00  0.00    +0.000 NA
ATOM     27  H   UNL     1      53.534   0.380  19.455  0.00  0.00    +0.000 HD
ATOM     28  H   UNL     1      54.441   1.629  19.966  0.00  0.00    +0.000 HD
ENDBRANCH  25  26
ENDBRANCH  22  25
ENDBRANCH  16  22
ENDBRANCH   1  19
TORSDOF 7
ENDMDL
MODEL 7
REMARK VINA RESULT:    -6.306      3.831      7.455
REMARK INTER + INTRA:          -8.452
REMARK INTER:                  -8.037
REMARK INTRA:                  -0.415
REMARK UNBOUND:                 0.066
REMARK  Name = 
REMARK  7 active torsions:
REMARK  status: ('A' for Active; 'I' for Inactive)
REMARK    1  A    between atoms: N_1  and  C_2
REMARK    2  A    between atoms: C_2  and  C_3
REMARK    3  A    between atoms: C_3  and  O_4
REMARK    4  A    between atoms: C_3  and  C_5
REMARK    5  A    between atoms: C_8  and  C_9
REMARK    6  A    between atoms: C_9  and  N_10
REMARK    7  A    between atoms: C_15  and  C_16
REMARK                            x       y       z     vdW  Elec       q    Type
REMARK                         _______ _______ _______ _____ _____    ______ ____
ROOT
ATOM      1  C   UNL     1      45.719   6.027  13.180  0.00  0.00    +0.000 C 
ENDROOT
BRANCH   1   2
ATOM      2  N   UNL     1      47.133   5.903  13.509  0.00  0.00    +0.000 N 
ATOM      3  N   UNL     1      47.492   5.201  14.604  0.00  0.00    +0.000 NA
ATOM      4  N   UNL     1      48.581   5.774  15.096  0.00  0.00    +0.000 NA
ATOM      5  C   UNL     1      48.958   6.770  14.238  0.00  0.00    +0.000 A 
ATOM      6  C   UNL     1      49.954   7.746  14.358  0.00  0.00    +0.000 A 
ATOM      7  C   UNL     1      50.105   8.665  13.307  0.00  0.00    +0.000 A 
ATOM      8  C   UNL     1      49.349   8.550  12.128  0.00  0.00    +0.000 A 
ATOM      9  C   UNL     1      48.324   7.605  12.017  0.00  0.00    +0.000 A 
ATOM     10  C   UNL     1      48.131   6.767  13.120  0.00  0.00    +0.000 A 
BRANCH   7  11
ATOM     11  C   UNL     1      51.057   9.797  13.428  0.00  0.00    +0.000 C 
ATOM     12  N   UNL     1      52.291   9.623  12.865  0.00  0.00    +0.000 N 
ATOM     13  O   UNL     1      50.782  10.811  14.053  0.00  0.00    +0.000 OA
ATOM     14  H   UNL     1      52.634   8.713  12.573  0.00  0.00    +0.000 HD
ATOM     15  H   UNL     1      52.981  10.344  13.053  0.00  0.00    +0.000 HD
ENDBRANCH   7  11
ENDBRANCH   1   2
BRANCH   1  19
ATOM     16  C   UNL     1      45.130   3.629   9.611  0.00  0.00    +0.000 A 
ATOM     17  C   UNL     1      45.080   3.035  10.880  0.00  0.00    +0.000 A 
ATOM     18  C   UNL     1      45.219   3.811  12.037  0.00  0.00    +0.000 A 
ATOM     19  C   UNL     1      45.409   5.196  11.949  0.00  0.00    +0.000 A 
ATOM     20  C   UNL     1      45.437   5.791  10.679  0.00  0.00    +0.000 A 
ATOM     21  C   UNL     1      45.291   5.019   9.529  0.00  0.00    +0.000 A 
BRANCH  16  22
ATOM     22  C   UNL     1      44.998   2.786   8.362  0.00  0.00    +0.000 C 
BRANCH  22  23
ATOM     23  O   UNL     1      44.613   1.455   8.730  0.00  0.00    +0.000 OA
ATOM     24  H   UNL     1      43.803   1.261   8.223  0.00  0.00    +0.000 HD
ENDBRANCH  22  23
BRANCH  22  25
ATOM     25  C   UNL     1      46.318   2.758   7.554  0.00  0.00    +0.000 C 
BRANCH  25  26
ATOM     26  N   UNL     1      46.526   4.009   6.806  0.00  0.00    +0.000 NA
ATOM     27  H   UNL     1      46.062   3.933   5.901  0.00  0.00    +0.000 HD
ATOM     28  H   UNL     1      47.520   4.117   6.597  0.00  0.00    +0.000 HD
ENDBRANCH  25  26
ENDBRANCH  22  25
ENDBRANCH  16  22
ENDBRANCH   1  19
TORSDOF 7
ENDMDL
MODEL 8
REMARK VINA RESULT:    -6.219      3.743      8.597
REMARK INTER + INTRA:          -8.334
REMARK INTER:                  -7.795
REMARK INTRA:                  -0.539
REMARK UNBOUND:                 0.066
REMARK  Name = 
REMARK  7 active torsions:
REMARK  status: ('A' for Active; 'I' for Inactive)
REMARK    1  A    between atoms: N_1  and  C_2
REMARK    2  A    between atoms: C_2  and  C_3
REMARK    3  A    between atoms: C_3  and  O_4
REMARK    4  A    between atoms: C_3  and  C_5
REMARK    5  A    between atoms: C_8  and  C_9
REMARK    6  A    between atoms: C_9  and  N_10
REMARK    7  A    between atoms: C_15  and  C_16
REMARK                            x       y       z     vdW  Elec       q    Type
REMARK                         _______ _______ _______ _____ _____    ______ ____
ROOT
ATOM      1  C   UNL     1      48.673   6.637  13.520  0.00  0.00    +0.000 C 
ENDROOT
BRANCH   1   2
ATOM      2  N   UNL     1      48.368   7.185  14.835  0.00  0.00    +0.000 N 
ATOM      3  N   UNL     1      48.309   8.524  14.989  0.00  0.00    +0.000 NA
ATOM      4  N   UNL     1      48.734   8.795  16.215  0.00  0.00    +0.000 NA
ATOM      5  C   UNL     1      48.953   7.609  16.858  0.00  0.00    +0.000 A 
ATOM      6  C   UNL     1      49.520   7.342  18.109  0.00  0.00    +0.000 A 
ATOM      7  C   UNL     1      49.636   6.001  18.509  0.00  0.00    +0.000 A 
ATOM      8  C   UNL     1      49.109   4.962  17.722  0.00  0.00    +0.000 A 
ATOM      9  C   UNL     1      48.579   5.215  16.453  0.00  0.00    +0.000 A 
ATOM     10  C   UNL     1      48.568   6.551  16.041  0.00  0.00    +0.000 A 
BRANCH   7  11
ATOM     11  C   UNL     1      50.339   5.647  19.767  0.00  0.00    +0.000 C 
ATOM     12  N   UNL     1      49.899   4.531  20.422  0.00  0.00    +0.000 N 
ATOM     13  O   UNL     1      51.225   6.350  20.233  0.00  0.00    +0.000 OA
ATOM     14  H   UNL     1      49.013   4.084  20.205  0.00  0.00    +0.000 HD
ATOM     15  H   UNL     1      50.294   4.360  21.341  0.00  0.00    +0.000 HD
ENDBRANCH   7  11
ENDBRANCH   1   2
BRANCH   1  19
ATOM     16  C   UNL     1      45.220   4.926  11.525  0.00  0.00    +0.000 A 
ATOM     17  C   UNL     1      45.698   4.367  12.718  0.00  0.00    +0.000 A 
ATOM     18  C   UNL     1      46.780   4.944  13.393  0.00  0.00    +0.000 A 
ATOM     19  C   UNL     1      47.405   6.092  12.890  0.00  0.00    +0.000 A 
ATOM     20  C   UNL     1      46.911   6.662  11.707  0.00  0.00    +0.000 A 
ATOM     21  C   UNL     1      45.829   6.091  11.040  0.00  0.00    +0.000 A 
BRANCH  16  22
ATOM     22  C   UNL     1      44.062   4.290  10.787  0.00  0.00    +0.000 C 
BRANCH  22  23
ATOM     23  O   UNL     1      43.305   5.312  10.126  0.00  0.00    +0.000 OA
ATOM     24  H   UNL     1      43.744   5.456   9.268  0.00  0.00    +0.000 HD
ENDBRANCH  22  23
BRANCH  22  25
ATOM     25  C   UNL     1      43.153   3.484  11.748  0.00  0.00    +0.000 C 
BRANCH  25  26
ATOM     26  N   UNL     1      43.179   2.044  11.445  0.00  0.00    +0.000 NA
ATOM     27  H   UNL     1      43.117   1.919  10.434  0.00  0.00    +0.000 HD
ATOM     28  H   UNL     1      42.342   1.603  11.828  0.00  0.00    +0.000 HD
ENDBRANCH  25  26
ENDBRANCH  22  25
ENDBRANCH  16  22
ENDBRANCH   1  19
TORSDOF 7
ENDMDL
