MODEL 1
REMARK VINA RESULT:    -8.383      0.000      0.000
REMARK INTER + INTRA:         -12.492
REMARK INTER:                 -11.323
REMARK INTRA:                  -1.169
REMARK UNBOUND:                -1.169
REMARK  Name = 
REMARK  6 active torsions:
REMARK  status: ('A' for Active; 'I' for Inactive)
REMARK    1  A    between atoms: C_2  and  C_25
REMARK    2  A    between atoms: N_3  and  C_4
REMARK    3  A    between atoms: C_4  and  C_5
REMARK    4  A    between atoms: C_8  and  C_9
REMARK    5  A    between atoms: C_9  and  N_10
REMARK    6  A    between atoms: C_11  and  C_13
REMARK                            x       y       z     vdW  Elec       q    Type
REMARK                         _______ _______ _______ _____ _____    ______ ____
ROOT
ATOM      1  C   UNL     1      44.857   5.249  10.549  0.00  0.00    +0.000 A 
ATOM      2  C   UNL     1      44.250   5.550  11.776  0.00  0.00    +0.000 A 
ATOM      3  C   UNL     1      44.846   6.452  12.667  0.00  0.00    +0.000 A 
ATOM      4  C   UNL     1      46.053   7.088  12.343  0.00  0.00    +0.000 A 
ATOM      5  C   UNL     1      46.665   6.775  11.122  0.00  0.00    +0.000 A 
ATOM      6  C   UNL     1      46.067   5.878  10.230  0.00  0.00    +0.000 A 
ENDROOT
BRANCH   1   7
ATOM      7  C   UNL     1      44.221   4.272   9.591  0.00  0.00    +0.000 C 
BRANCH   7  10
ATOM      8  O   UNL     1      45.499   1.820   9.229  0.00  0.00    +0.000 OA
ATOM      9  C   UNL     1      45.678   2.699   8.394  0.00  0.00    +0.000 C 
ATOM     10  N   UNL     1      45.095   3.942   8.489  0.00  0.00    +0.000 N 
ATOM     11  H   UNL     1      45.183   4.601   7.731  0.00  0.00    +0.000 HD
BRANCH   9  12
ATOM     12  C   UNL     1      46.507   2.499   7.232  0.00  0.00    +0.000 A 
ATOM     13  C   UNL     1      46.576   3.116   5.997  0.00  0.00    +0.000 A 
ATOM     14  C   UNL     1      47.614   2.460   5.311  0.00  0.00    +0.000 A 
ATOM     15  N   UNL     1      48.173   1.494   6.040  0.00  0.00    +0.000 NA
ATOM     16  N   UNL     1      47.492   1.542   7.200  0.00  0.00    +0.000 N 
ATOM     17  H   UNL     1      47.740   0.893   7.941  0.00  0.00    +0.000 HD
ENDBRANCH   9  12
ENDBRANCH   7  10
ENDBRANCH   1   7
BRANCH   4  18
ATOM     18  C   UNL     1      46.702   8.060  13.297  0.00  0.00    +0.000 C 
BRANCH  18  19
ATOM     19  N   UNL     1      47.237   7.386  14.454  0.00  0.00    +0.000 N 
ATOM     20  C   UNL     1      48.528   6.919  14.478  0.00  0.00    +0.000 C 
ATOM     21  O   UNL     1      49.302   7.094  13.540  0.00  0.00    +0.000 OA
ATOM     22  H   UNL     1      46.568   7.026  15.124  0.00  0.00    +0.000 HD
BRANCH  20  23
ATOM     23  C   UNL     1      48.961   6.255  15.713  0.00  0.00    +0.000 A 
ATOM     24  C   UNL     1      50.061   6.738  16.412  0.00  0.00    +0.000 A 
ATOM     25  S   UNL     1      50.388   5.884  17.852  0.00  0.00    +0.000 S 
ATOM     26  C   UNL     1      49.108   4.801  17.565  0.00  0.00    +0.000 A 
ATOM     27  N   UNL     1      48.849   3.779  18.426  0.00  0.00    +0.000 NA
ATOM     28  C   UNL     1      47.872   3.015  18.069  0.00  0.00    +0.000 A 
ATOM     29  N   UNL     1      47.125   3.182  16.932  0.00  0.00    +0.000 N 
ATOM     30  C   UNL     1      47.330   4.217  16.050  0.00  0.00    +0.000 A 
ATOM     31  O   UNL     1      46.614   4.364  15.066  0.00  0.00    +0.000 OA
ATOM     32  C   UNL     1      48.427   5.099  16.398  0.00  0.00    +0.000 A 
ATOM     33  H   UNL     1      46.367   2.553  16.713  0.00  0.00    +0.000 HD
ENDBRANCH  20  23
ENDBRANCH  18  19
ENDBRANCH   4  18
TORSDOF 6
ENDMDL
MODEL 2
REMARK VINA RESULT:    -7.474      2.369      2.746
REMARK INTER + INTRA:         -11.264
REMARK INTER:                 -10.322
REMARK INTRA:                  -0.943
REMARK UNBOUND:                -1.169
REMARK  Name = 
REMARK  6 active torsions:
REMARK  status: ('A' for Active; 'I' for Inactive)
REMARK    1  A    between atoms: C_2  and  C_25
REMARK    2  A    between atoms: N_3  and  C_4
REMARK    3  A    between atoms: C_4  and  C_5
REMARK    4  A    between atoms: C_8  and  C_9
REMARK    5  A    between atoms: C_9  and  N_10
REMARK    6  A    between atoms: C_11  and  C_13
REMARK                            x       y       z     vdW  Elec       q    Type
REMARK                         _______ _______ _______ _____ _____    ______ ____
ROOT
ATOM      1  C   UNL     1      45.308   4.925  11.486  0.00  0.00    +0.000 A 
ATOM      2  C   UNL     1      45.543   4.578  12.824  0.00  0.00    +0.000 A 
ATOM      3  C   UNL     1      46.412   5.337  13.619  0.00  0.00    +0.000 A 
ATOM      4  C   UNL     1      47.050   6.472  13.100  0.00  0.00    +0.000 A 
ATOM      5  C   UNL     1      46.826   6.810  11.759  0.00  0.00    +0.000 A 
ATOM      6  C   UNL     1      45.954   6.054  10.966  0.00  0.00    +0.000 A 
ENDROOT
BRANCH   1   7
ATOM      7  C   UNL     1      44.379   4.105  10.626  0.00  0.00    +0.000 C 
BRANCH   7  10
ATOM      8  O   UNL     1      45.235   4.479   8.000  0.00  0.00    +0.000 OA
ATOM      9  C   UNL     1      45.476   3.408   8.543  0.00  0.00    +0.000 C 
ATOM     10  N   UNL     1      45.090   3.129   9.834  0.00  0.00    +0.000 N 
ATOM     11  H   UNL     1      45.397   2.278  10.281  0.00  0.00    +0.000 HD
BRANCH   9  12
ATOM     12  C   UNL     1      46.198   2.353   7.878  0.00  0.00    +0.000 A 
ATOM     13  C   UNL     1      47.095   2.333   6.826  0.00  0.00    +0.000 A 
ATOM     14  C   UNL     1      47.452   0.981   6.666  0.00  0.00    +0.000 A 
ATOM     15  N   UNL     1      46.835   0.188   7.542  0.00  0.00    +0.000 NA
ATOM     16  N   UNL     1      46.089   1.041   8.269  0.00  0.00    +0.000 N 
ATOM     17  H   UNL     1      45.518   0.671   9.024  0.00  0.00    +0.000 HD
ENDBRANCH   9  12
ENDBRANCH   7  10
ENDBRANCH   1   7
BRANCH   4  18
ATOM     18  C   UNL     1      47.989   7.295  13.949  0.00  0.00    +0.000 C 
BRANCH  18  19
ATOM     19  N   UNL     1      47.945   6.886  15.330  0.00  0.00    +0.000 N 
ATOM     20  C   UNL     1      49.081   6.502  16.000  0.00  0.00    +0.000 C 
ATOM     21  O   UNL     1      50.191   6.533  15.473  0.00  0.00    +0.000 OA
ATOM     22  H   UNL     1      47.039   6.628  15.704  0.00  0.00    +0.000 HD
BRANCH  20  23
ATOM     23  C   UNL     1      48.912   6.113  17.405  0.00  0.00    +0.000 A 
ATOM     24  C   UNL     1      49.253   4.830  17.816  0.00  0.00    +0.000 A 
ATOM     25  S   UNL     1      49.048   4.567  19.488  0.00  0.00    +0.000 S 
ATOM     26  C   UNL     1      48.441   6.140  19.717  0.00  0.00    +0.000 A 
ATOM     27  N   UNL     1      48.042   6.565  20.947  0.00  0.00    +0.000 NA
ATOM     28  C   UNL     1      47.573   7.767  20.970  0.00  0.00    +0.000 A 
ATOM     29  N   UNL     1      47.472   8.587  19.876  0.00  0.00    +0.000 N 
ATOM     30  C   UNL     1      47.892   8.213  18.622  0.00  0.00    +0.000 A 
ATOM     31  O   UNL     1      47.830   8.987  17.673  0.00  0.00    +0.000 OA
ATOM     32  C   UNL     1      48.415   6.863  18.538  0.00  0.00    +0.000 A 
ATOM     33  H   UNL     1      47.103   9.522  19.962  0.00  0.00    +0.000 HD
ENDBRANCH  20  23
ENDBRANCH  18  19
ENDBRANCH   4  18
TORSDOF 6
ENDMDL
MODEL 3
REMARK VINA RESULT:    -7.332      4.596      9.533
REMARK INTER + INTRA:         -11.073
REMARK INTER:                 -10.320
REMARK INTRA:                  -0.753
REMARK UNBOUND:                -1.169
REMARK  Name = 
REMARK  6 active torsions:
REMARK  status: ('A' for Active; 'I' for Inactive)
REMARK    1  A    between atoms: C_2  and  C_25
REMARK    2  A    between atoms: N_3  and  C_4
REMARK    3  A    between atoms: C_4  and  C_5
REMARK    4  A    between atoms: C_8  and  C_9
REMARK    5  A    between atoms: C_9  and  N_10
REMARK    6  A    between atoms: C_11  and  C_13
REMARK                            x       y       z     vdW  Elec       q    Type
REMARK                         _______ _______ _______ _____ _____    ______ ____
ROOT
ATOM      1  C   UNL     1      51.419   3.034  17.762  0.00  0.00    +0.000 A 
ATOM      2  C   UNL     1      50.642   1.991  17.238  0.00  0.00    +0.000 A 
ATOM      3  C   UNL     1      49.274   2.170  16.995  0.00  0.00    +0.000 A 
ATOM      4  C   UNL     1      48.656   3.402  17.251  0.00  0.00    +0.000 A 
ATOM      5  C   UNL     1      49.431   4.439  17.787  0.00  0.00    +0.000 A 
ATOM      6  C   UNL     1      50.798   4.262  18.027  0.00  0.00    +0.000 A 
ENDROOT
BRANCH   1   7
ATOM      7  C   UNL     1      52.891   2.842  18.032  0.00  0.00    +0.000 C 
BRANCH   7  10
ATOM      8  O   UNL     1      54.371   0.837  16.783  0.00  0.00    +0.000 OA
ATOM      9  C   UNL     1      53.922   0.618  17.902  0.00  0.00    +0.000 C 
ATOM     10  N   UNL     1      53.177   1.544  18.595  0.00  0.00    +0.000 N 
ATOM     11  H   UNL     1      52.915   1.367  19.553  0.00  0.00    +0.000 HD
BRANCH   9  12
ATOM     12  C   UNL     1      54.151  -0.626  18.592  0.00  0.00    +0.000 A 
ATOM     13  C   UNL     1      55.287  -1.249  19.074  0.00  0.00    +0.000 A 
ATOM     14  C   UNL     1      54.833  -2.444  19.665  0.00  0.00    +0.000 A 
ATOM     15  N   UNL     1      53.511  -2.585  19.571  0.00  0.00    +0.000 NA
ATOM     16  N   UNL     1      53.120  -1.470  18.927  0.00  0.00    +0.000 N 
ATOM     17  H   UNL     1      52.131  -1.335  18.736  0.00  0.00    +0.000 HD
ENDBRANCH   9  12
ENDBRANCH   7  10
ENDBRANCH   1   7
BRANCH   4  18
ATOM     18  C   UNL     1      47.183   3.603  16.993  0.00  0.00    +0.000 C 
BRANCH  18  19
ATOM     19  N   UNL     1      46.957   4.585  15.961  0.00  0.00    +0.000 N 
ATOM     20  C   UNL     1      47.064   4.263  14.630  0.00  0.00    +0.000 C 
ATOM     21  O   UNL     1      47.310   3.120  14.254  0.00  0.00    +0.000 OA
ATOM     22  H   UNL     1      46.991   5.558  16.240  0.00  0.00    +0.000 HD
BRANCH  20  23
ATOM     23  C   UNL     1      46.806   5.345  13.673  0.00  0.00    +0.000 A 
ATOM     24  C   UNL     1      47.819   6.237  13.344  0.00  0.00    +0.000 A 
ATOM     25  S   UNL     1      47.363   7.393  12.176  0.00  0.00    +0.000 S 
ATOM     26  C   UNL     1      45.777   6.782  12.110  0.00  0.00    +0.000 A 
ATOM     27  N   UNL     1      44.840   7.350  11.302  0.00  0.00    +0.000 NA
ATOM     28  C   UNL     1      43.672   6.807  11.375  0.00  0.00    +0.000 A 
ATOM     29  N   UNL     1      43.355   5.741  12.178  0.00  0.00    +0.000 N 
ATOM     30  C   UNL     1      44.275   5.116  12.985  0.00  0.00    +0.000 A 
ATOM     31  O   UNL     1      43.970   4.136  13.657  0.00  0.00    +0.000 OA
ATOM     32  C   UNL     1      45.603   5.697  12.951  0.00  0.00    +0.000 A 
ATOM     33  H   UNL     1      42.422   5.356  12.184  0.00  0.00    +0.000 HD
ENDBRANCH  20  23
ENDBRANCH  18  19
ENDBRANCH   4  18
TORSDOF 6
ENDMDL
MODEL 4
REMARK VINA RESULT:    -7.136      1.271      1.643
REMARK INTER + INTRA:         -10.808
REMARK INTER:                  -9.764
REMARK INTRA:                  -1.044
REMARK UNBOUND:                -1.169
REMARK  Name = 
REMARK  6 active torsions:
REMARK  status: ('A' for Active; 'I' for Inactive)
REMARK    1  A    between atoms: C_2  and  C_25
REMARK    2  A    between atoms: N_3  and  C_4
REMARK    3  A    between atoms: C_4  and  C_5
REMARK    4  A    between atoms: C_8  and  C_9
REMARK    5  A    between atoms: C_9  and  N_10
REMARK    6  A    between atoms: C_11  and  C_13
REMARK                            x       y       z     vdW  Elec       q    Type
REMARK                         _______ _______ _______ _____ _____    ______ ____
ROOT
ATOM      1  C   UNL     1      45.144   6.178  11.310  0.00  0.00    +0.000 A 
ATOM      2  C   UNL     1      46.465   5.834  11.626  0.00  0.00    +0.000 A 
ATOM      3  C   UNL     1      47.242   6.658  12.451  0.00  0.00    +0.000 A 
ATOM      4  C   UNL     1      46.708   7.835  12.995  0.00  0.00    +0.000 A 
ATOM      5  C   UNL     1      45.392   8.185  12.667  0.00  0.00    +0.000 A 
ATOM      6  C   UNL     1      44.614   7.359  11.846  0.00  0.00    +0.000 A 
ENDROOT
BRANCH   1   7
ATOM      7  C   UNL     1      44.308   5.297  10.416  0.00  0.00    +0.000 C 
BRANCH   7  10
ATOM      8  O   UNL     1      44.018   2.603   9.757  0.00  0.00    +0.000 OA
ATOM      9  C   UNL     1      44.888   3.251   9.188  0.00  0.00    +0.000 C 
ATOM     10  N   UNL     1      45.110   4.584   9.449  0.00  0.00    +0.000 N 
ATOM     11  H   UNL     1      45.763   5.107   8.887  0.00  0.00    +0.000 HD
BRANCH   9  12
ATOM     12  C   UNL     1      45.745   2.673   8.184  0.00  0.00    +0.000 A 
ATOM     13  C   UNL     1      46.338   1.432   8.044  0.00  0.00    +0.000 A 
ATOM     14  C   UNL     1      47.047   1.494   6.829  0.00  0.00    +0.000 A 
ATOM     15  N   UNL     1      46.925   2.680   6.232  0.00  0.00    +0.000 NA
ATOM     16  N   UNL     1      46.127   3.372   7.066  0.00  0.00    +0.000 N 
ATOM     17  H   UNL     1      45.875   4.326   6.823  0.00  0.00    +0.000 HD
ENDBRANCH   9  12
ENDBRANCH   7  10
ENDBRANCH   1   7
BRANCH   4  18
ATOM     18  C   UNL     1      47.538   8.729  13.884  0.00  0.00    +0.000 C 
BRANCH  18  19
ATOM     19  N   UNL     1      47.890   8.067  15.116  0.00  0.00    +0.000 N 
ATOM     20  C   UNL     1      49.192   7.742  15.408  0.00  0.00    +0.000 C 
ATOM     21  O   UNL     1      50.121   8.038  14.660  0.00  0.00    +0.000 OA
ATOM     22  H   UNL     1      47.140   7.611  15.621  0.00  0.00    +0.000 HD
BRANCH  20  23
ATOM     23  C   UNL     1      49.427   7.077  16.695  0.00  0.00    +0.000 A 
ATOM     24  C   UNL     1      50.187   7.706  17.673  0.00  0.00    +0.000 A 
ATOM     25  S   UNL     1      50.311   6.819  19.124  0.00  0.00    +0.000 S 
ATOM     26  C   UNL     1      49.402   5.533  18.479  0.00  0.00    +0.000 A 
ATOM     27  N   UNL     1      49.154   4.414  19.213  0.00  0.00    +0.000 NA
ATOM     28  C   UNL     1      48.481   3.506  18.590  0.00  0.00    +0.000 A 
ATOM     29  N   UNL     1      48.029   3.616  17.300  0.00  0.00    +0.000 N 
ATOM     30  C   UNL     1      48.228   4.739  16.533  0.00  0.00    +0.000 A 
ATOM     31  O   UNL     1      47.770   4.823  15.398  0.00  0.00    +0.000 OA
ATOM     32  C   UNL     1      48.992   5.786  17.182  0.00  0.00    +0.000 A 
ATOM     33  H   UNL     1      47.500   2.871  16.872  0.00  0.00    +0.000 HD
ENDBRANCH  20  23
ENDBRANCH  18  19
ENDBRANCH   4  18
TORSDOF 6
ENDMDL
MODEL 5
REMARK VINA RESULT:    -7.124      4.590      9.452
REMARK INTER + INTRA:         -10.792
REMARK INTER:                  -9.719
REMARK INTRA:                  -1.073
REMARK UNBOUND:                -1.169
REMARK  Name = 
REMARK  6 active torsions:
REMARK  status: ('A' for Active; 'I' for Inactive)
REMARK    1  A    between atoms: C_2  and  C_25
REMARK    2  A    between atoms: N_3  and  C_4
REMARK    3  A    between atoms: C_4  and  C_5
REMARK    4  A    between atoms: C_8  and  C_9
REMARK    5  A    between atoms: C_9  and  N_10
REMARK    6  A    between atoms: C_11  and  C_13
REMARK                            x       y       z     vdW  Elec       q    Type
REMARK                         _______ _______ _______ _____ _____    ______ ____
ROOT
ATOM      1  C   UNL     1      51.380   2.973  17.739  0.00  0.00    +0.000 A 
ATOM      2  C   UNL     1      50.822   4.233  17.995  0.00  0.00    +0.000 A 
ATOM      3  C   UNL     1      49.478   4.495  17.700  0.00  0.00    +0.000 A 
ATOM      4  C   UNL     1      48.655   3.496  17.162  0.00  0.00    +0.000 A 
ATOM      5  C   UNL     1      49.217   2.241  16.893  0.00  0.00    +0.000 A 
ATOM      6  C   UNL     1      50.559   1.978  17.192  0.00  0.00    +0.000 A 
ENDROOT
BRANCH   1   7
ATOM      7  C   UNL     1      52.829   2.691  18.049  0.00  0.00    +0.000 C 
BRANCH   7  10
ATOM      8  O   UNL     1      54.521   0.846  16.822  0.00  0.00    +0.000 OA
ATOM      9  C   UNL     1      53.900   0.493  17.818  0.00  0.00    +0.000 C 
ATOM     10  N   UNL     1      53.038   1.331  18.488  0.00  0.00    +0.000 N 
ATOM     11  H   UNL     1      52.626   1.039  19.361  0.00  0.00    +0.000 HD
BRANCH   9  12
ATOM     12  C   UNL     1      54.030  -0.828  18.379  0.00  0.00    +0.000 A 
ATOM     13  C   UNL     1      55.089  -1.709  18.495  0.00  0.00    +0.000 A 
ATOM     14  C   UNL     1      54.565  -2.834  19.158  0.00  0.00    +0.000 A 
ATOM     15  N   UNL     1      53.271  -2.695  19.446  0.00  0.00    +0.000 NA
ATOM     16  N   UNL     1      52.973  -1.472  18.972  0.00  0.00    +0.000 N 
ATOM     17  H   UNL     1      52.024  -1.123  19.079  0.00  0.00    +0.000 HD
ENDBRANCH   9  12
ENDBRANCH   7  10
ENDBRANCH   1   7
BRANCH   4  18
ATOM     18  C   UNL     1      47.206   3.769  16.840  0.00  0.00    +0.000 C 
BRANCH  18  19
ATOM     19  N   UNL     1      47.075   4.709  15.755  0.00  0.00    +0.000 N 
ATOM     20  C   UNL     1      47.122   4.301  14.444  0.00  0.00    +0.000 C 
ATOM     21  O   UNL     1      47.230   3.117  14.133  0.00  0.00    +0.000 OA
ATOM     22  H   UNL     1      47.224   5.686  15.975  0.00  0.00    +0.000 HD
BRANCH  20  23
ATOM     23  C   UNL     1      46.971   5.349  13.427  0.00  0.00    +0.000 A 
ATOM     24  C   UNL     1      45.945   5.267  12.494  0.00  0.00    +0.000 A 
ATOM     25  S   UNL     1      45.882   6.595  11.425  0.00  0.00    +0.000 S 
ATOM     26  C   UNL     1      47.259   7.300  12.132  0.00  0.00    +0.000 A 
ATOM     27  N   UNL     1      47.767   8.471  11.659  0.00  0.00    +0.000 NA
ATOM     28  C   UNL     1      48.832   8.874  12.267  0.00  0.00    +0.000 A 
ATOM     29  N   UNL     1      49.434   8.216  13.308  0.00  0.00    +0.000 N 
ATOM     30  C   UNL     1      48.939   7.048  13.839  0.00  0.00    +0.000 A 
ATOM     31  O   UNL     1      49.476   6.509  14.801  0.00  0.00    +0.000 OA
ATOM     32  C   UNL     1      47.748   6.544  13.182  0.00  0.00    +0.000 A 
ATOM     33  H   UNL     1      50.262   8.589  13.747  0.00  0.00    +0.000 HD
ENDBRANCH  20  23
ENDBRANCH  18  19
ENDBRANCH   4  18
TORSDOF 6
ENDMDL
MODEL 6
REMARK VINA RESULT:    -6.614      2.628      3.157
REMARK INTER + INTRA:         -10.103
REMARK INTER:                  -9.339
REMARK INTRA:                  -0.764
REMARK UNBOUND:                -1.169
REMARK  Name = 
REMARK  6 active torsions:
REMARK  status: ('A' for Active; 'I' for Inactive)
REMARK    1  A    between atoms: C_2  and  C_25
REMARK    2  A    between atoms: N_3  and  C_4
REMARK    3  A    between atoms: C_4  and  C_5
REMARK    4  A    between atoms: C_8  and  C_9
REMARK    5  A    between atoms: C_9  and  N_10
REMARK    6  A    between atoms: C_11  and  C_13
REMARK                            x       y       z     vdW  Elec       q    Type
REMARK                         _______ _______ _______ _____ _____    ______ ____
ROOT
ATOM      1  C   UNL     1      45.250   6.951  11.787  0.00  0.00    +0.000 A 
ATOM      2  C   UNL     1      46.465   6.353  12.150  0.00  0.00    +0.000 A 
ATOM      3  C   UNL     1      47.404   7.050  12.921  0.00  0.00    +0.000 A 
ATOM      4  C   UNL     1      47.142   8.355  13.363  0.00  0.00    +0.000 A 
ATOM      5  C   UNL     1      45.933   8.956  12.988  0.00  0.00    +0.000 A 
ATOM      6  C   UNL     1      44.993   8.258  12.221  0.00  0.00    +0.000 A 
ENDROOT
BRANCH   1   7
ATOM      7  C   UNL     1      44.240   6.205  10.951  0.00  0.00    +0.000 C 
BRANCH   7  10
ATOM      8  O   UNL     1      43.741   3.463  10.885  0.00  0.00    +0.000 OA
ATOM      9  C   UNL     1      44.551   3.926  10.091  0.00  0.00    +0.000 C 
ATOM     10  N   UNL     1      44.866   5.265  10.051  0.00  0.00    +0.000 N 
ATOM     11  H   UNL     1      45.456   5.623   9.316  0.00  0.00    +0.000 HD
BRANCH   9  12
ATOM     12  C   UNL     1      45.232   3.107   9.121  0.00  0.00    +0.000 A 
ATOM     13  C   UNL     1      45.963   3.393   7.983  0.00  0.00    +0.000 A 
ATOM     14  C   UNL     1      46.377   2.144   7.483  0.00  0.00    +0.000 A 
ATOM     15  N   UNL     1      45.947   1.130   8.234  0.00  0.00    +0.000 NA
ATOM     16  N   UNL     1      45.264   1.738   9.222  0.00  0.00    +0.000 N 
ATOM     17  H   UNL     1      44.835   1.166   9.944  0.00  0.00    +0.000 HD
ENDBRANCH   9  12
ENDBRANCH   7  10
ENDBRANCH   1   7
BRANCH   4  18
ATOM     18  C   UNL     1      48.148   9.114  14.193  0.00  0.00    +0.000 C 
BRANCH  18  19
ATOM     19  N   UNL     1      47.814   9.073  15.595  0.00  0.00    +0.000 N 
ATOM     20  C   UNL     1      48.722   8.652  16.536  0.00  0.00    +0.000 C 
ATOM     21  O   UNL     1      49.872   8.336  16.237  0.00  0.00    +0.000 OA
ATOM     22  H   UNL     1      46.830   9.095  15.832  0.00  0.00    +0.000 HD
BRANCH  20  23
ATOM     23  C   UNL     1      48.269   8.660  17.931  0.00  0.00    +0.000 A 
ATOM     24  C   UNL     1      48.049   9.868  18.583  0.00  0.00    +0.000 A 
ATOM     25  S   UNL     1      47.471   9.692  20.178  0.00  0.00    +0.000 S 
ATOM     26  C   UNL     1      47.549   7.996  20.078  0.00  0.00    +0.000 A 
ATOM     27  N   UNL     1      47.207   7.215  21.139  0.00  0.00    +0.000 NA
ATOM     28  C   UNL     1      47.344   5.948  20.936  0.00  0.00    +0.000 A 
ATOM     29  N   UNL     1      47.787   5.389  19.765  0.00  0.00    +0.000 N 
ATOM     30  C   UNL     1      48.113   6.135  18.658  0.00  0.00    +0.000 A 
ATOM     31  O   UNL     1      48.462   5.600  17.611  0.00  0.00    +0.000 OA
ATOM     32  C   UNL     1      47.989   7.568  18.838  0.00  0.00    +0.000 A 
ATOM     33  H   UNL     1      47.864   4.387  19.667  0.00  0.00    +0.000 HD
ENDBRANCH  20  23
ENDBRANCH  18  19
ENDBRANCH   4  18
TORSDOF 6
ENDMDL
MODEL 7
REMARK VINA RESULT:    -6.536      4.755      7.301
REMARK INTER + INTRA:          -9.998
REMARK INTER:                  -9.132
REMARK INTRA:                  -0.866
REMARK UNBOUND:                -1.169
REMARK  Name = 
REMARK  6 active torsions:
REMARK  status: ('A' for Active; 'I' for Inactive)
REMARK    1  A    between atoms: C_2  and  C_25
REMARK    2  A    between atoms: N_3  and  C_4
REMARK    3  A    between atoms: C_4  and  C_5
REMARK    4  A    between atoms: C_8  and  C_9
REMARK    5  A    between atoms: C_9  and  N_10
REMARK    6  A    between atoms: C_11  and  C_13
REMARK                            x       y       z     vdW  Elec       q    Type
REMARK                         _______ _______ _______ _____ _____    ______ ____
ROOT
ATOM      1  C   UNL     1      50.482   8.892  11.301  0.00  0.00    +0.000 A 
ATOM      2  C   UNL     1      49.645   9.962  11.649  0.00  0.00    +0.000 A 
ATOM      3  C   UNL     1      48.344   9.732  12.113  0.00  0.00    +0.000 A 
ATOM      4  C   UNL     1      47.855   8.426  12.259  0.00  0.00    +0.000 A 
ATOM      5  C   UNL     1      48.687   7.358  11.897  0.00  0.00    +0.000 A 
ATOM      6  C   UNL     1      49.989   7.588  11.438  0.00  0.00    +0.000 A 
ENDROOT
BRANCH   1   7
ATOM      7  C   UNL     1      51.881   9.137  10.795  0.00  0.00    +0.000 C 
BRANCH   7  10
ATOM      8  O   UNL     1      53.024   9.537   8.283  0.00  0.00    +0.000 OA
ATOM      9  C   UNL     1      52.888   8.387   8.684  0.00  0.00    +0.000 C 
ATOM     10  N   UNL     1      52.330   8.090   9.907  0.00  0.00    +0.000 N 
ATOM     11  H   UNL     1      52.332   7.140  10.246  0.00  0.00    +0.000 HD
BRANCH   9  12
ATOM     12  C   UNL     1      53.314   7.247   7.912  0.00  0.00    +0.000 A 
ATOM     13  C   UNL     1      54.551   6.696   7.637  0.00  0.00    +0.000 A 
ATOM     14  C   UNL     1      54.288   5.574   6.830  0.00  0.00    +0.000 A 
ATOM     15  N   UNL     1      52.985   5.411   6.599  0.00  0.00    +0.000 NA
ATOM     16  N   UNL     1      52.416   6.430   7.270  0.00  0.00    +0.000 N 
ATOM     17  H   UNL     1      51.405   6.523   7.254  0.00  0.00    +0.000 HD
ENDBRANCH   9  12
ENDBRANCH   7  10
ENDBRANCH   1   7
BRANCH   4  18
ATOM     18  C   UNL     1      46.454   8.169  12.756  0.00  0.00    +0.000 C 
BRANCH  18  19
ATOM     19  N   UNL     1      46.015   6.836  12.430  0.00  0.00    +0.000 N 
ATOM     20  C   UNL     1      44.851   6.614  11.735  0.00  0.00    +0.000 C 
ATOM     21  O   UNL     1      44.155   7.538  11.319  0.00  0.00    +0.000 OA
ATOM     22  H   UNL     1      46.431   6.075  12.954  0.00  0.00    +0.000 HD
BRANCH  20  23
ATOM     23  C   UNL     1      44.511   5.214  11.456  0.00  0.00    +0.000 A 
ATOM     24  C   UNL     1      43.771   4.483  12.376  0.00  0.00    +0.000 A 
ATOM     25  S   UNL     1      43.418   2.894  11.867  0.00  0.00    +0.000 S 
ATOM     26  C   UNL     1      44.292   3.104  10.423  0.00  0.00    +0.000 A 
ATOM     27  N   UNL     1      44.412   2.090   9.523  0.00  0.00    +0.000 NA
ATOM     28  C   UNL     1      45.129   2.377   8.488  0.00  0.00    +0.000 A 
ATOM     29  N   UNL     1      45.732   3.588   8.268  0.00  0.00    +0.000 N 
ATOM     30  C   UNL     1      45.613   4.650   9.133  0.00  0.00    +0.000 A 
ATOM     31  O   UNL     1      46.128   5.734   8.883  0.00  0.00    +0.000 OA
ATOM     32  C   UNL     1      44.828   4.376  10.321  0.00  0.00    +0.000 A 
ATOM     33  H   UNL     1      46.274   3.752   7.432  0.00  0.00    +0.000 HD
ENDBRANCH  20  23
ENDBRANCH  18  19
ENDBRANCH   4  18
TORSDOF 6
ENDMDL
MODEL 8
REMARK VINA RESULT:    -6.379      5.418      7.962
REMARK INTER + INTRA:          -9.786
REMARK INTER:                  -8.854
REMARK INTRA:                  -0.932
REMARK UNBOUND:                -1.169
REMARK  Name = 
REMARK  6 active torsions:
REMARK  status: ('A' for Active; 'I' for Inactive)
REMARK    1  A    between atoms: C_2  and  C_25
REMARK    2  A    between atoms: N_3  and  C_4
REMARK    3  A    between atoms: C_4  and  C_5
REMARK    4  A    between atoms: C_8  and  C_9
REMARK    5  A    between atoms: C_9  and  N_10
REMARK    6  A    between atoms: C_11  and  C_13
REMARK                            x       y       z     vdW  Elec       q    Type
REMARK                         _______ _______ _______ _____ _____    ______ ____
ROOT
ATOM      1  C   UNL     1      48.466   6.675  13.609  0.00  0.00    +0.000 A 
ATOM      2  C   UNL     1      48.531   6.781  12.212  0.00  0.00    +0.000 A 
ATOM      3  C   UNL     1      49.549   7.521  11.597  0.00  0.00    +0.000 A 
ATOM      4  C   UNL     1      50.537   8.155  12.363  0.00  0.00    +0.000 A 
ATOM      5  C   UNL     1      50.462   8.061  13.759  0.00  0.00    +0.000 A 
ATOM      6  C   UNL     1      49.447   7.318  14.374  0.00  0.00    +0.000 A 
ENDROOT
BRANCH   1   7
ATOM      7  C   UNL     1      47.366   5.885  14.274  0.00  0.00    +0.000 C 
BRANCH   7  10
ATOM      8  O   UNL     1      46.770   3.202  13.812  0.00  0.00    +0.000 OA
ATOM      9  C   UNL     1      46.164   4.051  13.169  0.00  0.00    +0.000 C 
ATOM     10  N   UNL     1      46.393   5.399  13.324  0.00  0.00    +0.000 N 
ATOM     11  H   UNL     1      45.802   6.069  12.855  0.00  0.00    +0.000 HD
BRANCH   9  12
ATOM     12  C   UNL     1      45.150   3.709  12.205  0.00  0.00    +0.000 A 
ATOM     13  C   UNL     1      44.880   4.137  10.919  0.00  0.00    +0.000 A 
ATOM     14  C   UNL     1      43.752   3.401  10.510  0.00  0.00    +0.000 A 
ATOM     15  N   UNL     1      43.324   2.564  11.456  0.00  0.00    +0.000 NA
ATOM     16  N   UNL     1      44.190   2.763  12.467  0.00  0.00    +0.000 N 
ATOM     17  H   UNL     1      44.076   2.224  13.322  0.00  0.00    +0.000 HD
ENDBRANCH   9  12
ENDBRANCH   7  10
ENDBRANCH   1   7
BRANCH   4  18
ATOM     18  C   UNL     1      51.636   8.956  11.709  0.00  0.00    +0.000 C 
BRANCH  18  19
ATOM     19  N   UNL     1      51.915   8.478  10.377  0.00  0.00    +0.000 N 
ATOM     20  C   UNL     1      53.041   8.870   9.696  0.00  0.00    +0.000 C 
ATOM     21  O   UNL     1      53.886   9.606  10.202  0.00  0.00    +0.000 OA
ATOM     22  H   UNL     1      51.140   8.077   9.863  0.00  0.00    +0.000 HD
BRANCH  20  23
ATOM     23  C   UNL     1      53.220   8.312   8.351  0.00  0.00    +0.000 A 
ATOM     24  C   UNL     1      53.182   9.149   7.242  0.00  0.00    +0.000 A 
ATOM     25  S   UNL     1      53.464   8.345   5.765  0.00  0.00    +0.000 S 
ATOM     26  C   UNL     1      53.590   6.839   6.546  0.00  0.00    +0.000 A 
ATOM     27  N   UNL     1      53.808   5.698   5.836  0.00  0.00    +0.000 NA
ATOM     28  C   UNL     1      53.850   4.624   6.551  0.00  0.00    +0.000 A 
ATOM     29  N   UNL     1      53.698   4.587   7.913  0.00  0.00    +0.000 N 
ATOM     30  C   UNL     1      53.508   5.716   8.674  0.00  0.00    +0.000 A 
ATOM     31  O   UNL     1      53.422   5.652   9.896  0.00  0.00    +0.000 OA
ATOM     32  C   UNL     1      53.440   6.951   7.917  0.00  0.00    +0.000 A 
ATOM     33  H   UNL     1      53.749   3.713   8.416  0.00  0.00    +0.000 HD
ENDBRANCH  20  23
ENDBRANCH  18  19
ENDBRANCH   4  18
TORSDOF 6
ENDMDL
MODEL 9
REMARK VINA RESULT:    -6.280      3.553      4.628
REMARK INTER + INTRA:          -9.652
REMARK INTER:                  -8.716
REMARK INTRA:                  -0.936
REMARK UNBOUND:                -1.169
REMARK  Name = 
REMARK  6 active torsions:
REMARK  status: ('A' for Active; 'I' for Inactive)
REMARK    1  A    between atoms: C_2  and  C_25
REMARK    2  A    between atoms: N_3  and  C_4
REMARK    3  A    between atoms: C_4  and  C_5
REMARK    4  A    between atoms: C_8  and  C_9
REMARK    5  A    between atoms: C_9  and  N_10
REMARK    6  A    between atoms: C_11  and  C_13
REMARK                            x       y       z     vdW  Elec       q    Type
REMARK                         _______ _______ _______ _____ _____    ______ ____
ROOT
ATOM      1  C   UNL     1      44.654   5.752  11.146  0.00  0.00    +0.000 A 
ATOM      2  C   UNL     1      44.337   7.112  11.025  0.00  0.00    +0.000 A 
ATOM      3  C   UNL     1      44.975   8.070  11.824  0.00  0.00    +0.000 A 
ATOM      4  C   UNL     1      45.959   7.692  12.748  0.00  0.00    +0.000 A 
ATOM      5  C   UNL     1      46.264   6.331  12.878  0.00  0.00    +0.000 A 
ATOM      6  C   UNL     1      45.630   5.374  12.077  0.00  0.00    +0.000 A 
ENDROOT
BRANCH   1   7
ATOM      7  C   UNL     1      43.963   4.718  10.293  0.00  0.00    +0.000 C 
BRANCH   7  10
ATOM      8  O   UNL     1      44.468   2.014   9.835  0.00  0.00    +0.000 OA
ATOM      9  C   UNL     1      45.014   2.839   9.112  0.00  0.00    +0.000 C 
ATOM     10  N   UNL     1      44.830   4.194   9.263  0.00  0.00    +0.000 N 
ATOM     11  H   UNL     1      45.212   4.835   8.584  0.00  0.00    +0.000 HD
BRANCH   9  12
ATOM     12  C   UNL     1      45.885   2.456   8.030  0.00  0.00    +0.000 A 
ATOM     13  C   UNL     1      46.337   3.109   6.898  0.00  0.00    +0.000 A 
ATOM     14  C   UNL     1      47.181   2.188   6.249  0.00  0.00    +0.000 A 
ATOM     15  N   UNL     1      47.267   1.031   6.906  0.00  0.00    +0.000 NA
ATOM     16  N   UNL     1      46.482   1.220   7.982  0.00  0.00    +0.000 N 
ATOM     17  H   UNL     1      46.386   0.466   8.657  0.00  0.00    +0.000 HD
ENDBRANCH   9  12
ENDBRANCH   7  10
ENDBRANCH   1   7
BRANCH   4  18
ATOM     18  C   UNL     1      46.650   8.717  13.614  0.00  0.00    +0.000 C 
BRANCH  18  19
ATOM     19  N   UNL     1      47.940   9.074  13.079  0.00  0.00    +0.000 N 
ATOM     20  C   UNL     1      48.941   9.560  13.886  0.00  0.00    +0.000 C 
ATOM     21  O   UNL     1      48.802   9.669  15.102  0.00  0.00    +0.000 OA
ATOM     22  H   UNL     1      47.998   9.218  12.078  0.00  0.00    +0.000 HD
BRANCH  20  23
ATOM     23  C   UNL     1      50.212   9.883  13.228  0.00  0.00    +0.000 A 
ATOM     24  C   UNL     1      50.825  11.107  13.466  0.00  0.00    +0.000 A 
ATOM     25  S   UNL     1      52.321  11.292  12.668  0.00  0.00    +0.000 S 
ATOM     26  C   UNL     1      52.178   9.767  11.929  0.00  0.00    +0.000 A 
ATOM     27  N   UNL     1      53.135   9.310  11.075  0.00  0.00    +0.000 NA
ATOM     28  C   UNL     1      52.883   8.152  10.562  0.00  0.00    +0.000 A 
ATOM     29  N   UNL     1      51.764   7.407  10.828  0.00  0.00    +0.000 N 
ATOM     30  C   UNL     1      50.788   7.814  11.706  0.00  0.00    +0.000 A 
ATOM     31  O   UNL     1      49.821   7.101  11.957  0.00  0.00    +0.000 OA
ATOM     32  C   UNL     1      51.015   9.116  12.302  0.00  0.00    +0.000 A 
ATOM     33  H   UNL     1      51.629   6.503  10.399  0.00  0.00    +0.000 HD
ENDBRANCH  20  23
ENDBRANCH  18  19
ENDBRANCH   4  18
TORSDOF 6
ENDMDL
