MODEL 1
REMARK VINA RESULT:    -8.624      0.000      0.000
REMARK INTER + INTRA:         -12.029
REMARK INTER:                 -11.145
REMARK INTRA:                  -0.883
REMARK UNBOUND:                -0.883
REMARK  Name = 
REMARK  6 active torsions:
REMARK  status: ('A' for Active; 'I' for Inactive)
REMARK    1  A    between atoms: C_1  and  C_2
REMARK    2  A    between atoms: C_5  and  C_6
REMARK    3  A    between atoms: C_6  and  C_7
REMARK    4  A    between atoms: C_10  and  C_11
REMARK    5  A    between atoms: C_11  and  N_12
REMARK    6  A    between atoms: C_13  and  C_15
REMARK                            x       y       z     vdW  Elec       q    Type
REMARK                         _______ _______ _______ _____ _____    ______ ____
ROOT
ATOM      1  C   UNL     1      47.079   8.148  13.446  0.00  0.00    +0.000 C 
ENDROOT
BRANCH   1   5
ATOM      2  C   UNL     1      44.632   5.589  10.955  0.00  0.00    +0.000 A 
ATOM      3  C   UNL     1      44.202   6.883  11.283  0.00  0.00    +0.000 A 
ATOM      4  C   UNL     1      44.978   7.705  12.105  0.00  0.00    +0.000 A 
ATOM      5  C   UNL     1      46.197   7.246  12.622  0.00  0.00    +0.000 A 
ATOM      6  C   UNL     1      46.577   5.920  12.371  0.00  0.00    +0.000 A 
ATOM      7  C   UNL     1      45.810   5.104  11.534  0.00  0.00    +0.000 A 
BRANCH   2   8
ATOM      8  C   UNL     1      43.871   4.756   9.944  0.00  0.00    +0.000 C 
BRANCH   8  13
ATOM      9  C   UNL     1      47.383   1.449   6.765  0.00  0.00    +0.000 C 
ATOM     10  C   UNL     1      46.444   2.257   7.602  0.00  0.00    +0.000 A 
ATOM     11  C   UNL     1      45.662   1.676   8.596  0.00  0.00    +0.000 A 
ATOM     12  C   UNL     1      44.806   2.474   9.354  0.00  0.00    +0.000 A 
ATOM     13  C   UNL     1      44.743   3.845   9.101  0.00  0.00    +0.000 A 
ATOM     14  N   UNL     1      45.494   4.427   8.132  0.00  0.00    +0.000 NA
ATOM     15  C   UNL     1      46.313   3.627   7.408  0.00  0.00    +0.000 A 
ENDBRANCH   8  13
ENDBRANCH   2   8
ENDBRANCH   1   5
BRANCH   1  16
ATOM     16  N   UNL     1      47.529   7.480  14.635  0.00  0.00    +0.000 N 
ATOM     17  C   UNL     1      48.774   6.918  14.728  0.00  0.00    +0.000 C 
ATOM     18  O   UNL     1      49.599   6.989  13.821  0.00  0.00    +0.000 OA
ATOM     19  H   UNL     1      46.803   7.173  15.275  0.00  0.00    +0.000 HD
BRANCH  17  20
ATOM     20  C   UNL     1      49.093   6.289  16.016  0.00  0.00    +0.000 A 
ATOM     21  C   UNL     1      50.089   6.819  16.824  0.00  0.00    +0.000 A 
ATOM     22  S   UNL     1      50.246   6.018  18.323  0.00  0.00    +0.000 S 
ATOM     23  C   UNL     1      49.032   4.897  17.915  0.00  0.00    +0.000 A 
ATOM     24  N   UNL     1      48.671   3.907  18.776  0.00  0.00    +0.000 NA
ATOM     25  C   UNL     1      47.764   3.108  18.321  0.00  0.00    +0.000 A 
ATOM     26  N   UNL     1      47.183   3.210  17.084  0.00  0.00    +0.000 N 
ATOM     27  C   UNL     1      47.497   4.207  16.196  0.00  0.00    +0.000 A 
ATOM     28  O   UNL     1      46.935   4.284  15.105  0.00  0.00    +0.000 OA
ATOM     29  C   UNL     1      48.512   5.133  16.657  0.00  0.00    +0.000 A 
ATOM     30  H   UNL     1      46.477   2.553  16.786  0.00  0.00    +0.000 HD
ENDBRANCH  17  20
ENDBRANCH   1  16
TORSDOF 5
ENDMDL
MODEL 2
REMARK VINA RESULT:    -8.053      2.101      2.563
REMARK INTER + INTRA:         -11.290
REMARK INTER:                 -10.242
REMARK INTRA:                  -1.048
REMARK UNBOUND:                -0.883
REMARK  Name = 
REMARK  6 active torsions:
REMARK  status: ('A' for Active; 'I' for Inactive)
REMARK    1  A    between atoms: C_1  and  C_2
REMARK    2  A    between atoms: C_5  and  C_6
REMARK    3  A    between atoms: C_6  and  C_7
REMARK    4  A    between atoms: C_10  and  C_11
REMARK    5  A    between atoms: C_11  and  N_12
REMARK    6  A    between atoms: C_13  and  C_15
REMARK                            x       y       z     vdW  Elec       q    Type
REMARK                         _______ _______ _______ _____ _____    ______ ____
ROOT
ATOM      1  C   UNL     1      47.992   7.600  13.745  0.00  0.00    +0.000 C 
ENDROOT
BRANCH   1   5
ATOM      2  C   UNL     1      45.064   5.543  11.308  0.00  0.00    +0.000 A 
ATOM      3  C   UNL     1      45.259   6.925  11.169  0.00  0.00    +0.000 A 
ATOM      4  C   UNL     1      46.187   7.598  11.969  0.00  0.00    +0.000 A 
ATOM      5  C   UNL     1      46.934   6.902  12.929  0.00  0.00    +0.000 A 
ATOM      6  C   UNL     1      46.669   5.540  13.131  0.00  0.00    +0.000 A 
ATOM      7  C   UNL     1      45.754   4.864  12.318  0.00  0.00    +0.000 A 
BRANCH   2   8
ATOM      8  C   UNL     1      44.175   4.789  10.341  0.00  0.00    +0.000 C 
BRANCH   8  13
ATOM      9  C   UNL     1      47.230   1.555   6.654  0.00  0.00    +0.000 C 
ATOM     10  C   UNL     1      46.407   2.346   7.620  0.00  0.00    +0.000 A 
ATOM     11  C   UNL     1      45.652   1.731   8.615  0.00  0.00    +0.000 A 
ATOM     12  C   UNL     1      44.906   2.513   9.497  0.00  0.00    +0.000 A 
ATOM     13  C   UNL     1      44.924   3.901   9.364  0.00  0.00    +0.000 A 
ATOM     14  N   UNL     1      45.649   4.517   8.396  0.00  0.00    +0.000 NA
ATOM     15  C   UNL     1      46.361   3.733   7.552  0.00  0.00    +0.000 A 
ENDBRANCH   8  13
ENDBRANCH   2   8
ENDBRANCH   1   5
BRANCH   1  16
ATOM     16  N   UNL     1      47.900   7.232  15.130  0.00  0.00    +0.000 N 
ATOM     17  C   UNL     1      48.973   6.746  15.827  0.00  0.00    +0.000 C 
ATOM     18  O   UNL     1      50.090   6.638  15.328  0.00  0.00    +0.000 OA
ATOM     19  H   UNL     1      46.964   7.053  15.482  0.00  0.00    +0.000 HD
BRANCH  17  20
ATOM     20  C   UNL     1      48.725   6.433  17.240  0.00  0.00    +0.000 A 
ATOM     21  C   UNL     1      48.915   5.144  17.714  0.00  0.00    +0.000 A 
ATOM     22  S   UNL     1      48.677   4.996  19.398  0.00  0.00    +0.000 S 
ATOM     23  C   UNL     1      48.248   6.637  19.538  0.00  0.00    +0.000 A 
ATOM     24  N   UNL     1      47.910   7.175  20.741  0.00  0.00    +0.000 NA
ATOM     25  C   UNL     1      47.572   8.421  20.693  0.00  0.00    +0.000 A 
ATOM     26  N   UNL     1      47.545   9.179  19.551  0.00  0.00    +0.000 N 
ATOM     27  C   UNL     1      47.904   8.685  18.323  0.00  0.00    +0.000 A 
ATOM     28  O   UNL     1      47.893   9.402  17.324  0.00  0.00    +0.000 OA
ATOM     29  C   UNL     1      48.291   7.289  18.320  0.00  0.00    +0.000 A 
ATOM     30  H   UNL     1      47.272  10.150  19.579  0.00  0.00    +0.000 HD
ENDBRANCH  17  20
ENDBRANCH   1  16
TORSDOF 5
ENDMDL
MODEL 3
REMARK VINA RESULT:    -7.771      2.265      3.985
REMARK INTER + INTRA:         -10.925
REMARK INTER:                  -9.815
REMARK INTRA:                  -1.111
REMARK UNBOUND:                -0.883
REMARK  Name = 
REMARK  6 active torsions:
REMARK  status: ('A' for Active; 'I' for Inactive)
REMARK    1  A    between atoms: C_1  and  C_2
REMARK    2  A    between atoms: C_5  and  C_6
REMARK    3  A    between atoms: C_6  and  C_7
REMARK    4  A    between atoms: C_10  and  C_11
REMARK    5  A    between atoms: C_11  and  N_12
REMARK    6  A    between atoms: C_13  and  C_15
REMARK                            x       y       z     vdW  Elec       q    Type
REMARK                         _______ _______ _______ _____ _____    ______ ____
ROOT
ATOM      1  C   UNL     1      47.171   4.916  14.701  0.00  0.00    +0.000 C 
ENDROOT
BRANCH   1   5
ATOM      2  C   UNL     1      44.910   4.335  11.056  0.00  0.00    +0.000 A 
ATOM      3  C   UNL     1      45.526   5.566  11.321  0.00  0.00    +0.000 A 
ATOM      4  C   UNL     1      46.239   5.766  12.507  0.00  0.00    +0.000 A 
ATOM      5  C   UNL     1      46.343   4.739  13.455  0.00  0.00    +0.000 A 
ATOM      6  C   UNL     1      45.647   3.543  13.231  0.00  0.00    +0.000 A 
ATOM      7  C   UNL     1      44.949   3.337  12.037  0.00  0.00    +0.000 A 
BRANCH   2   8
ATOM      8  C   UNL     1      44.271   4.065   9.709  0.00  0.00    +0.000 C 
BRANCH   8  13
ATOM      9  C   UNL     1      48.019   2.022   5.817  0.00  0.00    +0.000 C 
ATOM     10  C   UNL     1      47.030   2.497   6.832  0.00  0.00    +0.000 A 
ATOM     11  C   UNL     1      46.463   1.632   7.764  0.00  0.00    +0.000 A 
ATOM     12  C   UNL     1      45.550   2.125   8.696  0.00  0.00    +0.000 A 
ATOM     13  C   UNL     1      45.213   3.479   8.675  0.00  0.00    +0.000 A 
ATOM     14  N   UNL     1      45.750   4.334   7.769  0.00  0.00    +0.000 NA
ATOM     15  C   UNL     1      46.632   3.828   6.874  0.00  0.00    +0.000 A 
ENDBRANCH   8  13
ENDBRANCH   2   8
ENDBRANCH   1   5
BRANCH   1  16
ATOM     16  N   UNL     1      47.743   6.232  14.758  0.00  0.00    +0.000 N 
ATOM     17  C   UNL     1      48.828   6.522  15.541  0.00  0.00    +0.000 C 
ATOM     18  O   UNL     1      49.409   5.668  16.206  0.00  0.00    +0.000 OA
ATOM     19  H   UNL     1      47.143   6.991  14.450  0.00  0.00    +0.000 HD
BRANCH  17  20
ATOM     20  C   UNL     1      49.307   7.908  15.475  0.00  0.00    +0.000 A 
ATOM     21  C   UNL     1      49.349   8.687  16.622  0.00  0.00    +0.000 A 
ATOM     22  S   UNL     1      50.030  10.232  16.369  0.00  0.00    +0.000 S 
ATOM     23  C   UNL     1      50.231   9.934  14.707  0.00  0.00    +0.000 A 
ATOM     24  N   UNL     1      50.766  10.876  13.883  0.00  0.00    +0.000 NA
ATOM     25  C   UNL     1      50.825  10.527  12.640  0.00  0.00    +0.000 A 
ATOM     26  N   UNL     1      50.400   9.321  12.147  0.00  0.00    +0.000 N 
ATOM     27  C   UNL     1      49.880   8.334  12.944  0.00  0.00    +0.000 A 
ATOM     28  O   UNL     1      49.534   7.253  12.470  0.00  0.00    +0.000 OA
ATOM     29  C   UNL     1      49.790   8.673  14.350  0.00  0.00    +0.000 A 
ATOM     30  H   UNL     1      50.474   9.107  11.163  0.00  0.00    +0.000 HD
ENDBRANCH  17  20
ENDBRANCH   1  16
TORSDOF 5
ENDMDL
MODEL 4
REMARK VINA RESULT:    -7.322      1.702      2.216
REMARK INTER + INTRA:         -10.346
REMARK INTER:                  -9.469
REMARK INTRA:                  -0.877
REMARK UNBOUND:                -0.883
REMARK  Name = 
REMARK  6 active torsions:
REMARK  status: ('A' for Active; 'I' for Inactive)
REMARK    1  A    between atoms: C_1  and  C_2
REMARK    2  A    between atoms: C_5  and  C_6
REMARK    3  A    between atoms: C_6  and  C_7
REMARK    4  A    between atoms: C_10  and  C_11
REMARK    5  A    between atoms: C_11  and  N_12
REMARK    6  A    between atoms: C_13  and  C_15
REMARK                            x       y       z     vdW  Elec       q    Type
REMARK                         _______ _______ _______ _____ _____    ______ ____
ROOT
ATOM      1  C   UNL     1      47.593   8.949  13.730  0.00  0.00    +0.000 C 
ENDROOT
BRANCH   1   5
ATOM      2  C   UNL     1      45.260   6.128  11.418  0.00  0.00    +0.000 A 
ATOM      3  C   UNL     1      46.504   5.756  11.947  0.00  0.00    +0.000 A 
ATOM      4  C   UNL     1      47.272   6.670  12.675  0.00  0.00    +0.000 A 
ATOM      5  C   UNL     1      46.812   7.978  12.883  0.00  0.00    +0.000 A 
ATOM      6  C   UNL     1      45.613   8.374  12.273  0.00  0.00    +0.000 A 
ATOM      7  C   UNL     1      44.838   7.455  11.560  0.00  0.00    +0.000 A 
BRANCH   2   8
ATOM      8  C   UNL     1      44.361   5.100  10.764  0.00  0.00    +0.000 C 
BRANCH   8  13
ATOM      9  C   UNL     1      46.795   1.615   6.851  0.00  0.00    +0.000 C 
ATOM     10  C   UNL     1      46.201   2.559   7.846  0.00  0.00    +0.000 A 
ATOM     11  C   UNL     1      46.314   3.940   7.706  0.00  0.00    +0.000 A 
ATOM     12  C   UNL     1      45.736   4.779   8.658  0.00  0.00    +0.000 A 
ATOM     13  C   UNL     1      45.056   4.221   9.740  0.00  0.00    +0.000 A 
ATOM     14  N   UNL     1      44.941   2.878   9.896  0.00  0.00    +0.000 NA
ATOM     15  C   UNL     1      45.516   2.087   8.959  0.00  0.00    +0.000 A 
ENDBRANCH   8  13
ENDBRANCH   2   8
ENDBRANCH   1   5
BRANCH   1  16
ATOM     16  N   UNL     1      47.539   8.582  15.117  0.00  0.00    +0.000 N 
ATOM     17  C   UNL     1      48.669   8.322  15.846  0.00  0.00    +0.000 C 
ATOM     18  O   UNL     1      49.797   8.432  15.375  0.00  0.00    +0.000 OA
ATOM     19  H   UNL     1      46.648   8.225  15.448  0.00  0.00    +0.000 HD
BRANCH  17  20
ATOM     20  C   UNL     1      48.450   7.979  17.256  0.00  0.00    +0.000 A 
ATOM     21  C   UNL     1      48.005   8.943  18.149  0.00  0.00    +0.000 A 
ATOM     22  S   UNL     1      47.710   8.334  19.716  0.00  0.00    +0.000 S 
ATOM     23  C   UNL     1      48.228   6.777  19.270  0.00  0.00    +0.000 A 
ATOM     24  N   UNL     1      48.236   5.754  20.168  0.00  0.00    +0.000 NA
ATOM     25  C   UNL     1      48.688   4.637  19.701  0.00  0.00    +0.000 A 
ATOM     26  N   UNL     1      49.129   4.449  18.418  0.00  0.00    +0.000 N 
ATOM     27  C   UNL     1      49.113   5.443  17.473  0.00  0.00    +0.000 A 
ATOM     28  O   UNL     1      49.491   5.230  16.323  0.00  0.00    +0.000 OA
ATOM     29  C   UNL     1      48.615   6.720  17.945  0.00  0.00    +0.000 A 
ATOM     30  H   UNL     1      49.471   3.549  18.113  0.00  0.00    +0.000 HD
ENDBRANCH  17  20
ENDBRANCH   1  16
TORSDOF 5
ENDMDL
MODEL 5
REMARK VINA RESULT:    -7.240      2.739      3.588
REMARK INTER + INTRA:         -10.240
REMARK INTER:                  -9.284
REMARK INTRA:                  -0.956
REMARK UNBOUND:                -0.883
REMARK  Name = 
REMARK  6 active torsions:
REMARK  status: ('A' for Active; 'I' for Inactive)
REMARK    1  A    between atoms: C_1  and  C_2
REMARK    2  A    between atoms: C_5  and  C_6
REMARK    3  A    between atoms: C_6  and  C_7
REMARK    4  A    between atoms: C_10  and  C_11
REMARK    5  A    between atoms: C_11  and  N_12
REMARK    6  A    between atoms: C_13  and  C_15
REMARK                            x       y       z     vdW  Elec       q    Type
REMARK                         _______ _______ _______ _____ _____    ______ ____
ROOT
ATOM      1  C   UNL     1      47.809   4.804  15.508  0.00  0.00    +0.000 C 
ENDROOT
BRANCH   1   5
ATOM      2  C   UNL     1      45.559   4.515  11.821  0.00  0.00    +0.000 A 
ATOM      3  C   UNL     1      45.873   3.362  12.554  0.00  0.00    +0.000 A 
ATOM      4  C   UNL     1      46.618   3.447  13.733  0.00  0.00    +0.000 A 
ATOM      5  C   UNL     1      47.071   4.689  14.200  0.00  0.00    +0.000 A 
ATOM      6  C   UNL     1      46.838   5.828  13.416  0.00  0.00    +0.000 A 
ATOM      7  C   UNL     1      46.077   5.745  12.245  0.00  0.00    +0.000 A 
BRANCH   2   8
ATOM      8  C   UNL     1      44.625   4.444  10.631  0.00  0.00    +0.000 C 
BRANCH   8  13
ATOM      9  C   UNL     1      47.184   2.281   5.924  0.00  0.00    +0.000 C 
ATOM     10  C   UNL     1      46.491   2.791   7.147  0.00  0.00    +0.000 A 
ATOM     11  C   UNL     1      45.883   1.932   8.058  0.00  0.00    +0.000 A 
ATOM     12  C   UNL     1      45.256   2.457   9.188  0.00  0.00    +0.000 A 
ATOM     13  C   UNL     1      45.243   3.838   9.385  0.00  0.00    +0.000 A 
ATOM     14  N   UNL     1      45.824   4.690   8.504  0.00  0.00    +0.000 NA
ATOM     15  C   UNL     1      46.423   4.153   7.414  0.00  0.00    +0.000 A 
ENDBRANCH   8  13
ENDBRANCH   2   8
ENDBRANCH   1   5
BRANCH   1  16
ATOM     16  N   UNL     1      47.899   6.174  15.930  0.00  0.00    +0.000 N 
ATOM     17  C   UNL     1      49.101   6.815  16.072  0.00  0.00    +0.000 C 
ATOM     18  O   UNL     1      50.171   6.276  15.805  0.00  0.00    +0.000 OA
ATOM     19  H   UNL     1      47.084   6.547  16.407  0.00  0.00    +0.000 HD
BRANCH  17  20
ATOM     20  C   UNL     1      49.025   8.220  16.491  0.00  0.00    +0.000 A 
ATOM     21  C   UNL     1      49.632   9.209  15.731  0.00  0.00    +0.000 A 
ATOM     22  S   UNL     1      49.350  10.786  16.318  0.00  0.00    +0.000 S 
ATOM     23  C   UNL     1      48.462  10.196  17.644  0.00  0.00    +0.000 A 
ATOM     24  N   UNL     1      47.930  11.042  18.567  0.00  0.00    +0.000 NA
ATOM     25  C   UNL     1      47.312  10.453  19.537  0.00  0.00    +0.000 A 
ATOM     26  N   UNL     1      47.177   9.096  19.668  0.00  0.00    +0.000 N 
ATOM     27  C   UNL     1      47.673   8.208  18.747  0.00  0.00    +0.000 A 
ATOM     28  O   UNL     1      47.509   6.997  18.882  0.00  0.00    +0.000 OA
ATOM     29  C   UNL     1      48.377   8.816  17.636  0.00  0.00    +0.000 A 
ATOM     30  H   UNL     1      46.681   8.696  20.450  0.00  0.00    +0.000 HD
ENDBRANCH  17  20
ENDBRANCH   1  16
TORSDOF 5
ENDMDL
MODEL 6
REMARK VINA RESULT:    -7.076      3.126      4.170
REMARK INTER + INTRA:         -10.028
REMARK INTER:                  -9.819
REMARK INTRA:                  -0.209
REMARK UNBOUND:                -0.883
REMARK  Name = 
REMARK  6 active torsions:
REMARK  status: ('A' for Active; 'I' for Inactive)
REMARK    1  A    between atoms: C_1  and  C_2
REMARK    2  A    between atoms: C_5  and  C_6
REMARK    3  A    between atoms: C_6  and  C_7
REMARK    4  A    between atoms: C_10  and  C_11
REMARK    5  A    between atoms: C_11  and  N_12
REMARK    6  A    between atoms: C_13  and  C_15
REMARK                            x       y       z     vdW  Elec       q    Type
REMARK                         _______ _______ _______ _____ _____    ______ ____
ROOT
ATOM      1  C   UNL     1      45.638   6.884  13.266  0.00  0.00    +0.000 C 
ENDROOT
BRANCH   1   5
ATOM      2  C   UNL     1      44.725   3.585  10.617  0.00  0.00    +0.000 A 
ATOM      3  C   UNL     1      45.110   4.828  10.096  0.00  0.00    +0.000 A 
ATOM      4  C   UNL     1      45.384   5.903  10.946  0.00  0.00    +0.000 A 
ATOM      5  C   UNL     1      45.272   5.757  12.335  0.00  0.00    +0.000 A 
ATOM      6  C   UNL     1      44.797   4.542  12.848  0.00  0.00    +0.000 A 
ATOM      7  C   UNL     1      44.539   3.462  11.998  0.00  0.00    +0.000 A 
BRANCH   2   8
ATOM      8  C   UNL     1      44.578   2.380   9.710  0.00  0.00    +0.000 C 
BRANCH   8  13
ATOM      9  C   UNL     1      48.046   2.148   5.095  0.00  0.00    +0.000 C 
ATOM     10  C   UNL     1      47.146   2.265   6.283  0.00  0.00    +0.000 A 
ATOM     11  C   UNL     1      46.346   3.386   6.489  0.00  0.00    +0.000 A 
ATOM     12  C   UNL     1      45.518   3.445   7.610  0.00  0.00    +0.000 A 
ATOM     13  C   UNL     1      45.509   2.381   8.512  0.00  0.00    +0.000 A 
ATOM     14  N   UNL     1      46.287   1.284   8.330  0.00  0.00    +0.000 NA
ATOM     15  C   UNL     1      47.084   1.255   7.236  0.00  0.00    +0.000 A 
ENDBRANCH   8  13
ENDBRANCH   2   8
ENDBRANCH   1   5
BRANCH   1  16
ATOM     16  N   UNL     1      46.940   7.406  12.956  0.00  0.00    +0.000 N 
ATOM     17  C   UNL     1      48.090   6.772  13.343  0.00  0.00    +0.000 C 
ATOM     18  O   UNL     1      48.083   5.697  13.937  0.00  0.00    +0.000 OA
ATOM     19  H   UNL     1      46.979   8.393  12.720  0.00  0.00    +0.000 HD
BRANCH  17  20
ATOM     20  C   UNL     1      49.342   7.421  12.933  0.00  0.00    +0.000 A 
ATOM     21  C   UNL     1      49.637   7.580  11.587  0.00  0.00    +0.000 A 
ATOM     22  S   UNL     1      51.081   8.445  11.306  0.00  0.00    +0.000 S 
ATOM     23  C   UNL     1      51.392   8.579  12.973  0.00  0.00    +0.000 A 
ATOM     24  N   UNL     1      52.505   9.215  13.432  0.00  0.00    +0.000 NA
ATOM     25  C   UNL     1      52.631   9.209  14.718  0.00  0.00    +0.000 A 
ATOM     26  N   UNL     1      51.745   8.627  15.587  0.00  0.00    +0.000 N 
ATOM     27  C   UNL     1      50.598   8.000  15.170  0.00  0.00    +0.000 A 
ATOM     28  O   UNL     1      49.812   7.513  15.980  0.00  0.00    +0.000 OA
ATOM     29  C   UNL     1      50.408   7.977  13.733  0.00  0.00    +0.000 A 
ATOM     30  H   UNL     1      51.899   8.657  16.584  0.00  0.00    +0.000 HD
ENDBRANCH  17  20
ENDBRANCH   1  16
TORSDOF 5
ENDMDL
MODEL 7
REMARK VINA RESULT:    -7.067      1.712      2.441
REMARK INTER + INTRA:         -10.016
REMARK INTER:                  -9.351
REMARK INTRA:                  -0.665
REMARK UNBOUND:                -0.883
REMARK  Name = 
REMARK  6 active torsions:
REMARK  status: ('A' for Active; 'I' for Inactive)
REMARK    1  A    between atoms: C_1  and  C_2
REMARK    2  A    between atoms: C_5  and  C_6
REMARK    3  A    between atoms: C_6  and  C_7
REMARK    4  A    between atoms: C_10  and  C_11
REMARK    5  A    between atoms: C_11  and  N_12
REMARK    6  A    between atoms: C_13  and  C_15
REMARK                            x       y       z     vdW  Elec       q    Type
REMARK                         _______ _______ _______ _____ _____    ______ ____
ROOT
ATOM      1  C   UNL     1      45.017   8.213  12.536  0.00  0.00    +0.000 C 
ENDROOT
BRANCH   1   5
ATOM      2  C   UNL     1      44.474   4.496  10.384  0.00  0.00    +0.000 A 
ATOM      3  C   UNL     1      45.697   5.179  10.325  0.00  0.00    +0.000 A 
ATOM      4  C   UNL     1      45.871   6.391  11.000  0.00  0.00    +0.000 A 
ATOM      5  C   UNL     1      44.820   6.948  11.742  0.00  0.00    +0.000 A 
ATOM      6  C   UNL     1      43.571   6.312  11.721  0.00  0.00    +0.000 A 
ATOM      7  C   UNL     1      43.402   5.091  11.060  0.00  0.00    +0.000 A 
BRANCH   2   8
ATOM      8  C   UNL     1      44.332   3.113   9.783  0.00  0.00    +0.000 C 
BRANCH   8  13
ATOM      9  C   UNL     1      47.923   1.758   5.465  0.00  0.00    +0.000 C 
ATOM     10  C   UNL     1      47.000   2.164   6.569  0.00  0.00    +0.000 A 
ATOM     11  C   UNL     1      46.369   3.405   6.578  0.00  0.00    +0.000 A 
ATOM     12  C   UNL     1      45.511   3.735   7.627  0.00  0.00    +0.000 A 
ATOM     13  C   UNL     1      45.303   2.817   8.656  0.00  0.00    +0.000 A 
ATOM     14  N   UNL     1      45.916   1.606   8.667  0.00  0.00    +0.000 NA
ATOM     15  C   UNL     1      46.746   1.314   7.638  0.00  0.00    +0.000 A 
ENDBRANCH   8  13
ENDBRANCH   2   8
ENDBRANCH   1   5
BRANCH   1  16
ATOM     16  N   UNL     1      46.058   8.052  13.512  0.00  0.00    +0.000 N 
ATOM     17  C   UNL     1      47.331   8.512  13.302  0.00  0.00    +0.000 C 
ATOM     18  O   UNL     1      47.651   9.129  12.289  0.00  0.00    +0.000 OA
ATOM     19  H   UNL     1      45.906   7.331  14.210  0.00  0.00    +0.000 HD
BRANCH  17  20
ATOM     20  C   UNL     1      48.277   8.288  14.402  0.00  0.00    +0.000 A 
ATOM     21  C   UNL     1      49.129   9.305  14.807  0.00  0.00    +0.000 A 
ATOM     22  S   UNL     1      50.080   8.894  16.164  0.00  0.00    +0.000 S 
ATOM     23  C   UNL     1      49.431   7.322  16.214  0.00  0.00    +0.000 A 
ATOM     24  N   UNL     1      49.833   6.425  17.155  0.00  0.00    +0.000 NA
ATOM     25  C   UNL     1      49.284   5.260  17.051  0.00  0.00    +0.000 A 
ATOM     26  N   UNL     1      48.367   4.912  16.094  0.00  0.00    +0.000 N 
ATOM     27  C   UNL     1      47.913   5.792  15.145  0.00  0.00    +0.000 A 
ATOM     28  O   UNL     1      47.069   5.452  14.318  0.00  0.00    +0.000 OA
ATOM     29  C   UNL     1      48.499   7.115  15.215  0.00  0.00    +0.000 A 
ATOM     30  H   UNL     1      47.972   3.983  16.067  0.00  0.00    +0.000 HD
ENDBRANCH  17  20
ENDBRANCH   1  16
TORSDOF 5
ENDMDL
MODEL 8
REMARK VINA RESULT:    -7.040      3.554      8.627
REMARK INTER + INTRA:          -9.982
REMARK INTER:                  -9.057
REMARK INTRA:                  -0.925
REMARK UNBOUND:                -0.883
REMARK  Name = 
REMARK  6 active torsions:
REMARK  status: ('A' for Active; 'I' for Inactive)
REMARK    1  A    between atoms: C_1  and  C_2
REMARK    2  A    between atoms: C_5  and  C_6
REMARK    3  A    between atoms: C_6  and  C_7
REMARK    4  A    between atoms: C_10  and  C_11
REMARK    5  A    between atoms: C_11  and  N_12
REMARK    6  A    between atoms: C_13  and  C_15
REMARK                            x       y       z     vdW  Elec       q    Type
REMARK                         _______ _______ _______ _____ _____    ______ ____
ROOT
ATOM      1  C   UNL     1      47.161   3.325  16.901  0.00  0.00    +0.000 C 
ENDROOT
BRANCH   1   5
ATOM      2  C   UNL     1      51.242   3.935  18.211  0.00  0.00    +0.000 A 
ATOM      3  C   UNL     1      50.895   2.792  17.478  0.00  0.00    +0.000 A 
ATOM      4  C   UNL     1      49.574   2.579  17.071  0.00  0.00    +0.000 A 
ATOM      5  C   UNL     1      48.573   3.503  17.397  0.00  0.00    +0.000 A 
ATOM      6  C   UNL     1      48.904   4.595  18.212  0.00  0.00    +0.000 A 
ATOM      7  C   UNL     1      50.228   4.817  18.603  0.00  0.00    +0.000 A 
BRANCH   2   8
ATOM      8  C   UNL     1      52.692   4.244  18.519  0.00  0.00    +0.000 C 
BRANCH   8  13
ATOM      9  C   UNL     1      55.504   6.964  14.267  0.00  0.00    +0.000 C 
ATOM     10  C   UNL     1      54.742   6.306  15.372  0.00  0.00    +0.000 A 
ATOM     11  C   UNL     1      53.452   6.706  15.713  0.00  0.00    +0.000 A 
ATOM     12  C   UNL     1      52.779   6.056  16.747  0.00  0.00    +0.000 A 
ATOM     13  C   UNL     1      53.412   5.016  17.429  0.00  0.00    +0.000 A 
ATOM     14  N   UNL     1      54.671   4.618  17.115  0.00  0.00    +0.000 NA
ATOM     15  C   UNL     1      55.302   5.270  16.109  0.00  0.00    +0.000 A 
ENDBRANCH   8  13
ENDBRANCH   2   8
ENDBRANCH   1   5
BRANCH   1  16
ATOM     16  N   UNL     1      46.821   4.338  15.941  0.00  0.00    +0.000 N 
ATOM     17  C   UNL     1      46.949   4.136  14.593  0.00  0.00    +0.000 C 
ATOM     18  O   UNL     1      47.317   3.064  14.119  0.00  0.00    +0.000 OA
ATOM     19  H   UNL     1      46.782   5.289  16.293  0.00  0.00    +0.000 HD
BRANCH  17  20
ATOM     20  C   UNL     1      46.542   5.259  13.741  0.00  0.00    +0.000 A 
ATOM     21  C   UNL     1      47.397   6.335  13.548  0.00  0.00    +0.000 A 
ATOM     22  S   UNL     1      46.796   7.492  12.447  0.00  0.00    +0.000 S 
ATOM     23  C   UNL     1      45.346   6.626  12.241  0.00  0.00    +0.000 A 
ATOM     24  N   UNL     1      44.365   7.083  11.415  0.00  0.00    +0.000 NA
ATOM     25  C   UNL     1      43.307   6.343  11.384  0.00  0.00    +0.000 A 
ATOM     26  N   UNL     1      43.140   5.187  12.101  0.00  0.00    +0.000 N 
ATOM     27  C   UNL     1      44.111   4.677  12.923  0.00  0.00    +0.000 A 
ATOM     28  O   UNL     1      43.938   3.622  13.531  0.00  0.00    +0.000 OA
ATOM     29  C   UNL     1      45.322   5.469  12.996  0.00  0.00    +0.000 A 
ATOM     30  H   UNL     1      42.287   4.652  12.032  0.00  0.00    +0.000 HD
ENDBRANCH  17  20
ENDBRANCH   1  16
TORSDOF 5
ENDMDL
MODEL 9
REMARK VINA RESULT:    -6.933      3.136      4.567
REMARK INTER + INTRA:          -9.843
REMARK INTER:                  -8.656
REMARK INTRA:                  -1.187
REMARK UNBOUND:                -0.883
REMARK  Name = 
REMARK  6 active torsions:
REMARK  status: ('A' for Active; 'I' for Inactive)
REMARK    1  A    between atoms: C_1  and  C_2
REMARK    2  A    between atoms: C_5  and  C_6
REMARK    3  A    between atoms: C_6  and  C_7
REMARK    4  A    between atoms: C_10  and  C_11
REMARK    5  A    between atoms: C_11  and  N_12
REMARK    6  A    between atoms: C_13  and  C_15
REMARK                            x       y       z     vdW  Elec       q    Type
REMARK                         _______ _______ _______ _____ _____    ______ ____
ROOT
ATOM      1  C   UNL     1      47.140   8.482  13.934  0.00  0.00    +0.000 C 
ENDROOT
BRANCH   1   5
ATOM      2  C   UNL     1      45.047   5.740  11.318  0.00  0.00    +0.000 A 
ATOM      3  C   UNL     1      46.044   5.272  12.186  0.00  0.00    +0.000 A 
ATOM      4  C   UNL     1      46.739   6.157  13.016  0.00  0.00    +0.000 A 
ATOM      5  C   UNL     1      46.453   7.528  12.990  0.00  0.00    +0.000 A 
ATOM      6  C   UNL     1      45.524   8.005  12.055  0.00  0.00    +0.000 A 
ATOM      7  C   UNL     1      44.817   7.118  11.236  0.00  0.00    +0.000 A 
BRANCH   2   8
ATOM      8  C   UNL     1      44.190   4.769  10.533  0.00  0.00    +0.000 C 
BRANCH   8  13
ATOM      9  C   UNL     1      47.265   1.896   6.573  0.00  0.00    +0.000 C 
ATOM     10  C   UNL     1      46.438   2.592   7.607  0.00  0.00    +0.000 A 
ATOM     11  C   UNL     1      45.725   1.886   8.572  0.00  0.00    +0.000 A 
ATOM     12  C   UNL     1      44.974   2.581   9.520  0.00  0.00    +0.000 A 
ATOM     13  C   UNL     1      44.945   3.975   9.483  0.00  0.00    +0.000 A 
ATOM     14  N   UNL     1      45.629   4.679   8.546  0.00  0.00    +0.000 NA
ATOM     15  C   UNL     1      46.346   3.978   7.635  0.00  0.00    +0.000 A 
ENDBRANCH   8  13
ENDBRANCH   2   8
ENDBRANCH   1   5
BRANCH   1  16
ATOM     16  N   UNL     1      48.507   8.694  13.547  0.00  0.00    +0.000 N 
ATOM     17  C   UNL     1      49.556   8.252  14.308  0.00  0.00    +0.000 C 
ATOM     18  O   UNL     1      49.396   7.608  15.341  0.00  0.00    +0.000 OA
ATOM     19  H   UNL     1      48.668   9.434  12.871  0.00  0.00    +0.000 HD
BRANCH  17  20
ATOM     20  C   UNL     1      50.893   8.529  13.768  0.00  0.00    +0.000 A 
ATOM     21  C   UNL     1      51.864   9.107  14.572  0.00  0.00    +0.000 A 
ATOM     22  S   UNL     1      53.381   9.257  13.804  0.00  0.00    +0.000 S 
ATOM     23  C   UNL     1      52.773   8.614  12.352  0.00  0.00    +0.000 A 
ATOM     24  N   UNL     1      53.569   8.473  11.257  0.00  0.00    +0.000 NA
ATOM     25  C   UNL     1      52.965   8.006  10.214  0.00  0.00    +0.000 A 
ATOM     26  N   UNL     1      51.639   7.665  10.167  0.00  0.00    +0.000 N 
ATOM     27  C   UNL     1      50.807   7.765  11.253  0.00  0.00    +0.000 A 
ATOM     28  O   UNL     1      49.628   7.423  11.182  0.00  0.00    +0.000 OA
ATOM     29  C   UNL     1      51.434   8.285  12.452  0.00  0.00    +0.000 A 
ATOM     30  H   UNL     1      51.225   7.303   9.320  0.00  0.00    +0.000 HD
ENDBRANCH  17  20
ENDBRANCH   1  16
TORSDOF 5
ENDMDL
