MODEL 1
REMARK VINA RESULT:    -6.792      0.000      0.000
REMARK INTER + INTRA:         -11.050
REMARK INTER:                  -9.571
REMARK INTRA:                  -1.480
REMARK UNBOUND:                -1.480
REMARK  Name = 
REMARK  8 active torsions:
REMARK  status: ('A' for Active; 'I' for Inactive)
REMARK    1  A    between atoms: C_1  and  C_2
REMARK    2  A    between atoms: C_2  and  N_3
REMARK    3  A    between atoms: C_2  and  C_25
REMARK    4  A    between atoms: N_3  and  C_4
REMARK    5  A    between atoms: C_4  and  C_5
REMARK    6  A    between atoms: C_8  and  C_9
REMARK    7  A    between atoms: C_9  and  N_10
REMARK    8  A    between atoms: C_11  and  C_13
REMARK                            x       y       z     vdW  Elec       q    Type
REMARK                         _______ _______ _______ _____ _____    ______ ____
ROOT
ATOM      1  C   UNL     1      49.085   8.051  15.929  0.00  0.00    +0.000 A 
ATOM      2  C   UNL     1      49.603   7.095  15.043  0.00  0.00    +0.000 A 
ATOM      3  C   UNL     1      49.139   7.018  13.730  0.00  0.00    +0.000 A 
ATOM      4  C   UNL     1      48.155   7.906  13.281  0.00  0.00    +0.000 A 
ATOM      5  C   UNL     1      47.609   8.836  14.176  0.00  0.00    +0.000 A 
ATOM      6  C   UNL     1      48.074   8.911  15.487  0.00  0.00    +0.000 A 
ENDROOT
BRANCH   1   7
ATOM      7  C   UNL     1      49.505   8.051  17.374  0.00  0.00    +0.000 C 
BRANCH   7   8
ATOM      8  N   UNL     1      48.737   7.122  18.204  0.00  0.00    +0.000 NA
ATOM      9  H   UNL     1      47.764   7.098  17.890  0.00  0.00    +0.000 HD
BRANCH   8  11
ATOM     10  C   UNL     1      50.584   5.663  18.975  0.00  0.00    +0.000 C 
ATOM     11  C   UNL     1      49.281   5.742  18.175  0.00  0.00    +0.000 C 
BRANCH  11  12
ATOM     12  C   UNL     1      48.176   4.729  18.651  0.00  0.00    +0.000 C 
ATOM     13  C   UNL     1      48.574   3.252  18.727  0.00  0.00    +0.000 C 
ATOM     14  C   UNL     1      49.038   2.741  17.373  0.00  0.00    +0.000 C 
ATOM     15  C   UNL     1      48.086   3.128  16.243  0.00  0.00    +0.000 C 
ATOM     16  C   UNL     1      47.275   4.410  16.439  0.00  0.00    +0.000 C 
ATOM     17  O   UNL     1      47.016   4.770  17.793  0.00  0.00    +0.000 OA
ENDBRANCH  11  12
ENDBRANCH   8  11
ENDBRANCH   7   8
ENDBRANCH   1   7
BRANCH   4  18
ATOM     18  C   UNL     1      47.633   7.834  11.873  0.00  0.00    +0.000 C 
BRANCH  18  19
ATOM     19  N   UNL     1      46.929   6.599  11.657  0.00  0.00    +0.000 N 
ATOM     20  C   UNL     1      45.568   6.533  11.775  0.00  0.00    +0.000 C 
ATOM     21  O   UNL     1      44.885   7.523  12.026  0.00  0.00    +0.000 OA
ATOM     22  H   UNL     1      47.477   5.744  11.693  0.00  0.00    +0.000 HD
BRANCH  20  23
ATOM     23  C   UNL     1      44.958   5.226  11.523  0.00  0.00    +0.000 A 
ATOM     24  C   UNL     1      44.238   4.599  12.531  0.00  0.00    +0.000 A 
ATOM     25  S   UNL     1      43.558   3.108  12.060  0.00  0.00    +0.000 S 
ATOM     26  C   UNL     1      44.244   3.226  10.508  0.00  0.00    +0.000 A 
ATOM     27  N   UNL     1      44.065   2.238   9.590  0.00  0.00    +0.000 NA
ATOM     28  C   UNL     1      44.656   2.445   8.461  0.00  0.00    +0.000 A 
ATOM     29  N   UNL     1      45.407   3.556   8.165  0.00  0.00    +0.000 N 
ATOM     30  C   UNL     1      45.597   4.589   9.048  0.00  0.00    +0.000 A 
ATOM     31  O   UNL     1      46.237   5.581   8.740  0.00  0.00    +0.000 OA
ATOM     32  C   UNL     1      44.958   4.397  10.346  0.00  0.00    +0.000 A 
ATOM     33  H   UNL     1      45.830   3.661   7.257  0.00  0.00    +0.000 HD
ENDBRANCH  20  23
ENDBRANCH  18  19
ENDBRANCH   4  18
TORSDOF 7
ENDMDL
MODEL 2
REMARK VINA RESULT:    -6.628      3.206      8.379
REMARK INTER + INTRA:         -10.819
REMARK INTER:                  -9.716
REMARK INTRA:                  -1.103
REMARK UNBOUND:                -1.480
REMARK  Name = 
REMARK  8 active torsions:
REMARK  status: ('A' for Active; 'I' for Inactive)
REMARK    1  A    between atoms: C_1  and  C_2
REMARK    2  A    between atoms: C_2  and  N_3
REMARK    3  A    between atoms: C_2  and  C_25
REMARK    4  A    between atoms: N_3  and  C_4
REMARK    5  A    between atoms: C_4  and  C_5
REMARK    6  A    between atoms: C_8  and  C_9
REMARK    7  A    between atoms: C_9  and  N_10
REMARK    8  A    between atoms: C_11  and  C_13
REMARK                            x       y       z     vdW  Elec       q    Type
REMARK                         _______ _______ _______ _____ _____    ______ ____
ROOT
ATOM      1  C   UNL     1      46.978   6.604  12.240  0.00  0.00    +0.000 A 
ATOM      2  C   UNL     1      47.170   5.676  13.274  0.00  0.00    +0.000 A 
ATOM      3  C   UNL     1      47.825   6.047  14.448  0.00  0.00    +0.000 A 
ATOM      4  C   UNL     1      48.289   7.358  14.608  0.00  0.00    +0.000 A 
ATOM      5  C   UNL     1      48.131   8.275  13.560  0.00  0.00    +0.000 A 
ATOM      6  C   UNL     1      47.477   7.902  12.389  0.00  0.00    +0.000 A 
ENDROOT
BRANCH   1   7
ATOM      7  C   UNL     1      46.376   6.166  10.931  0.00  0.00    +0.000 C 
BRANCH   7   8
ATOM      8  N   UNL     1      45.124   5.427  11.084  0.00  0.00    +0.000 NA
ATOM      9  H   UNL     1      44.402   5.837  10.486  0.00  0.00    +0.000 HD
BRANCH   8  11
ATOM     10  C   UNL     1      44.983   3.122  11.980  0.00  0.00    +0.000 C 
ATOM     11  C   UNL     1      45.260   3.989  10.747  0.00  0.00    +0.000 C 
BRANCH  11  12
ATOM     12  C   UNL     1      44.352   3.648   9.509  0.00  0.00    +0.000 C 
ATOM     13  C   UNL     1      44.331   2.189   9.043  0.00  0.00    +0.000 C 
ATOM     14  C   UNL     1      45.725   1.716   8.668  0.00  0.00    +0.000 C 
ATOM     15  C   UNL     1      46.456   2.705   7.762  0.00  0.00    +0.000 C 
ATOM     16  C   UNL     1      46.061   4.178   7.896  0.00  0.00    +0.000 C 
ATOM     17  O   UNL     1      44.731   4.416   8.348  0.00  0.00    +0.000 OA
ENDBRANCH  11  12
ENDBRANCH   8  11
ENDBRANCH   7   8
ENDBRANCH   1   7
BRANCH   4  18
ATOM     18  C   UNL     1      49.007   7.775  15.861  0.00  0.00    +0.000 C 
BRANCH  18  19
ATOM     19  N   UNL     1      50.032   6.825  16.198  0.00  0.00    +0.000 N 
ATOM     20  C   UNL     1      50.009   6.157  17.391  0.00  0.00    +0.000 C 
ATOM     21  O   UNL     1      49.099   6.301  18.204  0.00  0.00    +0.000 OA
ATOM     22  H   UNL     1      50.897   6.875  15.668  0.00  0.00    +0.000 HD
BRANCH  20  23
ATOM     23  C   UNL     1      51.100   5.207  17.623  0.00  0.00    +0.000 A 
ATOM     24  C   UNL     1      52.345   5.676  18.016  0.00  0.00    +0.000 A 
ATOM     25  S   UNL     1      53.487   4.439  18.286  0.00  0.00    +0.000 S 
ATOM     26  C   UNL     1      52.370   3.238  17.840  0.00  0.00    +0.000 A 
ATOM     27  N   UNL     1      52.726   1.924  17.828  0.00  0.00    +0.000 NA
ATOM     28  C   UNL     1      51.789   1.121  17.450  0.00  0.00    +0.000 A 
ATOM     29  N   UNL     1      50.522   1.513  17.088  0.00  0.00    +0.000 N 
ATOM     30  C   UNL     1      50.109   2.821  17.106  0.00  0.00    +0.000 A 
ATOM     31  O   UNL     1      48.965   3.132  16.818  0.00  0.00    +0.000 OA
ATOM     32  C   UNL     1      51.139   3.772  17.515  0.00  0.00    +0.000 A 
ATOM     33  H   UNL     1      49.833   0.831  16.816  0.00  0.00    +0.000 HD
ENDBRANCH  20  23
ENDBRANCH  18  19
ENDBRANCH   4  18
TORSDOF 7
ENDMDL
MODEL 3
REMARK VINA RESULT:    -6.586      2.793      8.271
REMARK INTER + INTRA:         -10.761
REMARK INTER:                  -9.429
REMARK INTRA:                  -1.332
REMARK UNBOUND:                -1.480
REMARK  Name = 
REMARK  8 active torsions:
REMARK  status: ('A' for Active; 'I' for Inactive)
REMARK    1  A    between atoms: C_1  and  C_2
REMARK    2  A    between atoms: C_2  and  N_3
REMARK    3  A    between atoms: C_2  and  C_25
REMARK    4  A    between atoms: N_3  and  C_4
REMARK    5  A    between atoms: C_4  and  C_5
REMARK    6  A    between atoms: C_8  and  C_9
REMARK    7  A    between atoms: C_9  and  N_10
REMARK    8  A    between atoms: C_11  and  C_13
REMARK                            x       y       z     vdW  Elec       q    Type
REMARK                         _______ _______ _______ _____ _____    ______ ____
ROOT
ATOM      1  C   UNL     1      45.875   6.986  11.783  0.00  0.00    +0.000 A 
ATOM      2  C   UNL     1      45.492   8.001  12.673  0.00  0.00    +0.000 A 
ATOM      3  C   UNL     1      46.450   8.702  13.405  0.00  0.00    +0.000 A 
ATOM      4  C   UNL     1      47.809   8.404  13.249  0.00  0.00    +0.000 A 
ATOM      5  C   UNL     1      48.189   7.365  12.389  0.00  0.00    +0.000 A 
ATOM      6  C   UNL     1      47.231   6.666  11.659  0.00  0.00    +0.000 A 
ENDROOT
BRANCH   1   7
ATOM      7  C   UNL     1      44.831   6.155  11.086  0.00  0.00    +0.000 C 
BRANCH   7   8
ATOM      8  N   UNL     1      45.288   5.590   9.817  0.00  0.00    +0.000 NA
ATOM      9  H   UNL     1      46.209   5.968   9.580  0.00  0.00    +0.000 HD
BRANCH   8  11
ATOM     10  C   UNL     1      44.848   3.568  11.178  0.00  0.00    +0.000 C 
ATOM     11  C   UNL     1      45.375   4.109   9.846  0.00  0.00    +0.000 C 
BRANCH  11  12
ATOM     12  C   UNL     1      44.652   3.513   8.583  0.00  0.00    +0.000 C 
ATOM     13  C   UNL     1      44.661   1.989   8.431  0.00  0.00    +0.000 C 
ATOM     14  C   UNL     1      46.081   1.454   8.377  0.00  0.00    +0.000 C 
ATOM     15  C   UNL     1      46.965   2.234   7.407  0.00  0.00    +0.000 C 
ATOM     16  C   UNL     1      46.596   3.701   7.171  0.00  0.00    +0.000 C 
ATOM     17  O   UNL     1      45.221   4.023   7.359  0.00  0.00    +0.000 OA
ENDBRANCH  11  12
ENDBRANCH   8  11
ENDBRANCH   7   8
ENDBRANCH   1   7
BRANCH   4  18
ATOM     18  C   UNL     1      48.856   9.140  14.035  0.00  0.00    +0.000 C 
BRANCH  18  19
ATOM     19  N   UNL     1      49.256   8.376  15.186  0.00  0.00    +0.000 N 
ATOM     20  C   UNL     1      48.708   8.616  16.416  0.00  0.00    +0.000 C 
ATOM     21  O   UNL     1      47.828   9.455  16.587  0.00  0.00    +0.000 OA
ATOM     22  H   UNL     1      50.132   7.866  15.118  0.00  0.00    +0.000 HD
BRANCH  20  23
ATOM     23  C   UNL     1      49.184   7.771  17.514  0.00  0.00    +0.000 A 
ATOM     24  C   UNL     1      49.721   8.360  18.650  0.00  0.00    +0.000 A 
ATOM     25  S   UNL     1      50.185   7.239  19.847  0.00  0.00    +0.000 S 
ATOM     26  C   UNL     1      49.729   5.925  18.868  0.00  0.00    +0.000 A 
ATOM     27  N   UNL     1      49.893   4.644  19.299  0.00  0.00    +0.000 NA
ATOM     28  C   UNL     1      49.525   3.745  18.450  0.00  0.00    +0.000 A 
ATOM     29  N   UNL     1      49.001   4.011  17.208  0.00  0.00    +0.000 N 
ATOM     30  C   UNL     1      48.795   5.283  16.738  0.00  0.00    +0.000 A 
ATOM     31  O   UNL     1      48.291   5.486  15.646  0.00  0.00    +0.000 OA
ATOM     32  C   UNL     1      49.208   6.339  17.658  0.00  0.00    +0.000 A 
ATOM     33  H   UNL     1      48.721   3.259  16.599  0.00  0.00    +0.000 HD
ENDBRANCH  20  23
ENDBRANCH  18  19
ENDBRANCH   4  18
TORSDOF 7
ENDMDL
MODEL 4
REMARK VINA RESULT:    -6.312      4.335      6.016
REMARK INTER + INTRA:         -10.375
REMARK INTER:                  -9.315
REMARK INTRA:                  -1.060
REMARK UNBOUND:                -1.480
REMARK  Name = 
REMARK  8 active torsions:
REMARK  status: ('A' for Active; 'I' for Inactive)
REMARK    1  A    between atoms: C_1  and  C_2
REMARK    2  A    between atoms: C_2  and  N_3
REMARK    3  A    between atoms: C_2  and  C_25
REMARK    4  A    between atoms: N_3  and  C_4
REMARK    5  A    between atoms: C_4  and  C_5
REMARK    6  A    between atoms: C_8  and  C_9
REMARK    7  A    between atoms: C_9  and  N_10
REMARK    8  A    between atoms: C_11  and  C_13
REMARK                            x       y       z     vdW  Elec       q    Type
REMARK                         _______ _______ _______ _____ _____    ______ ____
ROOT
ATOM      1  C   UNL     1      51.590   3.470  18.185  0.00  0.00    +0.000 A 
ATOM      2  C   UNL     1      51.054   2.415  17.433  0.00  0.00    +0.000 A 
ATOM      3  C   UNL     1      49.701   2.402  17.091  0.00  0.00    +0.000 A 
ATOM      4  C   UNL     1      48.867   3.453  17.490  0.00  0.00    +0.000 A 
ATOM      5  C   UNL     1      49.394   4.488  18.274  0.00  0.00    +0.000 A 
ATOM      6  C   UNL     1      50.744   4.499  18.615  0.00  0.00    +0.000 A 
ENDROOT
BRANCH   1   7
ATOM      7  C   UNL     1      53.021   3.419  18.650  0.00  0.00    +0.000 C 
BRANCH   7   8
ATOM      8  N   UNL     1      53.917   2.752  17.705  0.00  0.00    +0.000 NA
ATOM      9  H   UNL     1      54.618   3.415  17.365  0.00  0.00    +0.000 HD
BRANCH   8  11
ATOM     10  C   UNL     1      54.979   1.866  19.759  0.00  0.00    +0.000 C 
ATOM     11  C   UNL     1      54.612   1.584  18.299  0.00  0.00    +0.000 C 
BRANCH  11  12
ATOM     12  C   UNL     1      53.741   0.291  18.096  0.00  0.00    +0.000 C 
ATOM     13  C   UNL     1      54.233  -0.992  18.772  0.00  0.00    +0.000 C 
ATOM     14  C   UNL     1      55.627  -1.362  18.293  0.00  0.00    +0.000 C 
ATOM     15  C   UNL     1      55.758  -1.306  16.773  0.00  0.00    +0.000 C 
ATOM     16  C   UNL     1      54.834  -0.329  16.041  0.00  0.00    +0.000 C 
ATOM     17  O   UNL     1      53.604  -0.040  16.698  0.00  0.00    +0.000 OA
ENDBRANCH  11  12
ENDBRANCH   8  11
ENDBRANCH   7   8
ENDBRANCH   1   7
BRANCH   4  18
ATOM     18  C   UNL     1      47.405   3.453  17.142  0.00  0.00    +0.000 C 
BRANCH  18  19
ATOM     19  N   UNL     1      47.121   4.457  16.153  0.00  0.00    +0.000 N 
ATOM     20  C   UNL     1      47.171   4.165  14.817  0.00  0.00    +0.000 C 
ATOM     21  O   UNL     1      47.416   3.035  14.404  0.00  0.00    +0.000 OA
ATOM     22  H   UNL     1      47.160   5.426  16.456  0.00  0.00    +0.000 HD
BRANCH  20  23
ATOM     23  C   UNL     1      46.854   5.263  13.901  0.00  0.00    +0.000 A 
ATOM     24  C   UNL     1      47.753   6.309  13.746  0.00  0.00    +0.000 A 
ATOM     25  S   UNL     1      47.253   7.480  12.613  0.00  0.00    +0.000 S 
ATOM     26  C   UNL     1      45.794   6.654  12.326  0.00  0.00    +0.000 A 
ATOM     27  N   UNL     1      44.872   7.149  11.456  0.00  0.00    +0.000 NA
ATOM     28  C   UNL     1      43.803   6.435  11.348  0.00  0.00    +0.000 A 
ATOM     29  N   UNL     1      43.573   5.263  12.029  0.00  0.00    +0.000 N 
ATOM     30  C   UNL     1      44.480   4.713  12.898  0.00  0.00    +0.000 A 
ATOM     31  O   UNL     1      44.263   3.650  13.458  0.00  0.00    +0.000 OA
ATOM     32  C   UNL     1      45.704   5.491  13.066  0.00  0.00    +0.000 A 
ATOM     33  H   UNL     1      42.720   4.747  11.887  0.00  0.00    +0.000 HD
ENDBRANCH  20  23
ENDBRANCH  18  19
ENDBRANCH   4  18
TORSDOF 7
ENDMDL
MODEL 5
REMARK VINA RESULT:    -6.262      3.520      5.627
REMARK INTER + INTRA:         -10.304
REMARK INTER:                  -9.060
REMARK INTRA:                  -1.244
REMARK UNBOUND:                -1.480
REMARK  Name = 
REMARK  8 active torsions:
REMARK  status: ('A' for Active; 'I' for Inactive)
REMARK    1  A    between atoms: C_1  and  C_2
REMARK    2  A    between atoms: C_2  and  N_3
REMARK    3  A    between atoms: C_2  and  C_25
REMARK    4  A    between atoms: N_3  and  C_4
REMARK    5  A    between atoms: C_4  and  C_5
REMARK    6  A    between atoms: C_8  and  C_9
REMARK    7  A    between atoms: C_9  and  N_10
REMARK    8  A    between atoms: C_11  and  C_13
REMARK                            x       y       z     vdW  Elec       q    Type
REMARK                         _______ _______ _______ _____ _____    ______ ____
ROOT
ATOM      1  C   UNL     1      51.349   3.617  18.000  0.00  0.00    +0.000 A 
ATOM      2  C   UNL     1      50.831   2.464  17.392  0.00  0.00    +0.000 A 
ATOM      3  C   UNL     1      49.478   2.383  17.062  0.00  0.00    +0.000 A 
ATOM      4  C   UNL     1      48.626   3.461  17.326  0.00  0.00    +0.000 A 
ATOM      5  C   UNL     1      49.135   4.598  17.967  0.00  0.00    +0.000 A 
ATOM      6  C   UNL     1      50.486   4.677  18.297  0.00  0.00    +0.000 A 
ENDROOT
BRANCH   1   7
ATOM      7  C   UNL     1      52.782   3.652  18.460  0.00  0.00    +0.000 C 
BRANCH   7   8
ATOM      8  N   UNL     1      53.305   5.007  18.633  0.00  0.00    +0.000 NA
ATOM      9  H   UNL     1      53.784   5.083  19.534  0.00  0.00    +0.000 HD
BRANCH   8  11
ATOM     10  C   UNL     1      55.049   4.187  17.078  0.00  0.00    +0.000 C 
ATOM     11  C   UNL     1      54.249   5.401  17.559  0.00  0.00    +0.000 C 
BRANCH  11  12
ATOM     12  C   UNL     1      53.467   6.146  16.415  0.00  0.00    +0.000 C 
ATOM     13  C   UNL     1      54.282   6.613  15.205  0.00  0.00    +0.000 C 
ATOM     14  C   UNL     1      55.388   7.565  15.628  0.00  0.00    +0.000 C 
ATOM     15  C   UNL     1      54.891   8.658  16.572  0.00  0.00    +0.000 C 
ATOM     16  C   UNL     1      53.682   8.313  17.445  0.00  0.00    +0.000 C 
ATOM     17  O   UNL     1      52.803   7.327  16.911  0.00  0.00    +0.000 OA
ENDBRANCH  11  12
ENDBRANCH   8  11
ENDBRANCH   7   8
ENDBRANCH   1   7
BRANCH   4  18
ATOM     18  C   UNL     1      47.163   3.390  16.988  0.00  0.00    +0.000 C 
BRANCH  18  19
ATOM     19  N   UNL     1      46.820   4.388  16.011  0.00  0.00    +0.000 N 
ATOM     20  C   UNL     1      46.946   4.136  14.672  0.00  0.00    +0.000 C 
ATOM     21  O   UNL     1      47.312   3.045  14.244  0.00  0.00    +0.000 OA
ATOM     22  H   UNL     1      46.757   5.348  16.337  0.00  0.00    +0.000 HD
BRANCH  20  23
ATOM     23  C   UNL     1      46.559   5.223  13.770  0.00  0.00    +0.000 A 
ATOM     24  C   UNL     1      47.433   6.279  13.553  0.00  0.00    +0.000 A 
ATOM     25  S   UNL     1      46.849   7.434  12.444  0.00  0.00    +0.000 S 
ATOM     26  C   UNL     1      45.387   6.587  12.252  0.00  0.00    +0.000 A 
ATOM     27  N   UNL     1      44.408   7.063  11.435  0.00  0.00    +0.000 NA
ATOM     28  C   UNL     1      43.344   6.334  11.397  0.00  0.00    +0.000 A 
ATOM     29  N   UNL     1      43.172   5.165  12.099  0.00  0.00    +0.000 N 
ATOM     30  C   UNL     1      44.137   4.633  12.916  0.00  0.00    +0.000 A 
ATOM     31  O   UNL     1      43.969   3.572  13.495  0.00  0.00    +0.000 OA
ATOM     32  C   UNL     1      45.358   5.429  13.004  0.00  0.00    +0.000 A 
ATOM     33  H   UNL     1      42.319   4.636  12.013  0.00  0.00    +0.000 HD
ENDBRANCH  20  23
ENDBRANCH  18  19
ENDBRANCH   4  18
TORSDOF 7
ENDMDL
MODEL 6
REMARK VINA RESULT:    -6.230      2.860      4.924
REMARK INTER + INTRA:         -10.259
REMARK INTER:                  -8.777
REMARK INTRA:                  -1.482
REMARK UNBOUND:                -1.480
REMARK  Name = 
REMARK  8 active torsions:
REMARK  status: ('A' for Active; 'I' for Inactive)
REMARK    1  A    between atoms: C_1  and  C_2
REMARK    2  A    between atoms: C_2  and  N_3
REMARK    3  A    between atoms: C_2  and  C_25
REMARK    4  A    between atoms: N_3  and  C_4
REMARK    5  A    between atoms: C_4  and  C_5
REMARK    6  A    between atoms: C_8  and  C_9
REMARK    7  A    between atoms: C_9  and  N_10
REMARK    8  A    between atoms: C_11  and  C_13
REMARK                            x       y       z     vdW  Elec       q    Type
REMARK                         _______ _______ _______ _____ _____    ______ ____
ROOT
ATOM      1  C   UNL     1      49.829   5.653  19.411  0.00  0.00    +0.000 A 
ATOM      2  C   UNL     1      48.431   5.674  19.518  0.00  0.00    +0.000 A 
ATOM      3  C   UNL     1      47.638   5.000  18.589  0.00  0.00    +0.000 A 
ATOM      4  C   UNL     1      48.235   4.286  17.544  0.00  0.00    +0.000 A 
ATOM      5  C   UNL     1      49.631   4.297  17.415  0.00  0.00    +0.000 A 
ATOM      6  C   UNL     1      50.421   4.970  18.343  0.00  0.00    +0.000 A 
ENDROOT
BRANCH   1   7
ATOM      7  C   UNL     1      50.673   6.478  20.346  0.00  0.00    +0.000 C 
BRANCH   7   8
ATOM      8  N   UNL     1      51.291   7.638  19.703  0.00  0.00    +0.000 NA
ATOM      9  H   UNL     1      51.755   7.349  18.838  0.00  0.00    +0.000 HD
BRANCH   8  11
ATOM     10  C   UNL     1      50.138   9.645  20.583  0.00  0.00    +0.000 C 
ATOM     11  C   UNL     1      50.315   8.708  19.384  0.00  0.00    +0.000 C 
BRANCH  11  12
ATOM     12  C   UNL     1      50.745   9.439  18.060  0.00  0.00    +0.000 C 
ATOM     13  C   UNL     1      49.930  10.669  17.649  0.00  0.00    +0.000 C 
ATOM     14  C   UNL     1      48.465  10.315  17.460  0.00  0.00    +0.000 C 
ATOM     15  C   UNL     1      48.269   9.061  16.612  0.00  0.00    +0.000 C 
ATOM     16  C   UNL     1      49.399   8.029  16.644  0.00  0.00    +0.000 C 
ATOM     17  O   UNL     1      50.695   8.549  16.925  0.00  0.00    +0.000 OA
ENDBRANCH  11  12
ENDBRANCH   8  11
ENDBRANCH   7   8
ENDBRANCH   1   7
BRANCH   4  18
ATOM     18  C   UNL     1      47.399   3.562  16.526  0.00  0.00    +0.000 C 
BRANCH  18  19
ATOM     19  N   UNL     1      46.792   4.493  15.614  0.00  0.00    +0.000 N 
ATOM     20  C   UNL     1      46.771   4.248  14.268  0.00  0.00    +0.000 C 
ATOM     21  O   UNL     1      47.225   3.214  13.784  0.00  0.00    +0.000 OA
ATOM     22  H   UNL     1      46.640   5.437  15.954  0.00  0.00    +0.000 HD
BRANCH  20  23
ATOM     23  C   UNL     1      46.119   5.261  13.435  0.00  0.00    +0.000 A 
ATOM     24  C   UNL     1      46.772   6.457  13.172  0.00  0.00    +0.000 A 
ATOM     25  S   UNL     1      45.895   7.506  12.154  0.00  0.00    +0.000 S 
ATOM     26  C   UNL     1      44.591   6.418  12.069  0.00  0.00    +0.000 A 
ATOM     27  N   UNL     1      43.472   6.724  11.358  0.00  0.00    +0.000 NA
ATOM     28  C   UNL     1      42.552   5.820  11.395  0.00  0.00    +0.000 A 
ATOM     29  N   UNL     1      42.652   4.630  12.075  0.00  0.00    +0.000 N 
ATOM     30  C   UNL     1      43.767   4.266  12.786  0.00  0.00    +0.000 A 
ATOM     31  O   UNL     1      43.841   3.185  13.347  0.00  0.00    +0.000 OA
ATOM     32  C   UNL     1      44.833   5.263  12.787  0.00  0.00    +0.000 A 
ATOM     33  H   UNL     1      41.900   3.961  12.050  0.00  0.00    +0.000 HD
ENDBRANCH  20  23
ENDBRANCH  18  19
ENDBRANCH   4  18
TORSDOF 7
ENDMDL
MODEL 7
REMARK VINA RESULT:    -6.122      4.296      6.664
REMARK INTER + INTRA:         -10.107
REMARK INTER:                  -8.919
REMARK INTRA:                  -1.188
REMARK UNBOUND:                -1.480
REMARK  Name = 
REMARK  8 active torsions:
REMARK  status: ('A' for Active; 'I' for Inactive)
REMARK    1  A    between atoms: C_1  and  C_2
REMARK    2  A    between atoms: C_2  and  N_3
REMARK    3  A    between atoms: C_2  and  C_25
REMARK    4  A    between atoms: N_3  and  C_4
REMARK    5  A    between atoms: C_4  and  C_5
REMARK    6  A    between atoms: C_8  and  C_9
REMARK    7  A    between atoms: C_9  and  N_10
REMARK    8  A    between atoms: C_11  and  C_13
REMARK                            x       y       z     vdW  Elec       q    Type
REMARK                         _______ _______ _______ _____ _____    ______ ____
ROOT
ATOM      1  C   UNL     1      50.935   8.706  11.151  0.00  0.00    +0.000 A 
ATOM      2  C   UNL     1      50.364   7.446  11.385  0.00  0.00    +0.000 A 
ATOM      3  C   UNL     1      49.015   7.329  11.720  0.00  0.00    +0.000 A 
ATOM      4  C   UNL     1      48.214   8.473  11.814  0.00  0.00    +0.000 A 
ATOM      5  C   UNL     1      48.792   9.734  11.617  0.00  0.00    +0.000 A 
ATOM      6  C   UNL     1      50.139   9.849  11.284  0.00  0.00    +0.000 A 
ENDROOT
BRANCH   1   7
ATOM      7  C   UNL     1      52.415   8.834  10.906  0.00  0.00    +0.000 C 
BRANCH   7   8
ATOM      8  N   UNL     1      52.771   8.861   9.488  0.00  0.00    +0.000 NA
ATOM      9  H   UNL     1      53.352   9.679   9.291  0.00  0.00    +0.000 HD
BRANCH   8  11
ATOM     10  C   UNL     1      53.973   6.842  10.271  0.00  0.00    +0.000 C 
ATOM     11  C   UNL     1      53.500   7.644   9.055  0.00  0.00    +0.000 C 
BRANCH  11  12
ATOM     12  C   UNL     1      52.608   6.821   8.054  0.00  0.00    +0.000 C 
ATOM     13  C   UNL     1      53.148   5.464   7.595  0.00  0.00    +0.000 C 
ATOM     14  C   UNL     1      54.494   5.616   6.908  0.00  0.00    +0.000 C 
ATOM     15  C   UNL     1      54.498   6.732   5.866  0.00  0.00    +0.000 C 
ATOM     16  C   UNL     1      53.521   7.888   6.097  0.00  0.00    +0.000 C 
ATOM     17  O   UNL     1      52.352   7.562   6.842  0.00  0.00    +0.000 OA
ENDBRANCH  11  12
ENDBRANCH   8  11
ENDBRANCH   7   8
ENDBRANCH   1   7
BRANCH   4  18
ATOM     18  C   UNL     1      46.761   8.370  12.183  0.00  0.00    +0.000 C 
BRANCH  18  19
ATOM     19  N   UNL     1      46.279   7.032  11.974  0.00  0.00    +0.000 N 
ATOM     20  C   UNL     1      44.988   6.801  11.583  0.00  0.00    +0.000 C 
ATOM     21  O   UNL     1      44.201   7.715  11.353  0.00  0.00    +0.000 OA
ATOM     22  H   UNL     1      46.820   6.278  12.386  0.00  0.00    +0.000 HD
BRANCH  20  23
ATOM     23  C   UNL     1      44.610   5.399  11.392  0.00  0.00    +0.000 A 
ATOM     24  C   UNL     1      43.856   4.753  12.362  0.00  0.00    +0.000 A 
ATOM     25  S   UNL     1      43.465   3.142  11.965  0.00  0.00    +0.000 S 
ATOM     26  C   UNL     1      44.332   3.237  10.505  0.00  0.00    +0.000 A 
ATOM     27  N   UNL     1      44.422   2.161   9.676  0.00  0.00    +0.000 NA
ATOM     28  C   UNL     1      45.126   2.363   8.614  0.00  0.00    +0.000 A 
ATOM     29  N   UNL     1      45.745   3.550   8.300  0.00  0.00    +0.000 N 
ATOM     30  C   UNL     1      45.665   4.668   9.091  0.00  0.00    +0.000 A 
ATOM     31  O   UNL     1      46.193   5.718   8.765  0.00  0.00    +0.000 OA
ATOM     32  C   UNL     1      44.888   4.486  10.314  0.00  0.00    +0.000 A 
ATOM     33  H   UNL     1      46.269   3.644   7.446  0.00  0.00    +0.000 HD
ENDBRANCH  20  23
ENDBRANCH  18  19
ENDBRANCH   4  18
TORSDOF 7
ENDMDL
MODEL 8
REMARK VINA RESULT:    -5.989      4.547      9.314
REMARK INTER + INTRA:          -9.919
REMARK INTER:                  -8.713
REMARK INTRA:                  -1.206
REMARK UNBOUND:                -1.480
REMARK  Name = 
REMARK  8 active torsions:
REMARK  status: ('A' for Active; 'I' for Inactive)
REMARK    1  A    between atoms: C_1  and  C_2
REMARK    2  A    between atoms: C_2  and  N_3
REMARK    3  A    between atoms: C_2  and  C_25
REMARK    4  A    between atoms: N_3  and  C_4
REMARK    5  A    between atoms: C_4  and  C_5
REMARK    6  A    between atoms: C_8  and  C_9
REMARK    7  A    between atoms: C_9  and  N_10
REMARK    8  A    between atoms: C_11  and  C_13
REMARK                            x       y       z     vdW  Elec       q    Type
REMARK                         _______ _______ _______ _____ _____    ______ ____
ROOT
ATOM      1  C   UNL     1      47.518   4.349  16.076  0.00  0.00    +0.000 A 
ATOM      2  C   UNL     1      47.552   3.386  17.095  0.00  0.00    +0.000 A 
ATOM      3  C   UNL     1      48.327   3.588  18.237  0.00  0.00    +0.000 A 
ATOM      4  C   UNL     1      49.071   4.765  18.381  0.00  0.00    +0.000 A 
ATOM      5  C   UNL     1      49.067   5.710  17.347  0.00  0.00    +0.000 A 
ATOM      6  C   UNL     1      48.294   5.507  16.206  0.00  0.00    +0.000 A 
ENDROOT
BRANCH   1   7
ATOM      7  C   UNL     1      46.776   4.073  14.796  0.00  0.00    +0.000 C 
BRANCH   7   8
ATOM      8  N   UNL     1      47.214   4.906  13.676  0.00  0.00    +0.000 NA
ATOM      9  H   UNL     1      47.665   4.325  12.966  0.00  0.00    +0.000 HD
BRANCH   8  11
ATOM     10  C   UNL     1      46.524   7.092  12.738  0.00  0.00    +0.000 C 
ATOM     11  C   UNL     1      46.099   5.652  13.043  0.00  0.00    +0.000 C 
BRANCH  11  12
ATOM     12  C   UNL     1      45.578   4.859  11.789  0.00  0.00    +0.000 C 
ATOM     13  C   UNL     1      44.730   5.637  10.778  0.00  0.00    +0.000 C 
ATOM     14  C   UNL     1      43.490   6.216  11.437  0.00  0.00    +0.000 C 
ATOM     15  C   UNL     1      42.749   5.192  12.295  0.00  0.00    +0.000 C 
ATOM     16  C   UNL     1      43.593   4.068  12.902  0.00  0.00    +0.000 C 
ATOM     17  O   UNL     1      44.771   3.727  12.177  0.00  0.00    +0.000 OA
ENDBRANCH  11  12
ENDBRANCH   8  11
ENDBRANCH   7   8
ENDBRANCH   1   7
BRANCH   4  18
ATOM     18  C   UNL     1      49.920   4.998  19.599  0.00  0.00    +0.000 C 
BRANCH  18  19
ATOM     19  N   UNL     1      51.039   4.094  19.617  0.00  0.00    +0.000 N 
ATOM     20  C   UNL     1      52.248   4.460  19.093  0.00  0.00    +0.000 C 
ATOM     21  O   UNL     1      52.447   5.578  18.626  0.00  0.00    +0.000 OA
ATOM     22  H   UNL     1      50.833   3.111  19.766  0.00  0.00    +0.000 HD
BRANCH  20  23
ATOM     23  C   UNL     1      53.318   3.462  19.174  0.00  0.00    +0.000 A 
ATOM     24  C   UNL     1      54.464   3.743  19.905  0.00  0.00    +0.000 A 
ATOM     25  S   UNL     1      55.587   2.462  19.934  0.00  0.00    +0.000 S 
ATOM     26  C   UNL     1      54.602   1.505  18.931  0.00  0.00    +0.000 A 
ATOM     27  N   UNL     1      55.001   0.264  18.541  0.00  0.00    +0.000 NA
ATOM     28  C   UNL     1      54.168  -0.344  17.765  0.00  0.00    +0.000 A 
ATOM     29  N   UNL     1      52.967   0.175  17.347  0.00  0.00    +0.000 N 
ATOM     30  C   UNL     1      52.511   1.411  17.731  0.00  0.00    +0.000 A 
ATOM     31  O   UNL     1      51.421   1.827  17.375  0.00  0.00    +0.000 OA
ATOM     32  C   UNL     1      53.424   2.146  18.601  0.00  0.00    +0.000 A 
ATOM     33  H   UNL     1      52.357  -0.360  16.751  0.00  0.00    +0.000 HD
ENDBRANCH  20  23
ENDBRANCH  18  19
ENDBRANCH   4  18
TORSDOF 7
ENDMDL
MODEL 9
REMARK VINA RESULT:    -5.753      5.308      7.785
REMARK INTER + INTRA:          -9.586
REMARK INTER:                  -8.622
REMARK INTRA:                  -0.964
REMARK UNBOUND:                -1.480
REMARK  Name = 
REMARK  8 active torsions:
REMARK  status: ('A' for Active; 'I' for Inactive)
REMARK    1  A    between atoms: C_1  and  C_2
REMARK    2  A    between atoms: C_2  and  N_3
REMARK    3  A    between atoms: C_2  and  C_25
REMARK    4  A    between atoms: N_3  and  C_4
REMARK    5  A    between atoms: C_4  and  C_5
REMARK    6  A    between atoms: C_8  and  C_9
REMARK    7  A    between atoms: C_9  and  N_10
REMARK    8  A    between atoms: C_11  and  C_13
REMARK                            x       y       z     vdW  Elec       q    Type
REMARK                         _______ _______ _______ _____ _____    ______ ____
ROOT
ATOM      1  C   UNL     1      47.306   7.994  12.363  0.00  0.00    +0.000 A 
ATOM      2  C   UNL     1      48.371   7.104  12.162  0.00  0.00    +0.000 A 
ATOM      3  C   UNL     1      49.618   7.571  11.747  0.00  0.00    +0.000 A 
ATOM      4  C   UNL     1      49.819   8.940  11.536  0.00  0.00    +0.000 A 
ATOM      5  C   UNL     1      48.745   9.825  11.700  0.00  0.00    +0.000 A 
ATOM      6  C   UNL     1      47.501   9.357  12.114  0.00  0.00    +0.000 A 
ENDROOT
BRANCH   1   7
ATOM      7  C   UNL     1      45.934   7.471  12.696  0.00  0.00    +0.000 C 
BRANCH   7   8
ATOM      8  N   UNL     1      45.263   6.831  11.564  0.00  0.00    +0.000 NA
ATOM      9  H   UNL     1      45.808   6.976  10.710  0.00  0.00    +0.000 HD
BRANCH   8  11
ATOM     10  C   UNL     1      45.355   4.987  13.214  0.00  0.00    +0.000 C 
ATOM     11  C   UNL     1      45.064   5.375  11.762  0.00  0.00    +0.000 C 
BRANCH  11  12
ATOM     12  C   UNL     1      43.629   4.965  11.266  0.00  0.00    +0.000 C 
ATOM     13  C   UNL     1      43.151   3.552  11.611  0.00  0.00    +0.000 C 
ATOM     14  C   UNL     1      44.092   2.503  11.042  0.00  0.00    +0.000 C 
ATOM     15  C   UNL     1      44.440   2.761   9.577  0.00  0.00    +0.000 C 
ATOM     16  C   UNL     1      44.402   4.218   9.110  0.00  0.00    +0.000 C 
ATOM     17  O   UNL     1      43.516   5.069   9.831  0.00  0.00    +0.000 OA
ENDBRANCH  11  12
ENDBRANCH   8  11
ENDBRANCH   7   8
ENDBRANCH   1   7
BRANCH   4  18
ATOM     18  C   UNL     1      51.152   9.463  11.079  0.00  0.00    +0.000 C 
BRANCH  18  19
ATOM     19  N   UNL     1      52.072   8.381  10.856  0.00  0.00    +0.000 N 
ATOM     20  C   UNL     1      52.778   8.286   9.688  0.00  0.00    +0.000 C 
ATOM     21  O   UNL     1      52.694   9.133   8.802  0.00  0.00    +0.000 OA
ATOM     22  H   UNL     1      51.973   7.563  11.450  0.00  0.00    +0.000 HD
BRANCH  20  23
ATOM     23  C   UNL     1      53.692   7.147   9.574  0.00  0.00    +0.000 A 
ATOM     24  C   UNL     1      54.658   6.943  10.549  0.00  0.00    +0.000 A 
ATOM     25  S   UNL     1      55.608   5.551  10.291  0.00  0.00    +0.000 S 
ATOM     26  C   UNL     1      54.792   5.200   8.840  0.00  0.00    +0.000 A 
ATOM     27  N   UNL     1      55.143   4.123   8.086  0.00  0.00    +0.000 NA
ATOM     28  C   UNL     1      54.457   3.985   7.002  0.00  0.00    +0.000 A 
ATOM     29  N   UNL     1      53.445   4.826   6.604  0.00  0.00    +0.000 N 
ATOM     30  C   UNL     1      53.040   5.910   7.341  0.00  0.00    +0.000 A 
ATOM     31  O   UNL     1      52.111   6.615   6.980  0.00  0.00    +0.000 OA
ATOM     32  C   UNL     1      53.795   6.117   8.573  0.00  0.00    +0.000 A 
ATOM     33  H   UNL     1      52.940   4.652   5.751  0.00  0.00    +0.000 HD
ENDBRANCH  20  23
ENDBRANCH  18  19
ENDBRANCH   4  18
TORSDOF 7
ENDMDL
