MODEL 1
REMARK VINA RESULT:    -7.237      0.000      0.000
REMARK INTER + INTRA:          -9.997
REMARK INTER:                  -9.565
REMARK INTRA:                  -0.432
REMARK UNBOUND:                -0.432
REMARK  Name = 
REMARK  6 active torsions:
REMARK  status: ('A' for Active; 'I' for Inactive)
REMARK    1  A    between atoms: N_1  and  C_2
REMARK    2  A    between atoms: C_2  and  C_3
REMARK    3  A    between atoms: C_3  and  C_4
REMARK    4  A    between atoms: C_7  and  N_8
REMARK    5  A    between atoms: N_8  and  C_9
REMARK    6  A    between atoms: C_9  and  C_10
REMARK                            x       y       z     vdW  Elec       q    Type
REMARK                         _______ _______ _______ _____ _____    ______ ____
ROOT
ATOM      1  C   UNL     1      46.163   2.232   7.918  0.00  0.00    +0.000 A 
ATOM      2  C   UNL     1      45.265   1.674   8.836  0.00  0.00    +0.000 A 
ATOM      3  C   UNL     1      44.403   2.489   9.581  0.00  0.00    +0.000 A 
ATOM      4  C   UNL     1      44.445   3.881   9.456  0.00  0.00    +0.000 A 
ATOM      5  C   UNL     1      45.297   4.428   8.491  0.00  0.00    +0.000 A 
ATOM      6  C   UNL     1      46.160   3.620   7.745  0.00  0.00    +0.000 A 
ENDROOT
BRANCH   4   7
ATOM      7  N   UNL     1      43.621   4.760  10.171  0.00  0.00    +0.000 N 
ATOM      8  H   UNL     1      42.725   4.857   9.692  0.00  0.00    +0.000 HD
BRANCH   7   9
ATOM      9  C   UNL     1      43.414   4.484  11.596  0.00  0.00    +0.000 C 
BRANCH   9  10
ATOM     10  C   UNL     1      44.661   4.801  12.387  0.00  0.00    +0.000 A 
ATOM     11  C   UNL     1      45.101   6.118  12.503  0.00  0.00    +0.000 A 
ATOM     12  N   UNL     1      46.241   6.463  13.155  0.00  0.00    +0.000 NA
ATOM     13  C   UNL     1      46.926   5.432  13.695  0.00  0.00    +0.000 A 
ATOM     14  C   UNL     1      46.497   4.121  13.590  0.00  0.00    +0.000 A 
ATOM     15  N   UNL     1      45.363   3.774  12.936  0.00  0.00    +0.000 NA
ENDBRANCH   9  10
ENDBRANCH   7   9
ENDBRANCH   4   7
BRANCH   1  16
ATOM     16  C   UNL     1      47.153   1.375   7.164  0.00  0.00    +0.000 C 
BRANCH  16  17
ATOM     17  C   UNL     1      48.350   2.157   6.608  0.00  0.00    +0.000 C 
BRANCH  17  18
ATOM     18  N   UNL     1      48.333   2.168   5.144  0.00  0.00    +0.000 NA
ATOM     19  H   UNL     1      47.887   3.025   4.819  0.00  0.00    +0.000 HD
ATOM     20  H   UNL     1      47.757   1.399   4.802  0.00  0.00    +0.000 HD
ENDBRANCH  17  18
ENDBRANCH  16  17
ENDBRANCH   1  16
TORSDOF 6
ENDMDL
MODEL 2
REMARK VINA RESULT:    -5.885      2.677      3.902
REMARK INTER + INTRA:          -8.209
REMARK INTER:                  -7.921
REMARK INTRA:                  -0.288
REMARK UNBOUND:                -0.432
REMARK  Name = 
REMARK  6 active torsions:
REMARK  status: ('A' for Active; 'I' for Inactive)
REMARK    1  A    between atoms: N_1  and  C_2
REMARK    2  A    between atoms: C_2  and  C_3
REMARK    3  A    between atoms: C_3  and  C_4
REMARK    4  A    between atoms: C_7  and  N_8
REMARK    5  A    between atoms: N_8  and  C_9
REMARK    6  A    between atoms: C_9  and  C_10
REMARK                            x       y       z     vdW  Elec       q    Type
REMARK                         _______ _______ _______ _____ _____    ______ ____
ROOT
ATOM      1  C   UNL     1      44.875   4.188   9.874  0.00  0.00    +0.000 A 
ATOM      2  C   UNL     1      44.539   3.166  10.771  0.00  0.00    +0.000 A 
ATOM      3  C   UNL     1      44.763   3.316  12.145  0.00  0.00    +0.000 A 
ATOM      4  C   UNL     1      45.363   4.472  12.652  0.00  0.00    +0.000 A 
ATOM      5  C   UNL     1      45.635   5.515  11.761  0.00  0.00    +0.000 A 
ATOM      6  C   UNL     1      45.416   5.372  10.388  0.00  0.00    +0.000 A 
ENDROOT
BRANCH   4   7
ATOM      7  N   UNL     1      45.625   4.691  14.011  0.00  0.00    +0.000 N 
ATOM      8  H   UNL     1      45.316   3.884  14.555  0.00  0.00    +0.000 HD
BRANCH   7   9
ATOM      9  C   UNL     1      46.991   5.069  14.384  0.00  0.00    +0.000 C 
BRANCH   9  10
ATOM     10  C   UNL     1      47.449   4.287  15.593  0.00  0.00    +0.000 A 
ATOM     11  C   UNL     1      47.386   4.860  16.862  0.00  0.00    +0.000 A 
ATOM     12  N   UNL     1      47.831   4.232  17.981  0.00  0.00    +0.000 NA
ATOM     13  C   UNL     1      48.339   2.997  17.780  0.00  0.00    +0.000 A 
ATOM     14  C   UNL     1      48.402   2.416  16.525  0.00  0.00    +0.000 A 
ATOM     15  N   UNL     1      47.965   3.043  15.408  0.00  0.00    +0.000 NA
ENDBRANCH   9  10
ENDBRANCH   7   9
ENDBRANCH   4   7
BRANCH   1  16
ATOM     16  C   UNL     1      44.713   4.013   8.382  0.00  0.00    +0.000 C 
BRANCH  16  17
ATOM     17  C   UNL     1      45.910   3.330   7.707  0.00  0.00    +0.000 C 
BRANCH  17  18
ATOM     18  N   UNL     1      46.830   4.322   7.146  0.00  0.00    +0.000 NA
ATOM     19  H   UNL     1      47.515   4.583   7.854  0.00  0.00    +0.000 HD
ATOM     20  H   UNL     1      46.317   5.174   6.918  0.00  0.00    +0.000 HD
ENDBRANCH  17  18
ENDBRANCH  16  17
ENDBRANCH   1  16
TORSDOF 6
ENDMDL
MODEL 3
REMARK VINA RESULT:    -5.309      2.160      3.510
REMARK INTER + INTRA:          -7.448
REMARK INTER:                  -7.170
REMARK INTRA:                  -0.278
REMARK UNBOUND:                -0.432
REMARK  Name = 
REMARK  6 active torsions:
REMARK  status: ('A' for Active; 'I' for Inactive)
REMARK    1  A    between atoms: N_1  and  C_2
REMARK    2  A    between atoms: C_2  and  C_3
REMARK    3  A    between atoms: C_3  and  C_4
REMARK    4  A    between atoms: C_7  and  N_8
REMARK    5  A    between atoms: N_8  and  C_9
REMARK    6  A    between atoms: C_9  and  C_10
REMARK                            x       y       z     vdW  Elec       q    Type
REMARK                         _______ _______ _______ _____ _____    ______ ____
ROOT
ATOM      1  C   UNL     1      44.992   4.034   9.607  0.00  0.00    +0.000 A 
ATOM      2  C   UNL     1      44.799   3.194  10.711  0.00  0.00    +0.000 A 
ATOM      3  C   UNL     1      45.020   3.659  12.014  0.00  0.00    +0.000 A 
ATOM      4  C   UNL     1      45.476   4.959  12.243  0.00  0.00    +0.000 A 
ATOM      5  C   UNL     1      45.605   5.814  11.143  0.00  0.00    +0.000 A 
ATOM      6  C   UNL     1      45.387   5.356   9.840  0.00  0.00    +0.000 A 
ENDROOT
BRANCH   4   7
ATOM      7  N   UNL     1      45.726   5.492  13.514  0.00  0.00    +0.000 N 
ATOM      8  H   UNL     1      44.936   5.296  14.130  0.00  0.00    +0.000 HD
BRANCH   7   9
ATOM      9  C   UNL     1      46.988   5.126  14.165  0.00  0.00    +0.000 C 
BRANCH   9  10
ATOM     10  C   UNL     1      47.899   6.326  14.276  0.00  0.00    +0.000 A 
ATOM     11  C   UNL     1      47.574   7.514  13.623  0.00  0.00    +0.000 A 
ATOM     12  N   UNL     1      48.375   8.610  13.639  0.00  0.00    +0.000 NA
ATOM     13  C   UNL     1      49.519   8.474  14.344  0.00  0.00    +0.000 A 
ATOM     14  C   UNL     1      49.850   7.301  15.000  0.00  0.00    +0.000 A 
ATOM     15  N   UNL     1      49.055   6.204  14.981  0.00  0.00    +0.000 NA
ENDBRANCH   9  10
ENDBRANCH   7   9
ENDBRANCH   4   7
BRANCH   1  16
ATOM     16  C   UNL     1      44.835   3.527   8.192  0.00  0.00    +0.000 C 
BRANCH  16  17
ATOM     17  C   UNL     1      46.152   3.080   7.546  0.00  0.00    +0.000 C 
BRANCH  17  18
ATOM     18  N   UNL     1      46.736   4.161   6.748  0.00  0.00    +0.000 NA
ATOM     19  H   UNL     1      46.000   4.614   6.207  0.00  0.00    +0.000 HD
ATOM     20  H   UNL     1      47.390   3.772   6.070  0.00  0.00    +0.000 HD
ENDBRANCH  17  18
ENDBRANCH  16  17
ENDBRANCH   1  16
TORSDOF 6
ENDMDL
MODEL 4
REMARK VINA RESULT:    -5.250      3.310      5.252
REMARK INTER + INTRA:          -7.370
REMARK INTER:                  -7.094
REMARK INTRA:                  -0.276
REMARK UNBOUND:                -0.432
REMARK  Name = 
REMARK  6 active torsions:
REMARK  status: ('A' for Active; 'I' for Inactive)
REMARK    1  A    between atoms: N_1  and  C_2
REMARK    2  A    between atoms: C_2  and  C_3
REMARK    3  A    between atoms: C_3  and  C_4
REMARK    4  A    between atoms: C_7  and  N_8
REMARK    5  A    between atoms: N_8  and  C_9
REMARK    6  A    between atoms: C_9  and  C_10
REMARK                            x       y       z     vdW  Elec       q    Type
REMARK                         _______ _______ _______ _____ _____    ______ ____
ROOT
ATOM      1  C   UNL     1      44.725   4.567  11.266  0.00  0.00    +0.000 A 
ATOM      2  C   UNL     1      45.251   3.470  11.958  0.00  0.00    +0.000 A 
ATOM      3  C   UNL     1      46.017   3.652  13.117  0.00  0.00    +0.000 A 
ATOM      4  C   UNL     1      46.308   4.935  13.589  0.00  0.00    +0.000 A 
ATOM      5  C   UNL     1      45.727   6.024  12.933  0.00  0.00    +0.000 A 
ATOM      6  C   UNL     1      44.962   5.849  11.775  0.00  0.00    +0.000 A 
ENDROOT
BRANCH   4   7
ATOM      7  N   UNL     1      47.072   5.196  14.734  0.00  0.00    +0.000 N 
ATOM      8  H   UNL     1      46.761   6.069  15.162  0.00  0.00    +0.000 HD
BRANCH   7   9
ATOM      9  C   UNL     1      47.166   4.135  15.742  0.00  0.00    +0.000 C 
BRANCH   9  10
ATOM     10  C   UNL     1      48.201   4.481  16.786  0.00  0.00    +0.000 A 
ATOM     11  C   UNL     1      48.021   4.083  18.109  0.00  0.00    +0.000 A 
ATOM     12  N   UNL     1      48.887   4.407  19.104  0.00  0.00    +0.000 NA
ATOM     13  C   UNL     1      49.951   5.144  18.720  0.00  0.00    +0.000 A 
ATOM     14  C   UNL     1      50.142   5.542  17.408  0.00  0.00    +0.000 A 
ATOM     15  N   UNL     1      49.278   5.225  16.415  0.00  0.00    +0.000 NA
ENDBRANCH   9  10
ENDBRANCH   7   9
ENDBRANCH   4   7
BRANCH   1  16
ATOM     16  C   UNL     1      43.964   4.393   9.972  0.00  0.00    +0.000 C 
BRANCH  16  17
ATOM     17  C   UNL     1      44.845   3.972   8.789  0.00  0.00    +0.000 C 
BRANCH  17  18
ATOM     18  N   UNL     1      45.771   5.045   8.419  0.00  0.00    +0.000 NA
ATOM     19  H   UNL     1      46.607   4.982   8.999  0.00  0.00    +0.000 HD
ATOM     20  H   UNL     1      45.348   5.950   8.627  0.00  0.00    +0.000 HD
ENDBRANCH  17  18
ENDBRANCH  16  17
ENDBRANCH   1  16
TORSDOF 6
ENDMDL
MODEL 5
REMARK VINA RESULT:    -5.225      2.219      2.930
REMARK INTER + INTRA:          -7.338
REMARK INTER:                  -7.044
REMARK INTRA:                  -0.293
REMARK UNBOUND:                -0.432
REMARK  Name = 
REMARK  6 active torsions:
REMARK  status: ('A' for Active; 'I' for Inactive)
REMARK    1  A    between atoms: N_1  and  C_2
REMARK    2  A    between atoms: C_2  and  C_3
REMARK    3  A    between atoms: C_3  and  C_4
REMARK    4  A    between atoms: C_7  and  N_8
REMARK    5  A    between atoms: N_8  and  C_9
REMARK    6  A    between atoms: C_9  and  C_10
REMARK                            x       y       z     vdW  Elec       q    Type
REMARK                         _______ _______ _______ _____ _____    ______ ____
ROOT
ATOM      1  C   UNL     1      45.258   2.579   8.957  0.00  0.00    +0.000 A 
ATOM      2  C   UNL     1      44.707   2.762  10.231  0.00  0.00    +0.000 A 
ATOM      3  C   UNL     1      44.643   4.037  10.809  0.00  0.00    +0.000 A 
ATOM      4  C   UNL     1      45.162   5.151  10.144  0.00  0.00    +0.000 A 
ATOM      5  C   UNL     1      45.650   4.974   8.846  0.00  0.00    +0.000 A 
ATOM      6  C   UNL     1      45.718   3.704   8.265  0.00  0.00    +0.000 A 
ENDROOT
BRANCH   4   7
ATOM      7  N   UNL     1      45.140   6.454  10.659  0.00  0.00    +0.000 N 
ATOM      8  H   UNL     1      44.296   6.934  10.345  0.00  0.00    +0.000 HD
BRANCH   7   9
ATOM      9  C   UNL     1      45.312   6.612  12.107  0.00  0.00    +0.000 C 
BRANCH   9  10
ATOM     10  C   UNL     1      46.525   7.459  12.411  0.00  0.00    +0.000 A 
ATOM     11  C   UNL     1      47.756   7.149  11.836  0.00  0.00    +0.000 A 
ATOM     12  N   UNL     1      48.895   7.838  12.109  0.00  0.00    +0.000 NA
ATOM     13  C   UNL     1      48.751   8.859  12.981  0.00  0.00    +0.000 A 
ATOM     14  C   UNL     1      47.532   9.179  13.554  0.00  0.00    +0.000 A 
ATOM     15  N   UNL     1      46.398   8.490  13.288  0.00  0.00    +0.000 NA
ENDBRANCH   9  10
ENDBRANCH   7   9
ENDBRANCH   4   7
BRANCH   1  16
ATOM     16  C   UNL     1      45.406   1.201   8.352  0.00  0.00    +0.000 C 
BRANCH  16  17
ATOM     17  C   UNL     1      46.766   0.965   7.682  0.00  0.00    +0.000 C 
BRANCH  17  18
ATOM     18  N   UNL     1      47.090  -0.463   7.647  0.00  0.00    +0.000 NA
ATOM     19  H   UNL     1      48.004  -0.590   7.213  0.00  0.00    +0.000 HD
ATOM     20  H   UNL     1      46.422  -0.951   7.051  0.00  0.00    +0.000 HD
ENDBRANCH  17  18
ENDBRANCH  16  17
ENDBRANCH   1  16
TORSDOF 6
ENDMDL
MODEL 6
REMARK VINA RESULT:    -5.091      2.642      5.696
REMARK INTER + INTRA:          -7.160
REMARK INTER:                  -6.733
REMARK INTRA:                  -0.427
REMARK UNBOUND:                -0.432
REMARK  Name = 
REMARK  6 active torsions:
REMARK  status: ('A' for Active; 'I' for Inactive)
REMARK    1  A    between atoms: N_1  and  C_2
REMARK    2  A    between atoms: C_2  and  C_3
REMARK    3  A    between atoms: C_3  and  C_4
REMARK    4  A    between atoms: C_7  and  N_8
REMARK    5  A    between atoms: N_8  and  C_9
REMARK    6  A    between atoms: C_9  and  C_10
REMARK                            x       y       z     vdW  Elec       q    Type
REMARK                         _______ _______ _______ _____ _____    ______ ____
ROOT
ATOM      1  C   UNL     1      47.821   7.105  12.642  0.00  0.00    +0.000 A 
ATOM      2  C   UNL     1      47.444   5.865  13.170  0.00  0.00    +0.000 A 
ATOM      3  C   UNL     1      46.094   5.493  13.233  0.00  0.00    +0.000 A 
ATOM      4  C   UNL     1      45.090   6.365  12.806  0.00  0.00    +0.000 A 
ATOM      5  C   UNL     1      45.476   7.575  12.220  0.00  0.00    +0.000 A 
ATOM      6  C   UNL     1      46.820   7.953  12.155  0.00  0.00    +0.000 A 
ENDROOT
BRANCH   4   7
ATOM      7  N   UNL     1      43.721   6.067  12.844  0.00  0.00    +0.000 N 
ATOM      8  H   UNL     1      43.241   6.736  13.447  0.00  0.00    +0.000 HD
BRANCH   7   9
ATOM      9  C   UNL     1      43.021   5.937  11.563  0.00  0.00    +0.000 C 
BRANCH   9  10
ATOM     10  C   UNL     1      43.478   4.697  10.830  0.00  0.00    +0.000 A 
ATOM     11  C   UNL     1      43.278   3.438  11.392  0.00  0.00    +0.000 A 
ATOM     12  N   UNL     1      43.711   2.290  10.811  0.00  0.00    +0.000 NA
ATOM     13  C   UNL     1      44.351   2.451   9.632  0.00  0.00    +0.000 A 
ATOM     14  C   UNL     1      44.552   3.696   9.062  0.00  0.00    +0.000 A 
ATOM     15  N   UNL     1      44.126   4.842   9.643  0.00  0.00    +0.000 NA
ENDBRANCH   9  10
ENDBRANCH   7   9
ENDBRANCH   4   7
BRANCH   1  16
ATOM     16  C   UNL     1      49.264   7.555  12.639  0.00  0.00    +0.000 C 
BRANCH  16  17
ATOM     17  C   UNL     1      49.537   8.750  11.717  0.00  0.00    +0.000 C 
BRANCH  17  18
ATOM     18  N   UNL     1      50.914   8.721  11.217  0.00  0.00    +0.000 NA
ATOM     19  H   UNL     1      51.492   8.178  11.857  0.00  0.00    +0.000 HD
ATOM     20  H   UNL     1      51.298   9.665  11.217  0.00  0.00    +0.000 HD
ENDBRANCH  17  18
ENDBRANCH  16  17
ENDBRANCH   1  16
TORSDOF 6
ENDMDL
MODEL 7
REMARK VINA RESULT:    -4.977      4.133      8.139
REMARK INTER + INTRA:          -7.010
REMARK INTER:                  -6.770
REMARK INTRA:                  -0.240
REMARK UNBOUND:                -0.432
REMARK  Name = 
REMARK  6 active torsions:
REMARK  status: ('A' for Active; 'I' for Inactive)
REMARK    1  A    between atoms: N_1  and  C_2
REMARK    2  A    between atoms: C_2  and  C_3
REMARK    3  A    between atoms: C_3  and  C_4
REMARK    4  A    between atoms: C_7  and  N_8
REMARK    5  A    between atoms: N_8  and  C_9
REMARK    6  A    between atoms: C_9  and  C_10
REMARK                            x       y       z     vdW  Elec       q    Type
REMARK                         _______ _______ _______ _____ _____    ______ ____
ROOT
ATOM      1  C   UNL     1      49.781   4.297  17.771  0.00  0.00    +0.000 A 
ATOM      2  C   UNL     1      49.411   5.450  17.067  0.00  0.00    +0.000 A 
ATOM      3  C   UNL     1      48.288   5.449  16.229  0.00  0.00    +0.000 A 
ATOM      4  C   UNL     1      47.532   4.287  16.044  0.00  0.00    +0.000 A 
ATOM      5  C   UNL     1      47.867   3.159  16.799  0.00  0.00    +0.000 A 
ATOM      6  C   UNL     1      48.987   3.153  17.637  0.00  0.00    +0.000 A 
ENDROOT
BRANCH   4   7
ATOM      7  N   UNL     1      46.403   4.207  15.219  0.00  0.00    +0.000 N 
ATOM      8  H   UNL     1      45.566   4.424  15.760  0.00  0.00    +0.000 HD
BRANCH   7   9
ATOM      9  C   UNL     1      46.421   4.976  13.971  0.00  0.00    +0.000 C 
BRANCH   9  10
ATOM     10  C   UNL     1      45.186   4.690  13.150  0.00  0.00    +0.000 A 
ATOM     11  C   UNL     1      45.166   3.608  12.271  0.00  0.00    +0.000 A 
ATOM     12  N   UNL     1      44.108   3.328  11.467  0.00  0.00    +0.000 NA
ATOM     13  C   UNL     1      43.061   4.174  11.581  0.00  0.00    +0.000 A 
ATOM     14  C   UNL     1      43.069   5.249  12.453  0.00  0.00    +0.000 A 
ATOM     15  N   UNL     1      44.125   5.533  13.252  0.00  0.00    +0.000 NA
ENDBRANCH   9  10
ENDBRANCH   7   9
ENDBRANCH   4   7
BRANCH   1  16
ATOM     16  C   UNL     1      51.033   4.258  18.617  0.00  0.00    +0.000 C 
BRANCH  16  17
ATOM     17  C   UNL     1      52.206   3.529  17.950  0.00  0.00    +0.000 C 
BRANCH  17  18
ATOM     18  N   UNL     1      52.380   2.191  18.518  0.00  0.00    +0.000 NA
ATOM     19  H   UNL     1      51.664   1.570  18.142  0.00  0.00    +0.000 HD
ATOM     20  H   UNL     1      52.229   2.223  19.526  0.00  0.00    +0.000 HD
ENDBRANCH  17  18
ENDBRANCH  16  17
ENDBRANCH   1  16
TORSDOF 6
ENDMDL
MODEL 8
REMARK VINA RESULT:    -4.953      3.704      6.155
REMARK INTER + INTRA:          -6.978
REMARK INTER:                  -6.668
REMARK INTRA:                  -0.309
REMARK UNBOUND:                -0.432
REMARK  Name = 
REMARK  6 active torsions:
REMARK  status: ('A' for Active; 'I' for Inactive)
REMARK    1  A    between atoms: N_1  and  C_2
REMARK    2  A    between atoms: C_2  and  C_3
REMARK    3  A    between atoms: C_3  and  C_4
REMARK    4  A    between atoms: C_7  and  N_8
REMARK    5  A    between atoms: N_8  and  C_9
REMARK    6  A    between atoms: C_9  and  C_10
REMARK                            x       y       z     vdW  Elec       q    Type
REMARK                         _______ _______ _______ _____ _____    ______ ____
ROOT
ATOM      1  C   UNL     1      45.594   4.267  12.138  0.00  0.00    +0.000 A 
ATOM      2  C   UNL     1      46.149   3.330  13.018  0.00  0.00    +0.000 A 
ATOM      3  C   UNL     1      46.907   3.744  14.121  0.00  0.00    +0.000 A 
ATOM      4  C   UNL     1      47.162   5.100  14.348  0.00  0.00    +0.000 A 
ATOM      5  C   UNL     1      46.551   6.033  13.504  0.00  0.00    +0.000 A 
ATOM      6  C   UNL     1      45.794   5.626  12.401  0.00  0.00    +0.000 A 
ENDROOT
BRANCH   4   7
ATOM      7  N   UNL     1      47.916   5.589  15.423  0.00  0.00    +0.000 N 
ATOM      8  H   UNL     1      47.744   6.589  15.536  0.00  0.00    +0.000 HD
BRANCH   7   9
ATOM      9  C   UNL     1      47.787   4.898  16.709  0.00  0.00    +0.000 C 
BRANCH   9  10
ATOM     10  C   UNL     1      49.067   4.175  17.057  0.00  0.00    +0.000 A 
ATOM     11  C   UNL     1      50.180   4.892  17.492  0.00  0.00    +0.000 A 
ATOM     12  N   UNL     1      51.375   4.309  17.769  0.00  0.00    +0.000 NA
ATOM     13  C   UNL     1      51.412   2.970  17.598  0.00  0.00    +0.000 A 
ATOM     14  C   UNL     1      50.312   2.247  17.170  0.00  0.00    +0.000 A 
ATOM     15  N   UNL     1      49.122   2.827  16.888  0.00  0.00    +0.000 NA
ENDBRANCH   9  10
ENDBRANCH   7   9
ENDBRANCH   4   7
BRANCH   1  16
ATOM     16  C   UNL     1      44.840   3.836  10.901  0.00  0.00    +0.000 C 
BRANCH  16  17
ATOM     17  C   UNL     1      43.337   3.638  11.131  0.00  0.00    +0.000 C 
BRANCH  17  18
ATOM     18  N   UNL     1      43.058   2.290  11.631  0.00  0.00    +0.000 NA
ATOM     19  H   UNL     1      43.500   2.172  12.542  0.00  0.00    +0.000 HD
ATOM     20  H   UNL     1      43.487   1.600  11.014  0.00  0.00    +0.000 HD
ENDBRANCH  17  18
ENDBRANCH  16  17
ENDBRANCH   1  16
TORSDOF 6
ENDMDL
MODEL 9
REMARK VINA RESULT:    -4.753      3.369      5.562
REMARK INTER + INTRA:          -6.714
REMARK INTER:                  -6.428
REMARK INTRA:                  -0.286
REMARK UNBOUND:                -0.432
REMARK  Name = 
REMARK  6 active torsions:
REMARK  status: ('A' for Active; 'I' for Inactive)
REMARK    1  A    between atoms: N_1  and  C_2
REMARK    2  A    between atoms: C_2  and  C_3
REMARK    3  A    between atoms: C_3  and  C_4
REMARK    4  A    between atoms: C_7  and  N_8
REMARK    5  A    between atoms: N_8  and  C_9
REMARK    6  A    between atoms: C_9  and  C_10
REMARK                            x       y       z     vdW  Elec       q    Type
REMARK                         _______ _______ _______ _____ _____    ______ ____
ROOT
ATOM      1  C   UNL     1      44.949   5.155  11.468  0.00  0.00    +0.000 A 
ATOM      2  C   UNL     1      45.570   4.541  12.562  0.00  0.00    +0.000 A 
ATOM      3  C   UNL     1      46.407   5.271  13.415  0.00  0.00    +0.000 A 
ATOM      4  C   UNL     1      46.675   6.621  13.173  0.00  0.00    +0.000 A 
ATOM      5  C   UNL     1      46.003   7.246  12.118  0.00  0.00    +0.000 A 
ATOM      6  C   UNL     1      45.167   6.522  11.263  0.00  0.00    +0.000 A 
ENDROOT
BRANCH   4   7
ATOM      7  N   UNL     1      47.506   7.414  13.976  0.00  0.00    +0.000 N 
ATOM      8  H   UNL     1      46.991   7.726  14.800  0.00  0.00    +0.000 HD
BRANCH   7   9
ATOM      9  C   UNL     1      48.805   6.856  14.364  0.00  0.00    +0.000 C 
BRANCH   9  10
ATOM     10  C   UNL     1      48.817   6.503  15.833  0.00  0.00    +0.000 A 
ATOM     11  C   UNL     1      48.885   7.510  16.794  0.00  0.00    +0.000 A 
ATOM     12  N   UNL     1      48.952   7.259  18.126  0.00  0.00    +0.000 NA
ATOM     13  C   UNL     1      48.942   5.951  18.463  0.00  0.00    +0.000 A 
ATOM     14  C   UNL     1      48.871   4.942  17.518  0.00  0.00    +0.000 A 
ATOM     15  N   UNL     1      48.810   5.191  16.189  0.00  0.00    +0.000 NA
ENDBRANCH   9  10
ENDBRANCH   7   9
ENDBRANCH   4   7
BRANCH   1  16
ATOM     16  C   UNL     1      44.107   4.366  10.493  0.00  0.00    +0.000 C 
BRANCH  16  17
ATOM     17  C   UNL     1      44.161   2.849  10.717  0.00  0.00    +0.000 C 
BRANCH  17  18
ATOM     18  N   UNL     1      43.040   2.403  11.547  0.00  0.00    +0.000 NA
ATOM     19  H   UNL     1      42.193   2.894  11.260  0.00  0.00    +0.000 HD
ATOM     20  H   UNL     1      43.206   2.666  12.518  0.00  0.00    +0.000 HD
ENDBRANCH  17  18
ENDBRANCH  16  17
ENDBRANCH   1  16
TORSDOF 6
ENDMDL
