MODEL 1
REMARK VINA RESULT:    -8.590      0.000      0.000
REMARK INTER + INTRA:         -12.108
REMARK INTER:                 -11.101
REMARK INTRA:                  -1.007
REMARK UNBOUND:                -1.007
REMARK  Name = 
REMARK  5 active torsions:
REMARK  status: ('A' for Active; 'I' for Inactive)
REMARK    1  A    between atoms: C_2  and  C_4
REMARK    2  A    between atoms: C_7  and  N_8
REMARK    3  A    between atoms: N_8  and  C_9
REMARK    4  A    between atoms: C_9  and  C_10
REMARK    5  A    between atoms: C_14  and  C_15
REMARK                            x       y       z     vdW  Elec       q    Type
REMARK                         _______ _______ _______ _____ _____    ______ ____
ROOT
ATOM      1  N   UNL     1      43.775   4.942   9.869  0.00  0.00    +0.000 N 
ATOM      2  H   UNL     1      42.907   5.169   9.390  0.00  0.00    +0.000 HD
ENDROOT
BRANCH   1   6
ATOM      3  C   UNL     1      46.338   2.246   7.873  0.00  0.00    +0.000 A 
ATOM      4  C   UNL     1      45.378   1.756   8.758  0.00  0.00    +0.000 A 
ATOM      5  C   UNL     1      44.512   2.640   9.412  0.00  0.00    +0.000 A 
ATOM      6  C   UNL     1      44.562   4.020   9.180  0.00  0.00    +0.000 A 
ATOM      7  C   UNL     1      45.551   4.499   8.306  0.00  0.00    +0.000 A 
ATOM      8  C   UNL     1      46.435   3.624   7.660  0.00  0.00    +0.000 A 
BRANCH   3  10
ATOM      9  N   UNL     1      48.349   1.917   6.541  0.00  0.00    +0.000 N 
ATOM     10  C   UNL     1      47.284   1.338   7.182  0.00  0.00    +0.000 C 
ATOM     11  O   UNL     1      47.148   0.121   7.203  0.00  0.00    +0.000 OA
ATOM     12  H   UNL     1      49.042   1.286   6.160  0.00  0.00    +0.000 HD
ATOM     13  H   UNL     1      48.629   2.871   6.717  0.00  0.00    +0.000 HD
ENDBRANCH   3  10
ENDBRANCH   1   6
BRANCH   1  14
ATOM     14  C   UNL     1      43.647   4.850  11.316  0.00  0.00    +0.000 C 
BRANCH  14  15
ATOM     15  C   UNL     1      44.981   5.061  11.991  0.00  0.00    +0.000 A 
ATOM     16  C   UNL     1      45.414   4.195  13.003  0.00  0.00    +0.000 A 
ATOM     17  C   UNL     1      46.618   4.428  13.661  0.00  0.00    +0.000 A 
ATOM     18  C   UNL     1      47.410   5.519  13.305  0.00  0.00    +0.000 A 
ATOM     19  C   UNL     1      47.015   6.388  12.278  0.00  0.00    +0.000 A 
ATOM     20  C   UNL     1      45.786   6.158  11.642  0.00  0.00    +0.000 A 
BRANCH  19  21
ATOM     21  C   UNL     1      47.920   7.509  11.796  0.00  0.00    +0.000 C 
ATOM     22  C   UNL     1      49.355   7.282  12.296  0.00  0.00    +0.000 C 
ATOM     23  C   UNL     1      50.260   8.441  11.911  0.00  0.00    +0.000 C 
ATOM     24  O   UNL     1      49.721   9.677  12.376  0.00  0.00    +0.000 OA
ATOM     25  C   UNL     1      48.452   9.964  11.792  0.00  0.00    +0.000 C 
ATOM     26  C   UNL     1      47.424   8.910  12.184  0.00  0.00    +0.000 C 
ENDBRANCH  19  21
ENDBRANCH  14  15
ENDBRANCH   1  14
TORSDOF 5
ENDMDL
MODEL 2
REMARK VINA RESULT:    -8.557      2.098      3.403
REMARK INTER + INTRA:         -12.065
REMARK INTER:                 -11.267
REMARK INTRA:                  -0.798
REMARK UNBOUND:                -1.007
REMARK  Name = 
REMARK  5 active torsions:
REMARK  status: ('A' for Active; 'I' for Inactive)
REMARK    1  A    between atoms: C_2  and  C_4
REMARK    2  A    between atoms: C_7  and  N_8
REMARK    3  A    between atoms: N_8  and  C_9
REMARK    4  A    between atoms: C_9  and  C_10
REMARK    5  A    between atoms: C_14  and  C_15
REMARK                            x       y       z     vdW  Elec       q    Type
REMARK                         _______ _______ _______ _____ _____    ______ ____
ROOT
ATOM      1  N   UNL     1      43.801   4.788   9.999  0.00  0.00    +0.000 N 
ATOM      2  H   UNL     1      42.888   4.959   9.585  0.00  0.00    +0.000 HD
ENDROOT
BRANCH   1   6
ATOM      3  C   UNL     1      46.395   2.287   7.799  0.00  0.00    +0.000 A 
ATOM      4  C   UNL     1      45.512   1.724   8.721  0.00  0.00    +0.000 A 
ATOM      5  C   UNL     1      44.636   2.543   9.443  0.00  0.00    +0.000 A 
ATOM      6  C   UNL     1      44.599   3.928   9.245  0.00  0.00    +0.000 A 
ATOM      7  C   UNL     1      45.511   4.482   8.332  0.00  0.00    +0.000 A 
ATOM      8  C   UNL     1      46.405   3.672   7.618  0.00  0.00    +0.000 A 
BRANCH   3  10
ATOM      9  N   UNL     1      48.460   2.073   6.529  0.00  0.00    +0.000 N 
ATOM     10  C   UNL     1      47.350   1.449   7.035  0.00  0.00    +0.000 C 
ATOM     11  O   UNL     1      47.180   0.246   6.885  0.00  0.00    +0.000 OA
ATOM     12  H   UNL     1      49.154   1.477   6.097  0.00  0.00    +0.000 HD
ATOM     13  H   UNL     1      48.756   2.986   6.844  0.00  0.00    +0.000 HD
ENDBRANCH   3  10
ENDBRANCH   1   6
BRANCH   1  14
ATOM     14  C   UNL     1      43.784   4.678  11.450  0.00  0.00    +0.000 C 
BRANCH  14  15
ATOM     15  C   UNL     1      45.036   5.266  12.052  0.00  0.00    +0.000 A 
ATOM     16  C   UNL     1      45.742   6.278  11.387  0.00  0.00    +0.000 A 
ATOM     17  C   UNL     1      46.927   6.776  11.919  0.00  0.00    +0.000 A 
ATOM     18  C   UNL     1      47.413   6.281  13.129  0.00  0.00    +0.000 A 
ATOM     19  C   UNL     1      46.716   5.287  13.829  0.00  0.00    +0.000 A 
ATOM     20  C   UNL     1      45.537   4.774  13.269  0.00  0.00    +0.000 A 
BRANCH  19  21
ATOM     21  C   UNL     1      47.166   4.823  15.204  0.00  0.00    +0.000 C 
ATOM     22  C   UNL     1      48.315   5.708  15.712  0.00  0.00    +0.000 C 
ATOM     23  C   UNL     1      48.851   5.204  17.041  0.00  0.00    +0.000 C 
ATOM     24  O   UNL     1      49.235   3.834  16.943  0.00  0.00    +0.000 OA
ATOM     25  C   UNL     1      48.131   2.988  16.622  0.00  0.00    +0.000 C 
ATOM     26  C   UNL     1      47.560   3.339  15.254  0.00  0.00    +0.000 C 
ENDBRANCH  19  21
ENDBRANCH  14  15
ENDBRANCH   1  14
TORSDOF 5
ENDMDL
MODEL 3
REMARK VINA RESULT:    -7.258      3.296      7.128
REMARK INTER + INTRA:         -10.387
REMARK INTER:                  -9.607
REMARK INTRA:                  -0.779
REMARK UNBOUND:                -1.007
REMARK  Name = 
REMARK  5 active torsions:
REMARK  status: ('A' for Active; 'I' for Inactive)
REMARK    1  A    between atoms: C_2  and  C_4
REMARK    2  A    between atoms: C_7  and  N_8
REMARK    3  A    between atoms: N_8  and  C_9
REMARK    4  A    between atoms: C_9  and  C_10
REMARK    5  A    between atoms: C_14  and  C_15
REMARK                            x       y       z     vdW  Elec       q    Type
REMARK                         _______ _______ _______ _____ _____    ______ ____
ROOT
ATOM      1  N   UNL     1      47.689   6.667  12.390  0.00  0.00    +0.000 N 
ATOM      2  H   UNL     1      48.144   6.113  11.669  0.00  0.00    +0.000 HD
ENDROOT
BRANCH   1   6
ATOM      3  C   UNL     1      47.577   4.536  16.033  0.00  0.00    +0.000 A 
ATOM      4  C   UNL     1      48.254   5.753  15.968  0.00  0.00    +0.000 A 
ATOM      5  C   UNL     1      48.283   6.476  14.769  0.00  0.00    +0.000 A 
ATOM      6  C   UNL     1      47.619   6.021  13.624  0.00  0.00    +0.000 A 
ATOM      7  C   UNL     1      46.963   4.782  13.699  0.00  0.00    +0.000 A 
ATOM      8  C   UNL     1      46.944   4.042  14.889  0.00  0.00    +0.000 A 
BRANCH   3  10
ATOM      9  N   UNL     1      48.539   3.970  18.195  0.00  0.00    +0.000 N 
ATOM     10  C   UNL     1      47.546   3.736  17.280  0.00  0.00    +0.000 C 
ATOM     11  O   UNL     1      46.659   2.923  17.507  0.00  0.00    +0.000 OA
ATOM     12  H   UNL     1      48.454   3.494  19.084  0.00  0.00    +0.000 HD
ATOM     13  H   UNL     1      49.123   4.793  18.158  0.00  0.00    +0.000 HD
ENDBRANCH   3  10
ENDBRANCH   1   6
BRANCH   1  14
ATOM     14  C   UNL     1      46.556   7.446  11.913  0.00  0.00    +0.000 C 
BRANCH  14  15
ATOM     15  C   UNL     1      45.455   6.546  11.407  0.00  0.00    +0.000 A 
ATOM     16  C   UNL     1      44.157   6.644  11.926  0.00  0.00    +0.000 A 
ATOM     17  C   UNL     1      43.160   5.773  11.497  0.00  0.00    +0.000 A 
ATOM     18  C   UNL     1      43.444   4.804  10.536  0.00  0.00    +0.000 A 
ATOM     19  C   UNL     1      44.727   4.698   9.981  0.00  0.00    +0.000 A 
ATOM     20  C   UNL     1      45.730   5.564  10.441  0.00  0.00    +0.000 A 
BRANCH  19  21
ATOM     21  C   UNL     1      45.024   3.730   8.847  0.00  0.00    +0.000 C 
ATOM     22  C   UNL     1      45.328   2.333   9.411  0.00  0.00    +0.000 C 
ATOM     23  C   UNL     1      45.726   1.369   8.306  0.00  0.00    +0.000 C 
ATOM     24  O   UNL     1      46.818   1.891   7.552  0.00  0.00    +0.000 OA
ATOM     25  C   UNL     1      46.486   3.116   6.900  0.00  0.00    +0.000 C 
ATOM     26  C   UNL     1      46.154   4.199   7.919  0.00  0.00    +0.000 C 
ENDBRANCH  19  21
ENDBRANCH  14  15
ENDBRANCH   1  14
TORSDOF 5
ENDMDL
MODEL 4
REMARK VINA RESULT:    -7.243      2.392      6.862
REMARK INTER + INTRA:         -10.367
REMARK INTER:                  -9.510
REMARK INTRA:                  -0.857
REMARK UNBOUND:                -1.007
REMARK  Name = 
REMARK  5 active torsions:
REMARK  status: ('A' for Active; 'I' for Inactive)
REMARK    1  A    between atoms: C_2  and  C_4
REMARK    2  A    between atoms: C_7  and  N_8
REMARK    3  A    between atoms: N_8  and  C_9
REMARK    4  A    between atoms: C_9  and  C_10
REMARK    5  A    between atoms: C_14  and  C_15
REMARK                            x       y       z     vdW  Elec       q    Type
REMARK                         _______ _______ _______ _____ _____    ______ ____
ROOT
ATOM      1  N   UNL     1      44.584   7.263  10.910  0.00  0.00    +0.000 N 
ATOM      2  H   UNL     1      44.941   7.150   9.964  0.00  0.00    +0.000 HD
ENDROOT
BRANCH   1   6
ATOM      3  C   UNL     1      47.772   7.565  13.662  0.00  0.00    +0.000 A 
ATOM      4  C   UNL     1      46.724   8.483  13.718  0.00  0.00    +0.000 A 
ATOM      5  C   UNL     1      45.654   8.382  12.822  0.00  0.00    +0.000 A 
ATOM      6  C   UNL     1      45.589   7.354  11.873  0.00  0.00    +0.000 A 
ATOM      7  C   UNL     1      46.663   6.453  11.813  0.00  0.00    +0.000 A 
ATOM      8  C   UNL     1      47.748   6.557  12.694  0.00  0.00    +0.000 A 
BRANCH   3  10
ATOM      9  N   UNL     1      48.655   7.737  15.923  0.00  0.00    +0.000 N 
ATOM     10  C   UNL     1      48.929   7.658  14.583  0.00  0.00    +0.000 C 
ATOM     11  O   UNL     1      50.084   7.634  14.176  0.00  0.00    +0.000 OA
ATOM     12  H   UNL     1      49.450   7.699  16.549  0.00  0.00    +0.000 HD
ATOM     13  H   UNL     1      47.749   7.505  16.302  0.00  0.00    +0.000 HD
ENDBRANCH   3  10
ENDBRANCH   1   6
BRANCH   1  14
ATOM     14  C   UNL     1      43.381   6.492  11.186  0.00  0.00    +0.000 C 
BRANCH  14  15
ATOM     15  C   UNL     1      43.602   5.026  10.908  0.00  0.00    +0.000 A 
ATOM     16  C   UNL     1      43.113   4.050  11.787  0.00  0.00    +0.000 A 
ATOM     17  C   UNL     1      43.369   2.702  11.555  0.00  0.00    +0.000 A 
ATOM     18  C   UNL     1      44.104   2.312  10.436  0.00  0.00    +0.000 A 
ATOM     19  C   UNL     1      44.584   3.264   9.526  0.00  0.00    +0.000 A 
ATOM     20  C   UNL     1      44.343   4.621   9.785  0.00  0.00    +0.000 A 
BRANCH  19  21
ATOM     21  C   UNL     1      45.281   2.851   8.240  0.00  0.00    +0.000 C 
ATOM     22  C   UNL     1      46.053   1.539   8.454  0.00  0.00    +0.000 C 
ATOM     23  C   UNL     1      46.840   1.156   7.213  0.00  0.00    +0.000 C 
ATOM     24  O   UNL     1      47.699   2.222   6.812  0.00  0.00    +0.000 OA
ATOM     25  C   UNL     1      46.969   3.398   6.462  0.00  0.00    +0.000 C 
ATOM     26  C   UNL     1      46.203   3.936   7.664  0.00  0.00    +0.000 C 
ENDBRANCH  19  21
ENDBRANCH  14  15
ENDBRANCH   1  14
TORSDOF 5
ENDMDL
MODEL 5
REMARK VINA RESULT:    -7.025      1.346      2.168
REMARK INTER + INTRA:         -10.085
REMARK INTER:                  -9.184
REMARK INTRA:                  -0.902
REMARK UNBOUND:                -1.007
REMARK  Name = 
REMARK  5 active torsions:
REMARK  status: ('A' for Active; 'I' for Inactive)
REMARK    1  A    between atoms: C_2  and  C_4
REMARK    2  A    between atoms: C_7  and  N_8
REMARK    3  A    between atoms: N_8  and  C_9
REMARK    4  A    between atoms: C_9  and  C_10
REMARK    5  A    between atoms: C_14  and  C_15
REMARK                            x       y       z     vdW  Elec       q    Type
REMARK                         _______ _______ _______ _____ _____    ______ ____
ROOT
ATOM      1  N   UNL     1      44.060   4.175  10.923  0.00  0.00    +0.000 N 
ATOM      2  H   UNL     1      43.173   3.679  10.934  0.00  0.00    +0.000 HD
ENDROOT
BRANCH   1   6
ATOM      3  C   UNL     1      46.384   2.974   7.610  0.00  0.00    +0.000 A 
ATOM      4  C   UNL     1      46.206   4.333   7.870  0.00  0.00    +0.000 A 
ATOM      5  C   UNL     1      45.452   4.741   8.976  0.00  0.00    +0.000 A 
ATOM      6  C   UNL     1      44.885   3.814   9.858  0.00  0.00    +0.000 A 
ATOM      7  C   UNL     1      45.052   2.451   9.568  0.00  0.00    +0.000 A 
ATOM      8  C   UNL     1      45.791   2.031   8.453  0.00  0.00    +0.000 A 
BRANCH   3  10
ATOM      9  N   UNL     1      48.415   2.014   6.673  0.00  0.00    +0.000 N 
ATOM     10  C   UNL     1      47.159   2.509   6.435  0.00  0.00    +0.000 C 
ATOM     11  O   UNL     1      46.695   2.531   5.302  0.00  0.00    +0.000 OA
ATOM     12  H   UNL     1      48.896   1.607   5.881  0.00  0.00    +0.000 HD
ATOM     13  H   UNL     1      48.723   1.747   7.597  0.00  0.00    +0.000 HD
ENDBRANCH   3  10
ENDBRANCH   1   6
BRANCH   1  14
ATOM     14  C   UNL     1      44.633   4.394  12.244  0.00  0.00    +0.000 C 
BRANCH  14  15
ATOM     15  C   UNL     1      45.276   5.756  12.335  0.00  0.00    +0.000 A 
ATOM     16  C   UNL     1      44.494   6.919  12.306  0.00  0.00    +0.000 A 
ATOM     17  C   UNL     1      45.097   8.173  12.332  0.00  0.00    +0.000 A 
ATOM     18  C   UNL     1      46.485   8.280  12.404  0.00  0.00    +0.000 A 
ATOM     19  C   UNL     1      47.292   7.135  12.461  0.00  0.00    +0.000 A 
ATOM     20  C   UNL     1      46.674   5.877  12.405  0.00  0.00    +0.000 A 
BRANCH  19  21
ATOM     21  C   UNL     1      48.795   7.232  12.661  0.00  0.00    +0.000 C 
ATOM     22  C   UNL     1      49.107   7.924  13.998  0.00  0.00    +0.000 C 
ATOM     23  C   UNL     1      50.602   8.124  14.177  0.00  0.00    +0.000 C 
ATOM     24  O   UNL     1      51.152   8.832  13.067  0.00  0.00    +0.000 OA
ATOM     25  C   UNL     1      50.999   8.116  11.843  0.00  0.00    +0.000 C 
ATOM     26  C   UNL     1      49.525   7.931  11.504  0.00  0.00    +0.000 C 
ENDBRANCH  19  21
ENDBRANCH  14  15
ENDBRANCH   1  14
TORSDOF 5
ENDMDL
MODEL 6
REMARK VINA RESULT:    -6.887      1.151      1.160
REMARK INTER + INTRA:          -9.907
REMARK INTER:                  -9.159
REMARK INTRA:                  -0.748
REMARK UNBOUND:                -1.007
REMARK  Name = 
REMARK  5 active torsions:
REMARK  status: ('A' for Active; 'I' for Inactive)
REMARK    1  A    between atoms: C_2  and  C_4
REMARK    2  A    between atoms: C_7  and  N_8
REMARK    3  A    between atoms: N_8  and  C_9
REMARK    4  A    between atoms: C_9  and  C_10
REMARK    5  A    between atoms: C_14  and  C_15
REMARK                            x       y       z     vdW  Elec       q    Type
REMARK                         _______ _______ _______ _____ _____    ______ ____
ROOT
ATOM      1  N   UNL     1      43.528   4.674  10.784  0.00  0.00    +0.000 N 
ATOM      2  H   UNL     1      43.205   4.114  11.569  0.00  0.00    +0.000 HD
ENDROOT
BRANCH   1   6
ATOM      3  C   UNL     1      45.988   2.579   8.067  0.00  0.00    +0.000 A 
ATOM      4  C   UNL     1      45.202   1.868   8.973  0.00  0.00    +0.000 A 
ATOM      5  C   UNL     1      44.370   2.553   9.867  0.00  0.00    +0.000 A 
ATOM      6  C   UNL     1      44.281   3.950   9.859  0.00  0.00    +0.000 A 
ATOM      7  C   UNL     1      45.097   4.651   8.959  0.00  0.00    +0.000 A 
ATOM      8  C   UNL     1      45.947   3.976   8.072  0.00  0.00    +0.000 A 
BRANCH   3  10
ATOM      9  N   UNL     1      47.118   0.550   7.339  0.00  0.00    +0.000 N 
ATOM     10  C   UNL     1      46.895   1.885   7.122  0.00  0.00    +0.000 C 
ATOM     11  O   UNL     1      47.403   2.461   6.169  0.00  0.00    +0.000 OA
ATOM     12  H   UNL     1      47.656   0.063   6.634  0.00  0.00    +0.000 HD
ATOM     13  H   UNL     1      46.529  -0.003   7.945  0.00  0.00    +0.000 HD
ENDBRANCH   3  10
ENDBRANCH   1   6
BRANCH   1  14
ATOM     14  C   UNL     1      43.926   6.027  11.144  0.00  0.00    +0.000 C 
BRANCH  14  15
ATOM     15  C   UNL     1      45.176   6.016  11.990  0.00  0.00    +0.000 A 
ATOM     16  C   UNL     1      45.385   5.010  12.943  0.00  0.00    +0.000 A 
ATOM     17  C   UNL     1      46.511   5.037  13.759  0.00  0.00    +0.000 A 
ATOM     18  C   UNL     1      47.450   6.060  13.623  0.00  0.00    +0.000 A 
ATOM     19  C   UNL     1      47.280   7.065  12.661  0.00  0.00    +0.000 A 
ATOM     20  C   UNL     1      46.127   7.042  11.863  0.00  0.00    +0.000 A 
BRANCH  19  21
ATOM     21  C   UNL     1      48.349   8.117  12.417  0.00  0.00    +0.000 C 
ATOM     22  C   UNL     1      49.664   7.446  11.986  0.00  0.00    +0.000 C 
ATOM     23  C   UNL     1      50.778   8.467  11.832  0.00  0.00    +0.000 C 
ATOM     24  O   UNL     1      50.933   9.227  13.029  0.00  0.00    +0.000 OA
ATOM     25  C   UNL     1      49.760   9.976  13.347  0.00  0.00    +0.000 C 
ATOM     26  C   UNL     1      48.582   9.047  13.616  0.00  0.00    +0.000 C 
ENDBRANCH  19  21
ENDBRANCH  14  15
ENDBRANCH   1  14
TORSDOF 5
ENDMDL
MODEL 7
REMARK VINA RESULT:    -6.773      2.249      6.615
REMARK INTER + INTRA:          -9.760
REMARK INTER:                  -8.854
REMARK INTRA:                  -0.906
REMARK UNBOUND:                -1.007
REMARK  Name = 
REMARK  5 active torsions:
REMARK  status: ('A' for Active; 'I' for Inactive)
REMARK    1  A    between atoms: C_2  and  C_4
REMARK    2  A    between atoms: C_7  and  N_8
REMARK    3  A    between atoms: N_8  and  C_9
REMARK    4  A    between atoms: C_9  and  C_10
REMARK    5  A    between atoms: C_14  and  C_15
REMARK                            x       y       z     vdW  Elec       q    Type
REMARK                         _______ _______ _______ _____ _____    ______ ____
ROOT
ATOM      1  N   UNL     1      45.551   6.960  13.028  0.00  0.00    +0.000 N 
ATOM      2  H   UNL     1      45.272   7.400  13.901  0.00  0.00    +0.000 HD
ENDROOT
BRANCH   1   6
ATOM      3  C   UNL     1      49.485   8.093  11.994  0.00  0.00    +0.000 A 
ATOM      4  C   UNL     1      49.252   6.828  12.535  0.00  0.00    +0.000 A 
ATOM      5  C   UNL     1      47.949   6.437  12.866  0.00  0.00    +0.000 A 
ATOM      6  C   UNL     1      46.853   7.278  12.640  0.00  0.00    +0.000 A 
ATOM      7  C   UNL     1      47.107   8.556  12.118  0.00  0.00    +0.000 A 
ATOM      8  C   UNL     1      48.410   8.965  11.802  0.00  0.00    +0.000 A 
BRANCH   3  10
ATOM      9  N   UNL     1      51.733   7.593  11.205  0.00  0.00    +0.000 N 
ATOM     10  C   UNL     1      50.855   8.545  11.655  0.00  0.00    +0.000 C 
ATOM     11  O   UNL     1      51.188   9.721  11.737  0.00  0.00    +0.000 OA
ATOM     12  H   UNL     1      52.631   7.927  10.881  0.00  0.00    +0.000 HD
ATOM     13  H   UNL     1      51.426   6.686  10.887  0.00  0.00    +0.000 HD
ENDBRANCH   3  10
ENDBRANCH   1   6
BRANCH   1  14
ATOM     14  C   UNL     1      44.492   6.894  12.032  0.00  0.00    +0.000 C 
BRANCH  14  15
ATOM     15  C   UNL     1      44.255   5.471  11.589  0.00  0.00    +0.000 A 
ATOM     16  C   UNL     1      43.495   4.595  12.376  0.00  0.00    +0.000 A 
ATOM     17  C   UNL     1      43.328   3.269  11.991  0.00  0.00    +0.000 A 
ATOM     18  C   UNL     1      43.904   2.805  10.808  0.00  0.00    +0.000 A 
ATOM     19  C   UNL     1      44.648   3.665   9.988  0.00  0.00    +0.000 A 
ATOM     20  C   UNL     1      44.832   4.993  10.401  0.00  0.00    +0.000 A 
BRANCH  19  21
ATOM     21  C   UNL     1      45.180   3.211   8.639  0.00  0.00    +0.000 C 
ATOM     22  C   UNL     1      45.852   1.835   8.771  0.00  0.00    +0.000 C 
ATOM     23  C   UNL     1      46.481   1.402   7.458  0.00  0.00    +0.000 C 
ATOM     24  O   UNL     1      47.386   2.396   6.981  0.00  0.00    +0.000 OA
ATOM     25  C   UNL     1      46.732   3.634   6.709  0.00  0.00    +0.000 C 
ATOM     26  C   UNL     1      46.133   4.220   7.982  0.00  0.00    +0.000 C 
ENDBRANCH  19  21
ENDBRANCH  14  15
ENDBRANCH   1  14
TORSDOF 5
ENDMDL
MODEL 8
REMARK VINA RESULT:    -6.466      5.162      8.009
REMARK INTER + INTRA:          -9.363
REMARK INTER:                  -8.555
REMARK INTRA:                  -0.808
REMARK UNBOUND:                -1.007
REMARK  Name = 
REMARK  5 active torsions:
REMARK  status: ('A' for Active; 'I' for Inactive)
REMARK    1  A    between atoms: C_2  and  C_4
REMARK    2  A    between atoms: C_7  and  N_8
REMARK    3  A    between atoms: N_8  and  C_9
REMARK    4  A    between atoms: C_9  and  C_10
REMARK    5  A    between atoms: C_14  and  C_15
REMARK                            x       y       z     vdW  Elec       q    Type
REMARK                         _______ _______ _______ _____ _____    ______ ____
ROOT
ATOM      1  N   UNL     1      48.236   5.505  16.605  0.00  0.00    +0.000 N 
ATOM      2  H   UNL     1      47.513   5.637  17.308  0.00  0.00    +0.000 HD
ENDROOT
BRANCH   1   6
ATOM      3  C   UNL     1      51.105   2.536  17.485  0.00  0.00    +0.000 A 
ATOM      4  C   UNL     1      51.462   3.882  17.562  0.00  0.00    +0.000 A 
ATOM      5  C   UNL     1      50.513   4.875  17.288  0.00  0.00    +0.000 A 
ATOM      6  C   UNL     1      49.190   4.553  16.963  0.00  0.00    +0.000 A 
ATOM      7  C   UNL     1      48.854   3.194  16.866  0.00  0.00    +0.000 A 
ATOM      8  C   UNL     1      49.801   2.192  17.119  0.00  0.00    +0.000 A 
BRANCH   3  10
ATOM      9  N   UNL     1      51.597   0.233  18.099  0.00  0.00    +0.000 N 
ATOM     10  C   UNL     1      52.092   1.461  17.747  0.00  0.00    +0.000 C 
ATOM     11  O   UNL     1      53.296   1.644  17.626  0.00  0.00    +0.000 OA
ATOM     12  H   UNL     1      52.270  -0.519  18.177  0.00  0.00    +0.000 HD
ATOM     13  H   UNL     1      50.628  -0.017  17.960  0.00  0.00    +0.000 HD
ENDBRANCH   3  10
ENDBRANCH   1   6
BRANCH   1  14
ATOM     14  C   UNL     1      48.649   6.734  15.942  0.00  0.00    +0.000 C 
BRANCH  14  15
ATOM     15  C   UNL     1      48.277   6.710  14.480  0.00  0.00    +0.000 A 
ATOM     16  C   UNL     1      48.962   7.511  13.556  0.00  0.00    +0.000 A 
ATOM     17  C   UNL     1      48.578   7.528  12.219  0.00  0.00    +0.000 A 
ATOM     18  C   UNL     1      47.515   6.734  11.786  0.00  0.00    +0.000 A 
ATOM     19  C   UNL     1      46.828   5.905  12.683  0.00  0.00    +0.000 A 
ATOM     20  C   UNL     1      47.207   5.917  14.033  0.00  0.00    +0.000 A 
BRANCH  19  21
ATOM     21  C   UNL     1      45.750   4.945  12.208  0.00  0.00    +0.000 C 
ATOM     22  C   UNL     1      45.285   5.329  10.794  0.00  0.00    +0.000 C 
ATOM     23  C   UNL     1      44.137   4.447  10.334  0.00  0.00    +0.000 C 
ATOM     24  O   UNL     1      43.066   4.482  11.277  0.00  0.00    +0.000 OA
ATOM     25  C   UNL     1      43.457   3.978  12.554  0.00  0.00    +0.000 C 
ATOM     26  C   UNL     1      44.552   4.844  13.164  0.00  0.00    +0.000 C 
ENDBRANCH  19  21
ENDBRANCH  14  15
ENDBRANCH   1  14
TORSDOF 5
ENDMDL
MODEL 9
REMARK VINA RESULT:    -6.199      3.497      5.482
REMARK INTER + INTRA:          -9.018
REMARK INTER:                  -8.128
REMARK INTRA:                  -0.890
REMARK UNBOUND:                -1.007
REMARK  Name = 
REMARK  5 active torsions:
REMARK  status: ('A' for Active; 'I' for Inactive)
REMARK    1  A    between atoms: C_2  and  C_4
REMARK    2  A    between atoms: C_7  and  N_8
REMARK    3  A    between atoms: N_8  and  C_9
REMARK    4  A    between atoms: C_9  and  C_10
REMARK    5  A    between atoms: C_14  and  C_15
REMARK                            x       y       z     vdW  Elec       q    Type
REMARK                         _______ _______ _______ _____ _____    ______ ____
ROOT
ATOM      1  N   UNL     1      46.230   7.710  12.661  0.00  0.00    +0.000 N 
ATOM      2  H   UNL     1      46.012   7.999  13.612  0.00  0.00    +0.000 HD
ENDROOT
BRANCH   1   6
ATOM      3  C   UNL     1      44.432   4.094  11.430  0.00  0.00    +0.000 A 
ATOM      4  C   UNL     1      44.253   4.542  12.739  0.00  0.00    +0.000 A 
ATOM      5  C   UNL     1      44.830   5.748  13.152  0.00  0.00    +0.000 A 
ATOM      6  C   UNL     1      45.570   6.545  12.271  0.00  0.00    +0.000 A 
ATOM      7  C   UNL     1      45.762   6.068  10.964  0.00  0.00    +0.000 A 
ATOM      8  C   UNL     1      45.203   4.853  10.546  0.00  0.00    +0.000 A 
BRANCH   3  10
ATOM      9  N   UNL     1      44.401   2.246   9.846  0.00  0.00    +0.000 N 
ATOM     10  C   UNL     1      43.851   2.811  10.967  0.00  0.00    +0.000 C 
ATOM     11  O   UNL     1      42.942   2.256  11.571  0.00  0.00    +0.000 OA
ATOM     12  H   UNL     1      44.068   1.324   9.597  0.00  0.00    +0.000 HD
ATOM     13  H   UNL     1      45.297   2.536   9.482  0.00  0.00    +0.000 HD
ENDBRANCH   3  10
ENDBRANCH   1   6
BRANCH   1  14
ATOM     14  C   UNL     1      47.619   7.921  12.281  0.00  0.00    +0.000 C 
BRANCH  14  15
ATOM     15  C   UNL     1      48.544   7.649  13.442  0.00  0.00    +0.000 A 
ATOM     16  C   UNL     1      49.802   8.264  13.512  0.00  0.00    +0.000 A 
ATOM     17  C   UNL     1      50.673   7.965  14.555  0.00  0.00    +0.000 A 
ATOM     18  C   UNL     1      50.294   7.061  15.547  0.00  0.00    +0.000 A 
ATOM     19  C   UNL     1      49.033   6.450  15.516  0.00  0.00    +0.000 A 
ATOM     20  C   UNL     1      48.174   6.738  14.445  0.00  0.00    +0.000 A 
BRANCH  19  21
ATOM     21  C   UNL     1      48.556   5.557  16.649  0.00  0.00    +0.000 C 
ATOM     22  C   UNL     1      49.760   4.923  17.365  0.00  0.00    +0.000 C 
ATOM     23  C   UNL     1      49.309   3.948  18.439  0.00  0.00    +0.000 C 
ATOM     24  O   UNL     1      48.434   2.964  17.891  0.00  0.00    +0.000 OA
ATOM     25  C   UNL     1      47.240   3.539  17.362  0.00  0.00    +0.000 C 
ATOM     26  C   UNL     1      47.559   4.477  16.204  0.00  0.00    +0.000 C 
ENDBRANCH  19  21
ENDBRANCH  14  15
ENDBRANCH   1  14
TORSDOF 5
ENDMDL
