MODEL 1
REMARK VINA RESULT:    -8.583      0.000      0.000
REMARK INTER + INTRA:         -12.023
REMARK INTER:                 -11.092
REMARK INTRA:                  -0.931
REMARK UNBOUND:                -0.931
REMARK  Name = 
REMARK  5 active torsions:
REMARK  status: ('A' for Active; 'I' for Inactive)
REMARK    1  A    between atoms: C_2  and  C_4
REMARK    2  A    between atoms: N_8  and  C_9
REMARK    3  A    between atoms: C_9  and  C_10
REMARK    4  A    between atoms: C_10  and  C_11
REMARK    5  A    between atoms: C_15  and  N_16
REMARK                            x       y       z     vdW  Elec       q    Type
REMARK                         _______ _______ _______ _____ _____    ______ ____
ROOT
ATOM      1  C   UNL     1      43.215   4.400  11.153  0.00  0.00    +0.000 C 
ENDROOT
BRANCH   1   6
ATOM      2  C   UNL     1      46.485   2.532   7.734  0.00  0.00    +0.000 A 
ATOM      3  C   UNL     1      45.649   1.874   8.626  0.00  0.00    +0.000 A 
ATOM      4  C   UNL     1      44.726   2.615   9.363  0.00  0.00    +0.000 A 
ATOM      5  C   UNL     1      44.657   3.999   9.205  0.00  0.00    +0.000 A 
ATOM      6  N   UNL     1      43.682   4.771   9.824  0.00  0.00    +0.000 N 
ATOM      7  N   UNL     1      45.491   4.650   8.372  0.00  0.00    +0.000 NA
ATOM      8  C   UNL     1      46.391   3.913   7.665  0.00  0.00    +0.000 A 
ATOM      9  H   UNL     1      43.913   5.751   9.672  0.00  0.00    +0.000 HD
BRANCH   2  11
ATOM     10  N   UNL     1      48.568   2.497   6.490  0.00  0.00    +0.000 N 
ATOM     11  C   UNL     1      47.448   1.813   6.879  0.00  0.00    +0.000 C 
ATOM     12  O   UNL     1      47.273   0.640   6.561  0.00  0.00    +0.000 OA
ATOM     13  H   UNL     1      49.270   1.962   5.993  0.00  0.00    +0.000 HD
ATOM     14  H   UNL     1      48.863   3.351   6.938  0.00  0.00    +0.000 HD
ENDBRANCH   2  11
ENDBRANCH   1   6
BRANCH   1  15
ATOM     15  C   UNL     1      43.466   5.524  12.167  0.00  0.00    +0.000 C 
BRANCH  15  16
ATOM     16  C   UNL     1      44.848   5.401  12.769  0.00  0.00    +0.000 A 
ATOM     17  C   UNL     1      45.360   4.160  13.160  0.00  0.00    +0.000 A 
ATOM     18  C   UNL     1      46.667   4.064  13.631  0.00  0.00    +0.000 A 
ATOM     19  C   UNL     1      47.480   5.198  13.674  0.00  0.00    +0.000 A 
ATOM     20  C   UNL     1      47.014   6.455  13.262  0.00  0.00    +0.000 A 
ATOM     21  C   UNL     1      45.675   6.534  12.851  0.00  0.00    +0.000 A 
BRANCH  20  22
ATOM     22  N   UNL     1      47.857   7.552  13.261  0.00  0.00    +0.000 N 
ATOM     23  C   UNL     1      47.350   8.926  13.362  0.00  0.00    +0.000 C 
ATOM     24  C   UNL     1      47.638   9.731  12.078  0.00  0.00    +0.000 C 
ATOM     25  N   UNL     1      49.063   9.713  11.689  0.00  0.00    +0.000 NA
ATOM     26  C   UNL     1      49.480   8.305  11.515  0.00  0.00    +0.000 C 
ATOM     27  C   UNL     1      49.236   7.411  12.758  0.00  0.00    +0.000 C 
ATOM     28  H   UNL     1      49.602  10.105  12.462  0.00  0.00    +0.000 HD
ENDBRANCH  20  22
ENDBRANCH  15  16
ENDBRANCH   1  15
TORSDOF 5
ENDMDL
MODEL 2
REMARK VINA RESULT:    -8.512      1.624      2.942
REMARK INTER + INTRA:         -11.931
REMARK INTER:                 -11.188
REMARK INTRA:                  -0.743
REMARK UNBOUND:                -0.931
REMARK  Name = 
REMARK  5 active torsions:
REMARK  status: ('A' for Active; 'I' for Inactive)
REMARK    1  A    between atoms: C_2  and  C_4
REMARK    2  A    between atoms: N_8  and  C_9
REMARK    3  A    between atoms: C_9  and  C_10
REMARK    4  A    between atoms: C_10  and  C_11
REMARK    5  A    between atoms: C_15  and  N_16
REMARK                            x       y       z     vdW  Elec       q    Type
REMARK                         _______ _______ _______ _____ _____    ______ ____
ROOT
ATOM      1  C   UNL     1      43.241   4.356  11.174  0.00  0.00    +0.000 C 
ENDROOT
BRANCH   1   6
ATOM      2  C   UNL     1      46.520   2.571   7.720  0.00  0.00    +0.000 A 
ATOM      3  C   UNL     1      45.677   1.891   8.588  0.00  0.00    +0.000 A 
ATOM      4  C   UNL     1      44.754   2.616   9.341  0.00  0.00    +0.000 A 
ATOM      5  C   UNL     1      44.691   4.004   9.223  0.00  0.00    +0.000 A 
ATOM      6  N   UNL     1      43.716   4.762   9.858  0.00  0.00    +0.000 N 
ATOM      7  N   UNL     1      45.531   4.674   8.412  0.00  0.00    +0.000 NA
ATOM      8  C   UNL     1      46.432   3.953   7.689  0.00  0.00    +0.000 A 
ATOM      9  H   UNL     1      43.952   5.745   9.735  0.00  0.00    +0.000 HD
BRANCH   2  11
ATOM     10  N   UNL     1      48.523   2.611   6.351  0.00  0.00    +0.000 N 
ATOM     11  C   UNL     1      47.484   1.872   6.849  0.00  0.00    +0.000 C 
ATOM     12  O   UNL     1      47.382   0.672   6.613  0.00  0.00    +0.000 OA
ATOM     13  H   UNL     1      49.235   2.099   5.844  0.00  0.00    +0.000 HD
ATOM     14  H   UNL     1      48.777   3.510   6.728  0.00  0.00    +0.000 HD
ENDBRANCH   2  11
ENDBRANCH   1   6
BRANCH   1  15
ATOM     15  C   UNL     1      43.120   5.558  12.120  0.00  0.00    +0.000 C 
BRANCH  15  16
ATOM     16  C   UNL     1      44.473   6.195  12.350  0.00  0.00    +0.000 A 
ATOM     17  C   UNL     1      44.754   7.483  11.886  0.00  0.00    +0.000 A 
ATOM     18  C   UNL     1      45.977   8.079  12.185  0.00  0.00    +0.000 A 
ATOM     19  C   UNL     1      46.905   7.407  12.984  0.00  0.00    +0.000 A 
ATOM     20  C   UNL     1      46.648   6.126  13.494  0.00  0.00    +0.000 A 
ATOM     21  C   UNL     1      45.435   5.526  13.125  0.00  0.00    +0.000 A 
BRANCH  20  22
ATOM     22  N   UNL     1      47.560   5.505  14.329  0.00  0.00    +0.000 N 
ATOM     23  C   UNL     1      47.293   4.198  14.942  0.00  0.00    +0.000 C 
ATOM     24  C   UNL     1      47.194   4.303  16.477  0.00  0.00    +0.000 C 
ATOM     25  N   UNL     1      48.370   4.953  17.092  0.00  0.00    +0.000 NA
ATOM     26  C   UNL     1      48.523   6.297  16.496  0.00  0.00    +0.000 C 
ATOM     27  C   UNL     1      48.636   6.299  14.950  0.00  0.00    +0.000 C 
ATOM     28  H   UNL     1      49.195   4.406  16.843  0.00  0.00    +0.000 HD
ENDBRANCH  20  22
ENDBRANCH  15  16
ENDBRANCH   1  15
TORSDOF 5
ENDMDL
MODEL 3
REMARK VINA RESULT:    -7.804      1.662      2.360
REMARK INTER + INTRA:         -11.016
REMARK INTER:                 -10.043
REMARK INTRA:                  -0.973
REMARK UNBOUND:                -0.931
REMARK  Name = 
REMARK  5 active torsions:
REMARK  status: ('A' for Active; 'I' for Inactive)
REMARK    1  A    between atoms: C_2  and  C_4
REMARK    2  A    between atoms: N_8  and  C_9
REMARK    3  A    between atoms: C_9  and  C_10
REMARK    4  A    between atoms: C_10  and  C_11
REMARK    5  A    between atoms: C_15  and  N_16
REMARK                            x       y       z     vdW  Elec       q    Type
REMARK                         _______ _______ _______ _____ _____    ______ ____
ROOT
ATOM      1  C   UNL     1      43.197   3.731  11.193  0.00  0.00    +0.000 C 
ENDROOT
BRANCH   1   6
ATOM      2  C   UNL     1      46.459   2.849   7.391  0.00  0.00    +0.000 A 
ATOM      3  C   UNL     1      46.032   4.049   7.944  0.00  0.00    +0.000 A 
ATOM      4  C   UNL     1      45.239   4.022   9.091  0.00  0.00    +0.000 A 
ATOM      5  C   UNL     1      44.880   2.802   9.663  0.00  0.00    +0.000 A 
ATOM      6  N   UNL     1      44.193   2.719  10.867  0.00  0.00    +0.000 N 
ATOM      7  N   UNL     1      45.257   1.634   9.111  0.00  0.00    +0.000 NA
ATOM      8  C   UNL     1      46.024   1.677   7.987  0.00  0.00    +0.000 A 
ATOM      9  H   UNL     1      43.928   1.747  11.012  0.00  0.00    +0.000 HD
BRANCH   2  11
ATOM     10  N   UNL     1      48.643   2.418   6.426  0.00  0.00    +0.000 N 
ATOM     11  C   UNL     1      47.344   2.796   6.213  0.00  0.00    +0.000 C 
ATOM     12  O   UNL     1      46.927   3.040   5.085  0.00  0.00    +0.000 OA
ATOM     13  H   UNL     1      49.212   2.283   5.599  0.00  0.00    +0.000 HD
ATOM     14  H   UNL     1      48.943   1.968   7.276  0.00  0.00    +0.000 HD
ENDBRANCH   2  11
ENDBRANCH   1   6
BRANCH   1  15
ATOM     15  C   UNL     1      43.523   4.427  12.521  0.00  0.00    +0.000 C 
BRANCH  15  16
ATOM     16  C   UNL     1      44.501   5.561  12.304  0.00  0.00    +0.000 A 
ATOM     17  C   UNL     1      44.091   6.770  11.733  0.00  0.00    +0.000 A 
ATOM     18  C   UNL     1      44.991   7.827  11.623  0.00  0.00    +0.000 A 
ATOM     19  C   UNL     1      46.289   7.695  12.122  0.00  0.00    +0.000 A 
ATOM     20  C   UNL     1      46.729   6.510  12.729  0.00  0.00    +0.000 A 
ATOM     21  C   UNL     1      45.821   5.441  12.770  0.00  0.00    +0.000 A 
BRANCH  20  22
ATOM     22  N   UNL     1      48.001   6.425  13.266  0.00  0.00    +0.000 N 
ATOM     23  C   UNL     1      48.232   6.101  14.679  0.00  0.00    +0.000 C 
ATOM     24  C   UNL     1      48.880   7.281  15.431  0.00  0.00    +0.000 C 
ATOM     25  N   UNL     1      50.114   7.774  14.785  0.00  0.00    +0.000 NA
ATOM     26  C   UNL     1      49.788   8.168  13.398  0.00  0.00    +0.000 C 
ATOM     27  C   UNL     1      49.134   7.043  12.554  0.00  0.00    +0.000 C 
ATOM     28  H   UNL     1      50.775   6.997  14.742  0.00  0.00    +0.000 HD
ENDBRANCH  20  22
ENDBRANCH  15  16
ENDBRANCH   1  15
TORSDOF 5
ENDMDL
MODEL 4
REMARK VINA RESULT:    -6.787      3.093      7.178
REMARK INTER + INTRA:          -9.702
REMARK INTER:                  -9.372
REMARK INTRA:                  -0.329
REMARK UNBOUND:                -0.931
REMARK  Name = 
REMARK  5 active torsions:
REMARK  status: ('A' for Active; 'I' for Inactive)
REMARK    1  A    between atoms: C_2  and  C_4
REMARK    2  A    between atoms: N_8  and  C_9
REMARK    3  A    between atoms: C_9  and  C_10
REMARK    4  A    between atoms: C_10  and  C_11
REMARK    5  A    between atoms: C_15  and  N_16
REMARK                            x       y       z     vdW  Elec       q    Type
REMARK                         _______ _______ _______ _____ _____    ______ ____
ROOT
ATOM      1  C   UNL     1      47.286   6.951  11.837  0.00  0.00    +0.000 C 
ENDROOT
BRANCH   1   6
ATOM      2  C   UNL     1      47.652   4.451  16.252  0.00  0.00    +0.000 A 
ATOM      3  C   UNL     1      47.094   4.056  15.043  0.00  0.00    +0.000 A 
ATOM      4  C   UNL     1      47.254   4.873  13.925  0.00  0.00    +0.000 A 
ATOM      5  C   UNL     1      47.960   6.071  14.030  0.00  0.00    +0.000 A 
ATOM      6  N   UNL     1      48.249   6.864  12.927  0.00  0.00    +0.000 N 
ATOM      7  N   UNL     1      48.471   6.480  15.206  0.00  0.00    +0.000 NA
ATOM      8  C   UNL     1      48.300   5.675  16.292  0.00  0.00    +0.000 A 
ATOM      9  H   UNL     1      48.647   7.738  13.263  0.00  0.00    +0.000 HD
BRANCH   2  11
ATOM     10  N   UNL     1      48.472   3.885  18.465  0.00  0.00    +0.000 N 
ATOM     11  C   UNL     1      47.575   3.617  17.466  0.00  0.00    +0.000 C 
ATOM     12  O   UNL     1      46.719   2.745  17.592  0.00  0.00    +0.000 OA
ATOM     13  H   UNL     1      48.341   3.379  19.332  0.00  0.00    +0.000 HD
ATOM     14  H   UNL     1      49.001   4.742  18.501  0.00  0.00    +0.000 HD
ENDBRANCH   2  11
ENDBRANCH   1   6
BRANCH   1  15
ATOM     15  C   UNL     1      45.863   7.169  12.367  0.00  0.00    +0.000 C 
BRANCH  15  16
ATOM     16  C   UNL     1      44.987   5.976  12.052  0.00  0.00    +0.000 A 
ATOM     17  C   UNL     1      43.909   5.634  12.873  0.00  0.00    +0.000 A 
ATOM     18  C   UNL     1      43.067   4.584  12.514  0.00  0.00    +0.000 A 
ATOM     19  C   UNL     1      43.274   3.901  11.313  0.00  0.00    +0.000 A 
ATOM     20  C   UNL     1      44.325   4.235  10.447  0.00  0.00    +0.000 A 
ATOM     21  C   UNL     1      45.194   5.254  10.864  0.00  0.00    +0.000 A 
BRANCH  20  22
ATOM     22  N   UNL     1      44.474   3.581   9.237  0.00  0.00    +0.000 N 
ATOM     23  C   UNL     1      44.461   2.116   9.135  0.00  0.00    +0.000 C 
ATOM     24  C   UNL     1      45.825   1.569   8.668  0.00  0.00    +0.000 C 
ATOM     25  N   UNL     1      46.301   2.190   7.414  0.00  0.00    +0.000 NA
ATOM     26  C   UNL     1      46.379   3.652   7.619  0.00  0.00    +0.000 C 
ATOM     27  C   UNL     1      45.050   4.300   8.087  0.00  0.00    +0.000 C 
ATOM     28  H   UNL     1      45.601   2.012   6.693  0.00  0.00    +0.000 HD
ENDBRANCH  20  22
ENDBRANCH  15  16
ENDBRANCH   1  15
TORSDOF 5
ENDMDL
MODEL 5
REMARK VINA RESULT:    -6.711      3.120      6.937
REMARK INTER + INTRA:          -9.604
REMARK INTER:                  -8.617
REMARK INTRA:                  -0.987
REMARK UNBOUND:                -0.931
REMARK  Name = 
REMARK  5 active torsions:
REMARK  status: ('A' for Active; 'I' for Inactive)
REMARK    1  A    between atoms: C_2  and  C_4
REMARK    2  A    between atoms: N_8  and  C_9
REMARK    3  A    between atoms: C_9  and  C_10
REMARK    4  A    between atoms: C_10  and  C_11
REMARK    5  A    between atoms: C_15  and  N_16
REMARK                            x       y       z     vdW  Elec       q    Type
REMARK                         _______ _______ _______ _____ _____    ______ ____
ROOT
ATOM      1  C   UNL     1      47.432   5.469  13.056  0.00  0.00    +0.000 C 
ENDROOT
BRANCH   1   6
ATOM      2  C   UNL     1      44.392   9.257  11.546  0.00  0.00    +0.000 A 
ATOM      3  C   UNL     1      44.423   7.925  11.157  0.00  0.00    +0.000 A 
ATOM      4  C   UNL     1      45.261   7.041  11.835  0.00  0.00    +0.000 A 
ATOM      5  C   UNL     1      46.059   7.498  12.883  0.00  0.00    +0.000 A 
ATOM      6  N   UNL     1      46.822   6.643  13.667  0.00  0.00    +0.000 N 
ATOM      7  N   UNL     1      46.064   8.796  13.242  0.00  0.00    +0.000 NA
ATOM      8  C   UNL     1      45.246   9.649  12.565  0.00  0.00    +0.000 A 
ATOM      9  H   UNL     1      47.413   7.211  14.269  0.00  0.00    +0.000 HD
BRANCH   2  11
ATOM     10  N   UNL     1      42.658  10.943  11.745  0.00  0.00    +0.000 N 
ATOM     11  C   UNL     1      43.492  10.242  10.917  0.00  0.00    +0.000 C 
ATOM     12  O   UNL     1      43.517  10.452   9.707  0.00  0.00    +0.000 OA
ATOM     13  H   UNL     1      42.123  11.688  11.317  0.00  0.00    +0.000 HD
ATOM     14  H   UNL     1      42.795  10.983  12.743  0.00  0.00    +0.000 HD
ENDBRANCH   2  11
ENDBRANCH   1   6
BRANCH   1  15
ATOM     15  C   UNL     1      46.774   4.175  13.553  0.00  0.00    +0.000 C 
BRANCH  15  16
ATOM     16  C   UNL     1      45.543   3.853  12.735  0.00  0.00    +0.000 A 
ATOM     17  C   UNL     1      44.259   4.047  13.253  0.00  0.00    +0.000 A 
ATOM     18  C   UNL     1      43.144   3.824  12.449  0.00  0.00    +0.000 A 
ATOM     19  C   UNL     1      43.308   3.448  11.114  0.00  0.00    +0.000 A 
ATOM     20  C   UNL     1      44.579   3.274  10.548  0.00  0.00    +0.000 A 
ATOM     21  C   UNL     1      45.683   3.444  11.398  0.00  0.00    +0.000 A 
BRANCH  20  22
ATOM     22  N   UNL     1      44.716   2.956   9.209  0.00  0.00    +0.000 N 
ATOM     23  C   UNL     1      44.985   1.586   8.755  0.00  0.00    +0.000 C 
ATOM     24  C   UNL     1      46.368   1.475   8.081  0.00  0.00    +0.000 C 
ATOM     25  N   UNL     1      46.560   2.450   6.987  0.00  0.00    +0.000 NA
ATOM     26  C   UNL     1      46.366   3.809   7.536  0.00  0.00    +0.000 C 
ATOM     27  C   UNL     1      44.998   4.024   8.232  0.00  0.00    +0.000 C 
ATOM     28  H   UNL     1      45.832   2.286   6.292  0.00  0.00    +0.000 HD
ENDBRANCH  20  22
ENDBRANCH  15  16
ENDBRANCH   1  15
TORSDOF 5
ENDMDL
MODEL 6
REMARK VINA RESULT:    -6.705      4.470      8.324
REMARK INTER + INTRA:          -9.595
REMARK INTER:                  -9.016
REMARK INTRA:                  -0.579
REMARK UNBOUND:                -0.931
REMARK  Name = 
REMARK  5 active torsions:
REMARK  status: ('A' for Active; 'I' for Inactive)
REMARK    1  A    between atoms: C_2  and  C_4
REMARK    2  A    between atoms: N_8  and  C_9
REMARK    3  A    between atoms: C_9  and  C_10
REMARK    4  A    between atoms: C_10  and  C_11
REMARK    5  A    between atoms: C_15  and  N_16
REMARK                            x       y       z     vdW  Elec       q    Type
REMARK                         _______ _______ _______ _____ _____    ______ ____
ROOT
ATOM      1  C   UNL     1      47.284   4.691  13.706  0.00  0.00    +0.000 C 
ENDROOT
BRANCH   1   6
ATOM      2  C   UNL     1      48.661   4.359  18.591  0.00  0.00    +0.000 A 
ATOM      3  C   UNL     1      48.798   5.408  17.692  0.00  0.00    +0.000 A 
ATOM      4  C   UNL     1      48.199   5.307  16.437  0.00  0.00    +0.000 A 
ATOM      5  C   UNL     1      47.479   4.162  16.097  0.00  0.00    +0.000 A 
ATOM      6  N   UNL     1      46.766   4.056  14.910  0.00  0.00    +0.000 N 
ATOM      7  N   UNL     1      47.374   3.124  16.948  0.00  0.00    +0.000 NA
ATOM      8  C   UNL     1      47.972   3.235  18.167  0.00  0.00    +0.000 A 
ATOM      9  H   UNL     1      46.440   3.096  14.823  0.00  0.00    +0.000 HD
BRANCH   2  11
ATOM     10  N   UNL     1      50.581   4.374  20.075  0.00  0.00    +0.000 N 
ATOM     11  C   UNL     1      49.218   4.413  19.956  0.00  0.00    +0.000 C 
ATOM     12  O   UNL     1      48.493   4.528  20.940  0.00  0.00    +0.000 OA
ATOM     13  H   UNL     1      50.954   4.519  21.005  0.00  0.00    +0.000 HD
ATOM     14  H   UNL     1      51.197   4.542  19.295  0.00  0.00    +0.000 HD
ENDBRANCH   2  11
ENDBRANCH   1   6
BRANCH   1  15
ATOM     15  C   UNL     1      46.382   5.846  13.250  0.00  0.00    +0.000 C 
BRANCH  15  16
ATOM     16  C   UNL     1      45.169   5.319  12.516  0.00  0.00    +0.000 A 
ATOM     17  C   UNL     1      43.875   5.623  12.947  0.00  0.00    +0.000 A 
ATOM     18  C   UNL     1      42.776   5.196  12.204  0.00  0.00    +0.000 A 
ATOM     19  C   UNL     1      42.969   4.503  11.007  0.00  0.00    +0.000 A 
ATOM     20  C   UNL     1      44.252   4.206  10.525  0.00  0.00    +0.000 A 
ATOM     21  C   UNL     1      45.338   4.592  11.325  0.00  0.00    +0.000 A 
BRANCH  20  22
ATOM     22  N   UNL     1      44.416   3.567   9.309  0.00  0.00    +0.000 N 
ATOM     23  C   UNL     1      44.446   2.104   9.193  0.00  0.00    +0.000 C 
ATOM     24  C   UNL     1      45.825   1.603   8.716  0.00  0.00    +0.000 C 
ATOM     25  N   UNL     1      46.277   2.249   7.467  0.00  0.00    +0.000 NA
ATOM     26  C   UNL     1      46.312   3.710   7.684  0.00  0.00    +0.000 C 
ATOM     27  C   UNL     1      44.966   4.314   8.163  0.00  0.00    +0.000 C 
ATOM     28  H   UNL     1      45.580   2.056   6.747  0.00  0.00    +0.000 HD
ENDBRANCH  20  22
ENDBRANCH  15  16
ENDBRANCH   1  15
TORSDOF 5
ENDMDL
MODEL 7
REMARK VINA RESULT:    -6.617      3.509      7.601
REMARK INTER + INTRA:          -9.483
REMARK INTER:                  -8.869
REMARK INTRA:                  -0.614
REMARK UNBOUND:                -0.931
REMARK  Name = 
REMARK  5 active torsions:
REMARK  status: ('A' for Active; 'I' for Inactive)
REMARK    1  A    between atoms: C_2  and  C_4
REMARK    2  A    between atoms: N_8  and  C_9
REMARK    3  A    between atoms: C_9  and  C_10
REMARK    4  A    between atoms: C_10  and  C_11
REMARK    5  A    between atoms: C_15  and  N_16
REMARK                            x       y       z     vdW  Elec       q    Type
REMARK                         _______ _______ _______ _____ _____    ______ ____
ROOT
ATOM      1  C   UNL     1      48.725   7.904  13.438  0.00  0.00    +0.000 C 
ENDROOT
BRANCH   1   6
ATOM      2  C   UNL     1      48.047   4.275  16.937  0.00  0.00    +0.000 A 
ATOM      3  C   UNL     1      47.323   4.555  15.786  0.00  0.00    +0.000 A 
ATOM      4  C   UNL     1      47.804   5.520  14.901  0.00  0.00    +0.000 A 
ATOM      5  C   UNL     1      48.992   6.194  15.181  0.00  0.00    +0.000 A 
ATOM      6  N   UNL     1      49.577   7.077  14.282  0.00  0.00    +0.000 N 
ATOM      7  N   UNL     1      49.681   5.956  16.313  0.00  0.00    +0.000 NA
ATOM      8  C   UNL     1      49.194   5.017  17.171  0.00  0.00    +0.000 A 
ATOM      9  H   UNL     1      50.350   7.540  14.753  0.00  0.00    +0.000 HD
BRANCH   2  11
ATOM     10  N   UNL     1      48.309   3.173  19.083  0.00  0.00    +0.000 N 
ATOM     11  C   UNL     1      47.635   3.231  17.893  0.00  0.00    +0.000 C 
ATOM     12  O   UNL     1      46.702   2.470  17.650  0.00  0.00    +0.000 OA
ATOM     13  H   UNL     1      47.949   2.524  19.771  0.00  0.00    +0.000 HD
ATOM     14  H   UNL     1      48.888   3.929  19.413  0.00  0.00    +0.000 HD
ENDBRANCH   2  11
ENDBRANCH   1   6
BRANCH   1  15
ATOM     15  C   UNL     1      48.295   7.153  12.171  0.00  0.00    +0.000 C 
BRANCH  15  16
ATOM     16  C   UNL     1      46.805   7.289  11.949  0.00  0.00    +0.000 A 
ATOM     17  C   UNL     1      46.181   8.540  11.975  0.00  0.00    +0.000 A 
ATOM     18  C   UNL     1      44.824   8.647  11.682  0.00  0.00    +0.000 A 
ATOM     19  C   UNL     1      44.095   7.512  11.320  0.00  0.00    +0.000 A 
ATOM     20  C   UNL     1      44.691   6.244  11.252  0.00  0.00    +0.000 A 
ATOM     21  C   UNL     1      46.044   6.156  11.613  0.00  0.00    +0.000 A 
BRANCH  20  22
ATOM     22  N   UNL     1      43.961   5.145  10.837  0.00  0.00    +0.000 N 
ATOM     23  C   UNL     1      43.023   4.449  11.726  0.00  0.00    +0.000 C 
ATOM     24  C   UNL     1      43.484   3.007  12.019  0.00  0.00    +0.000 C 
ATOM     25  N   UNL     1      43.745   2.221  10.795  0.00  0.00    +0.000 NA
ATOM     26  C   UNL     1      44.764   2.932   9.994  0.00  0.00    +0.000 C 
ATOM     27  C   UNL     1      44.390   4.395   9.642  0.00  0.00    +0.000 C 
ATOM     28  H   UNL     1      42.882   2.196  10.251  0.00  0.00    +0.000 HD
ENDBRANCH  20  22
ENDBRANCH  15  16
ENDBRANCH   1  15
TORSDOF 5
ENDMDL
MODEL 8
REMARK VINA RESULT:    -6.577      4.622      8.097
REMARK INTER + INTRA:          -9.431
REMARK INTER:                  -8.772
REMARK INTRA:                  -0.659
REMARK UNBOUND:                -0.931
REMARK  Name = 
REMARK  5 active torsions:
REMARK  status: ('A' for Active; 'I' for Inactive)
REMARK    1  A    between atoms: C_2  and  C_4
REMARK    2  A    between atoms: N_8  and  C_9
REMARK    3  A    between atoms: C_9  and  C_10
REMARK    4  A    between atoms: C_10  and  C_11
REMARK    5  A    between atoms: C_15  and  N_16
REMARK                            x       y       z     vdW  Elec       q    Type
REMARK                         _______ _______ _______ _____ _____    ______ ____
ROOT
ATOM      1  C   UNL     1      48.877   7.353  16.036  0.00  0.00    +0.000 C 
ENDROOT
BRANCH   1   6
ATOM      2  C   UNL     1      51.087   3.036  17.569  0.00  0.00    +0.000 A 
ATOM      3  C   UNL     1      51.594   4.327  17.503  0.00  0.00    +0.000 A 
ATOM      4  C   UNL     1      50.734   5.377  17.186  0.00  0.00    +0.000 A 
ATOM      5  C   UNL     1      49.386   5.124  16.934  0.00  0.00    +0.000 A 
ATOM      6  N   UNL     1      48.463   6.142  16.731  0.00  0.00    +0.000 N 
ATOM      7  N   UNL     1      48.894   3.872  16.958  0.00  0.00    +0.000 NA
ATOM      8  C   UNL     1      49.749   2.855  17.261  0.00  0.00    +0.000 A 
ATOM      9  H   UNL     1      47.586   5.717  16.436  0.00  0.00    +0.000 HD
BRANCH   2  11
ATOM     10  N   UNL     1      51.405   0.635  17.712  0.00  0.00    +0.000 N 
ATOM     11  C   UNL     1      51.920   1.881  17.951  0.00  0.00    +0.000 C 
ATOM     12  O   UNL     1      53.043   2.028  18.426  0.00  0.00    +0.000 OA
ATOM     13  H   UNL     1      52.027  -0.147  17.880  0.00  0.00    +0.000 HD
ATOM     14  H   UNL     1      50.621   0.483  17.098  0.00  0.00    +0.000 HD
ENDBRANCH   2  11
ENDBRANCH   1   6
BRANCH   1  15
ATOM     15  C   UNL     1      49.047   7.104  14.532  0.00  0.00    +0.000 C 
BRANCH  15  16
ATOM     16  C   UNL     1      47.716   7.202  13.820  0.00  0.00    +0.000 A 
ATOM     17  C   UNL     1      47.083   8.435  13.634  0.00  0.00    +0.000 A 
ATOM     18  C   UNL     1      45.901   8.507  12.901  0.00  0.00    +0.000 A 
ATOM     19  C   UNL     1      45.370   7.355  12.316  0.00  0.00    +0.000 A 
ATOM     20  C   UNL     1      45.991   6.106  12.453  0.00  0.00    +0.000 A 
ATOM     21  C   UNL     1      47.145   6.052  13.248  0.00  0.00    +0.000 A 
BRANCH  20  22
ATOM     22  N   UNL     1      45.476   4.991  11.817  0.00  0.00    +0.000 N 
ATOM     23  C   UNL     1      44.803   5.076  10.514  0.00  0.00    +0.000 C 
ATOM     24  C   UNL     1      43.313   4.694  10.621  0.00  0.00    +0.000 C 
ATOM     25  N   UNL     1      43.096   3.375  11.251  0.00  0.00    +0.000 NA
ATOM     26  C   UNL     1      43.717   3.391  12.592  0.00  0.00    +0.000 C 
ATOM     27  C   UNL     1      45.223   3.762  12.591  0.00  0.00    +0.000 C 
ATOM     28  H   UNL     1      43.584   2.677  10.689  0.00  0.00    +0.000 HD
ENDBRANCH  20  22
ENDBRANCH  15  16
ENDBRANCH   1  15
TORSDOF 5
ENDMDL
MODEL 9
REMARK VINA RESULT:    -6.359      3.389      5.759
REMARK INTER + INTRA:          -9.149
REMARK INTER:                  -8.235
REMARK INTRA:                  -0.914
REMARK UNBOUND:                -0.931
REMARK  Name = 
REMARK  5 active torsions:
REMARK  status: ('A' for Active; 'I' for Inactive)
REMARK    1  A    between atoms: C_2  and  C_4
REMARK    2  A    between atoms: N_8  and  C_9
REMARK    3  A    between atoms: C_9  and  C_10
REMARK    4  A    between atoms: C_10  and  C_11
REMARK    5  A    between atoms: C_15  and  N_16
REMARK                            x       y       z     vdW  Elec       q    Type
REMARK                         _______ _______ _______ _____ _____    ______ ____
ROOT
ATOM      1  C   UNL     1      47.027   8.347  13.273  0.00  0.00    +0.000 C 
ENDROOT
BRANCH   1   6
ATOM      2  C   UNL     1      44.634   4.189  11.581  0.00  0.00    +0.000 A 
ATOM      3  C   UNL     1      44.897   4.605  12.880  0.00  0.00    +0.000 A 
ATOM      4  C   UNL     1      45.442   5.871  13.088  0.00  0.00    +0.000 A 
ATOM      5  C   UNL     1      45.723   6.699  12.001  0.00  0.00    +0.000 A 
ATOM      6  N   UNL     1      46.155   8.010  12.155  0.00  0.00    +0.000 N 
ATOM      7  N   UNL     1      45.508   6.289  10.737  0.00  0.00    +0.000 NA
ATOM      8  C   UNL     1      44.982   5.046  10.550  0.00  0.00    +0.000 A 
ATOM      9  H   UNL     1      46.420   8.364  11.239  0.00  0.00    +0.000 HD
BRANCH   2  11
ATOM     10  N   UNL     1      43.596   2.135  12.348  0.00  0.00    +0.000 N 
ATOM     11  C   UNL     1      44.008   2.888  11.282  0.00  0.00    +0.000 C 
ATOM     12  O   UNL     1      43.828   2.513  10.127  0.00  0.00    +0.000 OA
ATOM     13  H   UNL     1      43.073   1.296  12.129  0.00  0.00    +0.000 HD
ATOM     14  H   UNL     1      43.491   2.520  13.274  0.00  0.00    +0.000 HD
ENDBRANCH   2  11
ENDBRANCH   1   6
BRANCH   1  15
ATOM     15  C   UNL     1      48.494   8.034  12.951  0.00  0.00    +0.000 C 
BRANCH  15  16
ATOM     16  C   UNL     1      49.193   7.451  14.159  0.00  0.00    +0.000 A 
ATOM     17  C   UNL     1      50.518   7.781  14.457  0.00  0.00    +0.000 A 
ATOM     18  C   UNL     1      51.110   7.298  15.621  0.00  0.00    +0.000 A 
ATOM     19  C   UNL     1      50.368   6.520  16.512  0.00  0.00    +0.000 A 
ATOM     20  C   UNL     1      49.027   6.192  16.265  0.00  0.00    +0.000 A 
ATOM     21  C   UNL     1      48.476   6.640  15.055  0.00  0.00    +0.000 A 
BRANCH  20  22
ATOM     22  N   UNL     1      48.298   5.467  17.190  0.00  0.00    +0.000 N 
ATOM     23  C   UNL     1      48.468   5.652  18.636  0.00  0.00    +0.000 C 
ATOM     24  C   UNL     1      49.034   4.384  19.306  0.00  0.00    +0.000 C 
ATOM     25  N   UNL     1      48.245   3.170  19.010  0.00  0.00    +0.000 NA
ATOM     26  C   UNL     1      48.194   2.994  17.544  0.00  0.00    +0.000 C 
ATOM     27  C   UNL     1      47.632   4.218  16.776  0.00  0.00    +0.000 C 
ATOM     28  H   UNL     1      47.293   3.329  19.339  0.00  0.00    +0.000 HD
ENDBRANCH  20  22
ENDBRANCH  15  16
ENDBRANCH   1  15
TORSDOF 5
ENDMDL
