MODEL 1
REMARK VINA RESULT:    -7.780      0.000      0.000
REMARK INTER + INTRA:         -10.685
REMARK INTER:                 -10.281
REMARK INTRA:                  -0.404
REMARK UNBOUND:                -0.404
REMARK  Name = 
REMARK  6 active torsions:
REMARK  status: ('A' for Active; 'I' for Inactive)
REMARK    1  A    between atoms: N_1  and  C_2
REMARK    2  A    between atoms: C_2  and  C_3
REMARK    3  A    between atoms: C_3  and  C_4
REMARK    4  A    between atoms: C_7  and  C_8
REMARK    5  A    between atoms: C_8  and  C_9
REMARK    6  A    between atoms: C_14  and  C_15
REMARK                            x       y       z     vdW  Elec       q    Type
REMARK                         _______ _______ _______ _____ _____    ______ ____
ROOT
ATOM      1  C   UNL     1      44.591   5.597  11.334  0.00  0.00    +0.000 A 
ATOM      2  N   UNL     1      44.603   6.921  11.325  0.00  0.00    +0.000 NA
ATOM      3  C   UNL     1      45.402   7.293  12.375  0.00  0.00    +0.000 A 
ATOM      4  C   UNL     1      45.885   6.190  13.038  0.00  0.00    +0.000 A 
ATOM      5  C   UNL     1      46.697   5.967  14.174  0.00  0.00    +0.000 A 
ATOM      6  C   UNL     1      46.955   4.705  14.559  0.00  0.00    +0.000 A 
ATOM      7  C   UNL     1      46.313   3.635  13.741  0.00  0.00    +0.000 A 
ATOM      8  N   UNL     1      45.564   3.792  12.691  0.00  0.00    +0.000 NA
ATOM      9  N   UNL     1      45.372   5.101  12.361  0.00  0.00    +0.000 N 
ENDROOT
BRANCH   6  10
ATOM     10  C   UNL     1      47.754   4.345  15.759  0.00  0.00    +0.000 C 
ATOM     11  N   UNL     1      47.406   3.225  16.447  0.00  0.00    +0.000 N 
ATOM     12  O   UNL     1      48.679   5.051  16.147  0.00  0.00    +0.000 OA
ATOM     13  H   UNL     1      46.582   2.669  16.268  0.00  0.00    +0.000 HD
ATOM     14  H   UNL     1      47.928   3.030  17.293  0.00  0.00    +0.000 HD
ENDBRANCH   6  10
BRANCH   1  15
ATOM     15  C   UNL     1      43.769   4.714  10.449  0.00  0.00    +0.000 C 
BRANCH  15  19
ATOM     16  C   UNL     1      46.126   2.186   7.820  0.00  0.00    +0.000 A 
ATOM     17  C   UNL     1      45.289   1.623   8.792  0.00  0.00    +0.000 A 
ATOM     18  C   UNL     1      44.526   2.436   9.636  0.00  0.00    +0.000 A 
ATOM     19  C   UNL     1      44.576   3.832   9.522  0.00  0.00    +0.000 A 
ATOM     20  C   UNL     1      45.392   4.393   8.529  0.00  0.00    +0.000 A 
ATOM     21  C   UNL     1      46.151   3.580   7.681  0.00  0.00    +0.000 A 
BRANCH  16  22
ATOM     22  C   UNL     1      47.009   1.303   6.968  0.00  0.00    +0.000 C 
BRANCH  22  23
ATOM     23  C   UNL     1      48.327   1.967   6.559  0.00  0.00    +0.000 C 
BRANCH  23  24
ATOM     24  N   UNL     1      48.357   2.218   5.116  0.00  0.00    +0.000 NA
ATOM     25  H   UNL     1      48.117   1.360   4.618  0.00  0.00    +0.000 HD
ATOM     26  H   UNL     1      49.307   2.455   4.829  0.00  0.00    +0.000 HD
ENDBRANCH  23  24
ENDBRANCH  22  23
ENDBRANCH  16  22
ENDBRANCH  15  19
ENDBRANCH   1  15
TORSDOF 6
ENDMDL
MODEL 2
REMARK VINA RESULT:    -7.548      2.080      2.940
REMARK INTER + INTRA:         -10.379
REMARK INTER:                  -9.870
REMARK INTRA:                  -0.510
REMARK UNBOUND:                -0.404
REMARK  Name = 
REMARK  6 active torsions:
REMARK  status: ('A' for Active; 'I' for Inactive)
REMARK    1  A    between atoms: N_1  and  C_2
REMARK    2  A    between atoms: C_2  and  C_3
REMARK    3  A    between atoms: C_3  and  C_4
REMARK    4  A    between atoms: C_7  and  C_8
REMARK    5  A    between atoms: C_8  and  C_9
REMARK    6  A    between atoms: C_14  and  C_15
REMARK                            x       y       z     vdW  Elec       q    Type
REMARK                         _______ _______ _______ _____ _____    ______ ____
ROOT
ATOM      1  C   UNL     1      45.478   4.661  12.766  0.00  0.00    +0.000 A 
ATOM      2  N   UNL     1      45.953   3.655  13.485  0.00  0.00    +0.000 NA
ATOM      3  C   UNL     1      46.980   4.179  14.227  0.00  0.00    +0.000 A 
ATOM      4  C   UNL     1      47.142   5.518  13.961  0.00  0.00    +0.000 A 
ATOM      5  C   UNL     1      48.030   6.533  14.385  0.00  0.00    +0.000 A 
ATOM      6  C   UNL     1      47.900   7.772  13.880  0.00  0.00    +0.000 A 
ATOM      7  C   UNL     1      46.817   7.949  12.869  0.00  0.00    +0.000 A 
ATOM      8  N   UNL     1      45.977   7.048  12.452  0.00  0.00    +0.000 NA
ATOM      9  N   UNL     1      46.169   5.828  13.031  0.00  0.00    +0.000 N 
ENDROOT
BRANCH   6  10
ATOM     10  C   UNL     1      48.799   8.908  14.212  0.00  0.00    +0.000 C 
ATOM     11  N   UNL     1      48.248  10.018  14.771  0.00  0.00    +0.000 N 
ATOM     12  O   UNL     1      49.998   8.870  13.958  0.00  0.00    +0.000 OA
ATOM     13  H   UNL     1      47.257  10.175  14.888  0.00  0.00    +0.000 HD
ATOM     14  H   UNL     1      48.870  10.801  14.937  0.00  0.00    +0.000 HD
ENDBRANCH   6  10
BRANCH   1  15
ATOM     15  C   UNL     1      44.420   4.573  11.713  0.00  0.00    +0.000 C 
BRANCH  15  19
ATOM     16  C   UNL     1      45.904   3.241   7.854  0.00  0.00    +0.000 A 
ATOM     17  C   UNL     1      45.306   2.337   8.741  0.00  0.00    +0.000 A 
ATOM     18  C   UNL     1      44.823   2.766   9.982  0.00  0.00    +0.000 A 
ATOM     19  C   UNL     1      44.920   4.110  10.361  0.00  0.00    +0.000 A 
ATOM     20  C   UNL     1      45.493   5.020   9.460  0.00  0.00    +0.000 A 
ATOM     21  C   UNL     1      45.971   4.593   8.217  0.00  0.00    +0.000 A 
BRANCH  16  22
ATOM     22  C   UNL     1      46.497   2.755   6.551  0.00  0.00    +0.000 C 
BRANCH  22  23
ATOM     23  C   UNL     1      48.001   2.477   6.629  0.00  0.00    +0.000 C 
BRANCH  23  24
ATOM     24  N   UNL     1      48.470   1.810   5.412  0.00  0.00    +0.000 NA
ATOM     25  H   UNL     1      48.573   2.499   4.667  0.00  0.00    +0.000 HD
ATOM     26  H   UNL     1      47.764   1.148   5.090  0.00  0.00    +0.000 HD
ENDBRANCH  23  24
ENDBRANCH  22  23
ENDBRANCH  16  22
ENDBRANCH  15  19
ENDBRANCH   1  15
TORSDOF 6
ENDMDL
MODEL 3
REMARK VINA RESULT:    -7.474      3.161      7.244
REMARK INTER + INTRA:         -10.281
REMARK INTER:                  -9.899
REMARK INTRA:                  -0.382
REMARK UNBOUND:                -0.404
REMARK  Name = 
REMARK  6 active torsions:
REMARK  status: ('A' for Active; 'I' for Inactive)
REMARK    1  A    between atoms: N_1  and  C_2
REMARK    2  A    between atoms: C_2  and  C_3
REMARK    3  A    between atoms: C_3  and  C_4
REMARK    4  A    between atoms: C_7  and  C_8
REMARK    5  A    between atoms: C_8  and  C_9
REMARK    6  A    between atoms: C_14  and  C_15
REMARK                            x       y       z     vdW  Elec       q    Type
REMARK                         _______ _______ _______ _____ _____    ______ ____
ROOT
ATOM      1  C   UNL     1      44.064   4.261  10.387  0.00  0.00    +0.000 A 
ATOM      2  N   UNL     1      43.557   3.171  10.943  0.00  0.00    +0.000 NA
ATOM      3  C   UNL     1      44.139   2.115  10.291  0.00  0.00    +0.000 A 
ATOM      4  C   UNL     1      45.010   2.557   9.324  0.00  0.00    +0.000 A 
ATOM      5  C   UNL     1      45.836   1.948   8.351  0.00  0.00    +0.000 A 
ATOM      6  C   UNL     1      46.563   2.723   7.529  0.00  0.00    +0.000 A 
ATOM      7  C   UNL     1      46.397   4.195   7.711  0.00  0.00    +0.000 A 
ATOM      8  N   UNL     1      45.654   4.798   8.591  0.00  0.00    +0.000 NA
ATOM      9  N   UNL     1      44.968   3.935   9.394  0.00  0.00    +0.000 N 
ENDROOT
BRANCH   6  10
ATOM     10  C   UNL     1      47.430   2.203   6.439  0.00  0.00    +0.000 C 
ATOM     11  N   UNL     1      47.655   3.002   5.364  0.00  0.00    +0.000 N 
ATOM     12  O   UNL     1      47.904   1.072   6.484  0.00  0.00    +0.000 OA
ATOM     13  H   UNL     1      47.197   3.887   5.194  0.00  0.00    +0.000 HD
ATOM     14  H   UNL     1      48.203   2.606   4.608  0.00  0.00    +0.000 HD
ENDBRANCH   6  10
BRANCH   1  15
ATOM     15  C   UNL     1      43.658   5.671  10.677  0.00  0.00    +0.000 C 
BRANCH  15  19
ATOM     16  C   UNL     1      46.689   8.006  12.732  0.00  0.00    +0.000 A 
ATOM     17  C   UNL     1      45.602   8.634  12.112  0.00  0.00    +0.000 A 
ATOM     18  C   UNL     1      44.622   7.883  11.454  0.00  0.00    +0.000 A 
ATOM     19  C   UNL     1      44.704   6.485  11.408  0.00  0.00    +0.000 A 
ATOM     20  C   UNL     1      45.778   5.856  12.055  0.00  0.00    +0.000 A 
ATOM     21  C   UNL     1      46.755   6.606  12.718  0.00  0.00    +0.000 A 
BRANCH  16  22
ATOM     22  C   UNL     1      47.785   8.830  13.370  0.00  0.00    +0.000 C 
BRANCH  22  23
ATOM     23  C   UNL     1      48.184   8.342  14.766  0.00  0.00    +0.000 C 
BRANCH  23  24
ATOM     24  N   UNL     1      47.558   9.166  15.803  0.00  0.00    +0.000 NA
ATOM     25  H   UNL     1      47.721  10.151  15.597  0.00  0.00    +0.000 HD
ATOM     26  H   UNL     1      48.008   8.986  16.701  0.00  0.00    +0.000 HD
ENDBRANCH  23  24
ENDBRANCH  22  23
ENDBRANCH  16  22
ENDBRANCH  15  19
ENDBRANCH   1  15
TORSDOF 6
ENDMDL
MODEL 4
REMARK VINA RESULT:    -6.986      2.174      3.416
REMARK INTER + INTRA:          -9.637
REMARK INTER:                  -9.167
REMARK INTRA:                  -0.470
REMARK UNBOUND:                -0.404
REMARK  Name = 
REMARK  6 active torsions:
REMARK  status: ('A' for Active; 'I' for Inactive)
REMARK    1  A    between atoms: N_1  and  C_2
REMARK    2  A    between atoms: C_2  and  C_3
REMARK    3  A    between atoms: C_3  and  C_4
REMARK    4  A    between atoms: C_7  and  C_8
REMARK    5  A    between atoms: C_8  and  C_9
REMARK    6  A    between atoms: C_14  and  C_15
REMARK                            x       y       z     vdW  Elec       q    Type
REMARK                         _______ _______ _______ _____ _____    ______ ____
ROOT
ATOM      1  C   UNL     1      44.425   4.537  12.010  0.00  0.00    +0.000 A 
ATOM      2  N   UNL     1      45.046   3.949  13.022  0.00  0.00    +0.000 NA
ATOM      3  C   UNL     1      45.736   4.945  13.663  0.00  0.00    +0.000 A 
ATOM      4  C   UNL     1      45.541   6.155  13.042  0.00  0.00    +0.000 A 
ATOM      5  C   UNL     1      46.009   7.476  13.229  0.00  0.00    +0.000 A 
ATOM      6  C   UNL     1      45.609   8.441  12.383  0.00  0.00    +0.000 A 
ATOM      7  C   UNL     1      44.707   8.001  11.280  0.00  0.00    +0.000 A 
ATOM      8  N   UNL     1      44.249   6.802  11.070  0.00  0.00    +0.000 NA
ATOM      9  N   UNL     1      44.690   5.893  11.986  0.00  0.00    +0.000 N 
ENDROOT
BRANCH   6  10
ATOM     10  C   UNL     1      46.068   9.853  12.449  0.00  0.00    +0.000 C 
ATOM     11  N   UNL     1      47.218  10.122  13.121  0.00  0.00    +0.000 N 
ATOM     12  O   UNL     1      45.414  10.761  11.947  0.00  0.00    +0.000 OA
ATOM     13  H   UNL     1      47.738   9.451  13.669  0.00  0.00    +0.000 HD
ATOM     14  H   UNL     1      47.482  11.097  13.201  0.00  0.00    +0.000 HD
ENDBRANCH   6  10
BRANCH   1  15
ATOM     15  C   UNL     1      43.631   3.853  10.943  0.00  0.00    +0.000 C 
BRANCH  15  19
ATOM     16  C   UNL     1      46.053   2.258   7.710  0.00  0.00    +0.000 A 
ATOM     17  C   UNL     1      45.364   1.401   8.577  0.00  0.00    +0.000 A 
ATOM     18  C   UNL     1      44.579   1.913   9.616  0.00  0.00    +0.000 A 
ATOM     19  C   UNL     1      44.460   3.296   9.806  0.00  0.00    +0.000 A 
ATOM     20  C   UNL     1      45.128   4.153   8.919  0.00  0.00    +0.000 A 
ATOM     21  C   UNL     1      45.908   3.641   7.877  0.00  0.00    +0.000 A 
BRANCH  16  22
ATOM     22  C   UNL     1      46.964   1.694   6.643  0.00  0.00    +0.000 C 
BRANCH  22  23
ATOM     23  C   UNL     1      47.226   2.665   5.487  0.00  0.00    +0.000 C 
BRANCH  23  24
ATOM     24  N   UNL     1      48.308   2.173   4.630  0.00  0.00    +0.000 NA
ATOM     25  H   UNL     1      49.159   2.700   4.825  0.00  0.00    +0.000 HD
ATOM     26  H   UNL     1      48.080   2.355   3.652  0.00  0.00    +0.000 HD
ENDBRANCH  23  24
ENDBRANCH  22  23
ENDBRANCH  16  22
ENDBRANCH  15  19
ENDBRANCH   1  15
TORSDOF 6
ENDMDL
MODEL 5
REMARK VINA RESULT:    -6.564      3.631      7.956
REMARK INTER + INTRA:          -9.079
REMARK INTER:                  -8.820
REMARK INTRA:                  -0.259
REMARK UNBOUND:                -0.404
REMARK  Name = 
REMARK  6 active torsions:
REMARK  status: ('A' for Active; 'I' for Inactive)
REMARK    1  A    between atoms: N_1  and  C_2
REMARK    2  A    between atoms: C_2  and  C_3
REMARK    3  A    between atoms: C_3  and  C_4
REMARK    4  A    between atoms: C_7  and  C_8
REMARK    5  A    between atoms: C_8  and  C_9
REMARK    6  A    between atoms: C_14  and  C_15
REMARK                            x       y       z     vdW  Elec       q    Type
REMARK                         _______ _______ _______ _____ _____    ______ ____
ROOT
ATOM      1  C   UNL     1      47.505   5.001  15.210  0.00  0.00    +0.000 A 
ATOM      2  N   UNL     1      48.380   5.986  15.064  0.00  0.00    +0.000 NA
ATOM      3  C   UNL     1      48.156   6.500  13.813  0.00  0.00    +0.000 A 
ATOM      4  C   UNL     1      47.138   5.827  13.181  0.00  0.00    +0.000 A 
ATOM      5  C   UNL     1      46.517   5.890  11.912  0.00  0.00    +0.000 A 
ATOM      6  C   UNL     1      45.528   5.028  11.622  0.00  0.00    +0.000 A 
ATOM      7  C   UNL     1      45.195   4.041  12.690  0.00  0.00    +0.000 A 
ATOM      8  N   UNL     1      45.734   3.947  13.869  0.00  0.00    +0.000 NA
ATOM      9  N   UNL     1      46.713   4.872  14.084  0.00  0.00    +0.000 N 
ENDROOT
BRANCH   6  10
ATOM     10  C   UNL     1      44.833   4.966  10.310  0.00  0.00    +0.000 C 
ATOM     11  N   UNL     1      45.579   5.107   9.182  0.00  0.00    +0.000 N 
ATOM     12  O   UNL     1      43.616   4.828  10.237  0.00  0.00    +0.000 OA
ATOM     13  H   UNL     1      46.558   5.354   9.164  0.00  0.00    +0.000 HD
ATOM     14  H   UNL     1      45.076   5.118   8.302  0.00  0.00    +0.000 HD
ENDBRANCH   6  10
BRANCH   1  15
ATOM     15  C   UNL     1      47.423   4.056  16.366  0.00  0.00    +0.000 C 
BRANCH  15  19
ATOM     16  C   UNL     1      51.279   2.528  17.652  0.00  0.00    +0.000 A 
ATOM     17  C   UNL     1      50.872   3.822  17.998  0.00  0.00    +0.000 A 
ATOM     18  C   UNL     1      49.628   4.314  17.589  0.00  0.00    +0.000 A 
ATOM     19  C   UNL     1      48.759   3.518  16.830  0.00  0.00    +0.000 A 
ATOM     20  C   UNL     1      49.157   2.212  16.509  0.00  0.00    +0.000 A 
ATOM     21  C   UNL     1      50.398   1.718  16.923  0.00  0.00    +0.000 A 
BRANCH  16  22
ATOM     22  C   UNL     1      52.658   2.034  18.029  0.00  0.00    +0.000 C 
BRANCH  22  23
ATOM     23  C   UNL     1      53.041   0.713  17.355  0.00  0.00    +0.000 C 
BRANCH  23  24
ATOM     24  N   UNL     1      52.991  -0.393  18.314  0.00  0.00    +0.000 NA
ATOM     25  H   UNL     1      52.167  -0.965  18.128  0.00  0.00    +0.000 HD
ATOM     26  H   UNL     1      52.871  -0.024  19.258  0.00  0.00    +0.000 HD
ENDBRANCH  23  24
ENDBRANCH  22  23
ENDBRANCH  16  22
ENDBRANCH  15  19
ENDBRANCH   1  15
TORSDOF 6
ENDMDL
MODEL 6
REMARK VINA RESULT:    -5.970      4.001      5.540
REMARK INTER + INTRA:          -8.293
REMARK INTER:                  -8.108
REMARK INTRA:                  -0.186
REMARK UNBOUND:                -0.404
REMARK  Name = 
REMARK  6 active torsions:
REMARK  status: ('A' for Active; 'I' for Inactive)
REMARK    1  A    between atoms: N_1  and  C_2
REMARK    2  A    between atoms: C_2  and  C_3
REMARK    3  A    between atoms: C_3  and  C_4
REMARK    4  A    between atoms: C_7  and  C_8
REMARK    5  A    between atoms: C_8  and  C_9
REMARK    6  A    between atoms: C_14  and  C_15
REMARK                            x       y       z     vdW  Elec       q    Type
REMARK                         _______ _______ _______ _____ _____    ______ ____
ROOT
ATOM      1  C   UNL     1      49.048   7.546  13.940  0.00  0.00    +0.000 A 
ATOM      2  N   UNL     1      49.689   8.436  14.683  0.00  0.00    +0.000 NA
ATOM      3  C   UNL     1      49.642   7.954  15.965  0.00  0.00    +0.000 A 
ATOM      4  C   UNL     1      48.965   6.759  16.014  0.00  0.00    +0.000 A 
ATOM      5  C   UNL     1      48.586   5.852  17.031  0.00  0.00    +0.000 A 
ATOM      6  C   UNL     1      47.885   4.753  16.702  0.00  0.00    +0.000 A 
ATOM      7  C   UNL     1      47.540   4.614  15.257  0.00  0.00    +0.000 A 
ATOM      8  N   UNL     1      47.868   5.418  14.290  0.00  0.00    +0.000 NA
ATOM      9  N   UNL     1      48.594   6.493  14.711  0.00  0.00    +0.000 N 
ENDROOT
BRANCH   6  10
ATOM     10  C   UNL     1      47.391   3.753  17.684  0.00  0.00    +0.000 C 
ATOM     11  N   UNL     1      47.955   3.737  18.920  0.00  0.00    +0.000 N 
ATOM     12  O   UNL     1      46.526   2.937  17.384  0.00  0.00    +0.000 OA
ATOM     13  H   UNL     1      48.757   4.284  19.197  0.00  0.00    +0.000 HD
ATOM     14  H   UNL     1      47.642   3.010  19.553  0.00  0.00    +0.000 HD
ENDBRANCH   6  10
BRANCH   1  15
ATOM     15  C   UNL     1      48.731   7.674  12.484  0.00  0.00    +0.000 C 
BRANCH  15  19
ATOM     16  C   UNL     1      44.545   7.011  11.536  0.00  0.00    +0.000 A 
ATOM     17  C   UNL     1      44.935   8.099  12.325  0.00  0.00    +0.000 A 
ATOM     18  C   UNL     1      46.284   8.317  12.627  0.00  0.00    +0.000 A 
ATOM     19  C   UNL     1      47.274   7.455  12.139  0.00  0.00    +0.000 A 
ATOM     20  C   UNL     1      46.884   6.381  11.325  0.00  0.00    +0.000 A 
ATOM     21  C   UNL     1      45.537   6.166  11.018  0.00  0.00    +0.000 A 
BRANCH  16  22
ATOM     22  C   UNL     1      43.080   6.736  11.283  0.00  0.00    +0.000 C 
BRANCH  22  23
ATOM     23  C   UNL     1      42.602   5.394  11.847  0.00  0.00    +0.000 C 
BRANCH  23  24
ATOM     24  N   UNL     1      42.659   5.396  13.311  0.00  0.00    +0.000 NA
ATOM     25  H   UNL     1      42.377   4.480  13.661  0.00  0.00    +0.000 HD
ATOM     26  H   UNL     1      41.979   6.061  13.680  0.00  0.00    +0.000 HD
ENDBRANCH  23  24
ENDBRANCH  22  23
ENDBRANCH  16  22
ENDBRANCH  15  19
ENDBRANCH   1  15
TORSDOF 6
ENDMDL
MODEL 7
REMARK VINA RESULT:    -5.945      3.844      5.595
REMARK INTER + INTRA:          -8.261
REMARK INTER:                  -7.864
REMARK INTRA:                  -0.397
REMARK UNBOUND:                -0.404
REMARK  Name = 
REMARK  6 active torsions:
REMARK  status: ('A' for Active; 'I' for Inactive)
REMARK    1  A    between atoms: N_1  and  C_2
REMARK    2  A    between atoms: C_2  and  C_3
REMARK    3  A    between atoms: C_3  and  C_4
REMARK    4  A    between atoms: C_7  and  C_8
REMARK    5  A    between atoms: C_8  and  C_9
REMARK    6  A    between atoms: C_14  and  C_15
REMARK                            x       y       z     vdW  Elec       q    Type
REMARK                         _______ _______ _______ _____ _____    ______ ____
ROOT
ATOM      1  C   UNL     1      48.683   7.316  14.992  0.00  0.00    +0.000 A 
ATOM      2  N   UNL     1      48.635   8.601  15.309  0.00  0.00    +0.000 NA
ATOM      3  C   UNL     1      48.697   8.650  16.678  0.00  0.00    +0.000 A 
ATOM      4  C   UNL     1      48.781   7.385  17.210  0.00  0.00    +0.000 A 
ATOM      5  C   UNL     1      48.833   6.837  18.512  0.00  0.00    +0.000 A 
ATOM      6  C   UNL     1      48.892   5.502  18.660  0.00  0.00    +0.000 A 
ATOM      7  C   UNL     1      48.864   4.709  17.396  0.00  0.00    +0.000 A 
ATOM      8  N   UNL     1      48.820   5.168  16.181  0.00  0.00    +0.000 NA
ATOM      9  N   UNL     1      48.782   6.530  16.125  0.00  0.00    +0.000 N 
ENDROOT
BRANCH   6  10
ATOM     10  C   UNL     1      48.904   4.807  19.973  0.00  0.00    +0.000 C 
ATOM     11  N   UNL     1      48.505   3.508  20.014  0.00  0.00    +0.000 N 
ATOM     12  O   UNL     1      49.227   5.390  21.003  0.00  0.00    +0.000 OA
ATOM     13  H   UNL     1      48.103   3.002  19.237  0.00  0.00    +0.000 HD
ATOM     14  H   UNL     1      48.468   3.072  20.928  0.00  0.00    +0.000 HD
ENDBRANCH   6  10
BRANCH   1  15
ATOM     15  C   UNL     1      48.534   6.737  13.621  0.00  0.00    +0.000 C 
BRANCH  15  19
ATOM     16  C   UNL     1      44.593   5.158  12.707  0.00  0.00    +0.000 A 
ATOM     17  C   UNL     1      45.613   4.314  13.162  0.00  0.00    +0.000 A 
ATOM     18  C   UNL     1      46.882   4.822  13.461  0.00  0.00    +0.000 A 
ATOM     19  C   UNL     1      47.156   6.188  13.320  0.00  0.00    +0.000 A 
ATOM     20  C   UNL     1      46.124   7.037  12.893  0.00  0.00    +0.000 A 
ATOM     21  C   UNL     1      44.854   6.530  12.598  0.00  0.00    +0.000 A 
BRANCH  16  22
ATOM     22  C   UNL     1      43.251   4.588  12.307  0.00  0.00    +0.000 C 
BRANCH  22  23
ATOM     23  C   UNL     1      43.337   3.547  11.187  0.00  0.00    +0.000 C 
BRANCH  23  24
ATOM     24  N   UNL     1      43.026   2.208  11.695  0.00  0.00    +0.000 NA
ATOM     25  H   UNL     1      43.155   1.525  10.949  0.00  0.00    +0.000 HD
ATOM     26  H   UNL     1      42.040   2.161  11.955  0.00  0.00    +0.000 HD
ENDBRANCH  23  24
ENDBRANCH  22  23
ENDBRANCH  16  22
ENDBRANCH  15  19
ENDBRANCH   1  15
TORSDOF 6
ENDMDL
MODEL 8
REMARK VINA RESULT:    -5.719      4.574      6.777
REMARK INTER + INTRA:          -7.961
REMARK INTER:                  -7.495
REMARK INTRA:                  -0.466
REMARK UNBOUND:                -0.404
REMARK  Name = 
REMARK  6 active torsions:
REMARK  status: ('A' for Active; 'I' for Inactive)
REMARK    1  A    between atoms: N_1  and  C_2
REMARK    2  A    between atoms: C_2  and  C_3
REMARK    3  A    between atoms: C_3  and  C_4
REMARK    4  A    between atoms: C_7  and  C_8
REMARK    5  A    between atoms: C_8  and  C_9
REMARK    6  A    between atoms: C_14  and  C_15
REMARK                            x       y       z     vdW  Elec       q    Type
REMARK                         _______ _______ _______ _____ _____    ______ ____
ROOT
ATOM      1  C   UNL     1      47.692   6.407  13.819  0.00  0.00    +0.000 A 
ATOM      2  N   UNL     1      47.887   5.519  14.782  0.00  0.00    +0.000 NA
ATOM      3  C   UNL     1      47.123   4.432  14.446  0.00  0.00    +0.000 A 
ATOM      4  C   UNL     1      46.450   4.651  13.268  0.00  0.00    +0.000 A 
ATOM      5  C   UNL     1      45.524   3.928  12.482  0.00  0.00    +0.000 A 
ATOM      6  C   UNL     1      45.040   4.485  11.359  0.00  0.00    +0.000 A 
ATOM      7  C   UNL     1      45.522   5.865  11.061  0.00  0.00    +0.000 A 
ATOM      8  N   UNL     1      46.372   6.566  11.751  0.00  0.00    +0.000 NA
ATOM      9  N   UNL     1      46.825   5.917  12.861  0.00  0.00    +0.000 N 
ENDROOT
BRANCH   6  10
ATOM     10  C   UNL     1      44.030   3.845  10.476  0.00  0.00    +0.000 C 
ATOM     11  N   UNL     1      43.801   4.401   9.257  0.00  0.00    +0.000 N 
ATOM     12  O   UNL     1      43.390   2.865  10.843  0.00  0.00    +0.000 OA
ATOM     13  H   UNL     1      44.189   5.277   8.939  0.00  0.00    +0.000 HD
ATOM     14  H   UNL     1      43.068   3.981   8.696  0.00  0.00    +0.000 HD
ENDBRANCH   6  10
BRANCH   1  15
ATOM     15  C   UNL     1      48.221   7.806  13.787  0.00  0.00    +0.000 C 
BRANCH  15  19
ATOM     16  C   UNL     1      52.008   8.201  11.699  0.00  0.00    +0.000 A 
ATOM     17  C   UNL     1      50.847   7.831  11.009  0.00  0.00    +0.000 A 
ATOM     18  C   UNL     1      49.625   7.709  11.679  0.00  0.00    +0.000 A 
ATOM     19  C   UNL     1      49.536   7.961  13.054  0.00  0.00    +0.000 A 
ATOM     20  C   UNL     1      50.694   8.359  13.738  0.00  0.00    +0.000 A 
ATOM     21  C   UNL     1      51.915   8.487  13.067  0.00  0.00    +0.000 A 
BRANCH  16  22
ATOM     22  C   UNL     1      53.339   8.251  10.983  0.00  0.00    +0.000 C 
BRANCH  22  23
ATOM     23  C   UNL     1      54.285   7.109  11.369  0.00  0.00    +0.000 C 
BRANCH  23  24
ATOM     24  N   UNL     1      53.926   5.876  10.665  0.00  0.00    +0.000 NA
ATOM     25  H   UNL     1      53.826   6.071   9.669  0.00  0.00    +0.000 HD
ATOM     26  H   UNL     1      53.013   5.553  10.984  0.00  0.00    +0.000 HD
ENDBRANCH  23  24
ENDBRANCH  22  23
ENDBRANCH  16  22
ENDBRANCH  15  19
ENDBRANCH   1  15
TORSDOF 6
ENDMDL
MODEL 9
REMARK VINA RESULT:    -5.538      4.381      6.220
REMARK INTER + INTRA:          -7.723
REMARK INTER:                  -7.279
REMARK INTRA:                  -0.444
REMARK UNBOUND:                -0.404
REMARK  Name = 
REMARK  6 active torsions:
REMARK  status: ('A' for Active; 'I' for Inactive)
REMARK    1  A    between atoms: N_1  and  C_2
REMARK    2  A    between atoms: C_2  and  C_3
REMARK    3  A    between atoms: C_3  and  C_4
REMARK    4  A    between atoms: C_7  and  C_8
REMARK    5  A    between atoms: C_8  and  C_9
REMARK    6  A    between atoms: C_14  and  C_15
REMARK                            x       y       z     vdW  Elec       q    Type
REMARK                         _______ _______ _______ _____ _____    ______ ____
ROOT
ATOM      1  C   UNL     1      46.120   8.327  12.665  0.00  0.00    +0.000 A 
ATOM      2  N   UNL     1      45.372   9.142  11.936  0.00  0.00    +0.000 NA
ATOM      3  C   UNL     1      44.432   8.345  11.334  0.00  0.00    +0.000 A 
ATOM      4  C   UNL     1      44.603   7.030  11.693  0.00  0.00    +0.000 A 
ATOM      5  C   UNL     1      43.978   5.803  11.370  0.00  0.00    +0.000 A 
ATOM      6  C   UNL     1      44.442   4.666  11.915  0.00  0.00    +0.000 A 
ATOM      7  C   UNL     1      45.626   4.814  12.811  0.00  0.00    +0.000 A 
ATOM      8  N   UNL     1      46.230   5.917  13.139  0.00  0.00    +0.000 NA
ATOM      9  N   UNL     1      45.681   7.021  12.557  0.00  0.00    +0.000 N 
ENDROOT
BRANCH   6  10
ATOM     10  C   UNL     1      43.901   3.314  11.617  0.00  0.00    +0.000 C 
ATOM     11  N   UNL     1      43.837   2.413  12.631  0.00  0.00    +0.000 N 
ATOM     12  O   UNL     1      43.553   3.001  10.483  0.00  0.00    +0.000 OA
ATOM     13  H   UNL     1      44.223   2.552  13.554  0.00  0.00    +0.000 HD
ATOM     14  H   UNL     1      43.517   1.481  12.393  0.00  0.00    +0.000 HD
ENDBRANCH   6  10
BRANCH   1  15
ATOM     15  C   UNL     1      47.353   8.702  13.425  0.00  0.00    +0.000 C 
BRANCH  15  19
ATOM     16  C   UNL     1      51.013   8.755  11.087  0.00  0.00    +0.000 A 
ATOM     17  C   UNL     1      50.458   7.544  11.519  0.00  0.00    +0.000 A 
ATOM     18  C   UNL     1      49.276   7.525  12.267  0.00  0.00    +0.000 A 
ATOM     19  C   UNL     1      48.619   8.718  12.595  0.00  0.00    +0.000 A 
ATOM     20  C   UNL     1      49.160   9.928  12.138  0.00  0.00    +0.000 A 
ATOM     21  C   UNL     1      50.339   9.947  11.384  0.00  0.00    +0.000 A 
BRANCH  16  22
ATOM     22  C   UNL     1      52.333   8.770  10.350  0.00  0.00    +0.000 C 
BRANCH  22  23
ATOM     23  C   UNL     1      52.857   7.373  10.003  0.00  0.00    +0.000 C 
BRANCH  23  24
ATOM     24  N   UNL     1      53.757   6.881  11.048  0.00  0.00    +0.000 NA
ATOM     25  H   UNL     1      54.560   7.505  11.125  0.00  0.00    +0.000 HD
ATOM     26  H   UNL     1      54.131   5.971  10.778  0.00  0.00    +0.000 HD
ENDBRANCH  23  24
ENDBRANCH  22  23
ENDBRANCH  16  22
ENDBRANCH  15  19
ENDBRANCH   1  15
TORSDOF 6
ENDMDL
