MODEL 1
REMARK VINA RESULT:    -8.186      0.000      0.000
REMARK INTER + INTRA:          -9.351
REMARK INTER:                  -9.622
REMARK INTRA:                   0.270
REMARK UNBOUND:                 0.270
REMARK  Name = 
REMARK  3 active torsions:
REMARK  status: ('A' for Active; 'I' for Inactive)
REMARK    1  A    between atoms: C_2  and  C_4
REMARK    2  A    between atoms: N_8  and  C_9
REMARK    3  A    between atoms: C_9  and  C_10
REMARK                            x       y       z     vdW  Elec       q    Type
REMARK                         _______ _______ _______ _____ _____    ______ ____
ROOT
ATOM      1  C   UNL     1      46.456   2.773   7.536  0.00  0.00    +0.000 A 
ATOM      2  C   UNL     1      46.137   4.098   7.819  0.00  0.00    +0.000 A 
ATOM      3  C   UNL     1      45.315   4.383   8.915  0.00  0.00    +0.000 A 
ATOM      4  C   UNL     1      44.840   3.344   9.709  0.00  0.00    +0.000 A 
ATOM      5  N   UNL     1      44.010   3.545  10.817  0.00  0.00    +0.000 N 
ATOM      6  N   UNL     1      45.133   2.055   9.435  0.00  0.00    +0.000 NA
ATOM      7  C   UNL     1      45.919   1.793   8.359  0.00  0.00    +0.000 A 
ATOM      8  H   UNL     1      43.897   2.651  11.286  0.00  0.00    +0.000 HD
ENDROOT
BRANCH   1  10
ATOM      9  N   UNL     1      47.247   3.127   5.265  0.00  0.00    +0.000 N 
ATOM     10  C   UNL     1      47.306   2.364   6.399  0.00  0.00    +0.000 C 
ATOM     11  O   UNL     1      48.065   1.407   6.475  0.00  0.00    +0.000 OA
ATOM     12  H   UNL     1      47.909   2.894   4.534  0.00  0.00    +0.000 HD
ATOM     13  H   UNL     1      46.835   4.050   5.242  0.00  0.00    +0.000 HD
ENDBRANCH   1  10
BRANCH   5  14
ATOM     14  C   UNL     1      43.973   4.796  11.594  0.00  0.00    +0.000 C 
ATOM     15  C   UNL     1      42.717   5.137  12.381  0.00  0.00    +0.000 C 
ATOM     16  C   UNL     1      43.025   5.900  11.134  0.00  0.00    +0.000 C 
BRANCH  14  17
ATOM     17  C   UNL     1      45.331   5.279  12.118  0.00  0.00    +0.000 A 
ATOM     18  C   UNL     1      46.019   4.554  13.096  0.00  0.00    +0.000 A 
ATOM     19  N   UNL     1      47.262   4.865  13.544  0.00  0.00    +0.000 NA
ATOM     20  C   UNL     1      47.808   5.963  12.985  0.00  0.00    +0.000 A 
ATOM     21  C   UNL     1      47.141   6.716  12.037  0.00  0.00    +0.000 A 
ATOM     22  N   UNL     1      45.906   6.396  11.583  0.00  0.00    +0.000 NA
ENDBRANCH  14  17
ENDBRANCH   5  14
TORSDOF 3
ENDMDL
MODEL 2
REMARK VINA RESULT:    -7.369      3.022      6.230
REMARK INTER + INTRA:          -8.392
REMARK INTER:                  -8.226
REMARK INTRA:                  -0.166
REMARK UNBOUND:                 0.270
REMARK  Name = 
REMARK  3 active torsions:
REMARK  status: ('A' for Active; 'I' for Inactive)
REMARK    1  A    between atoms: C_2  and  C_4
REMARK    2  A    between atoms: N_8  and  C_9
REMARK    3  A    between atoms: C_9  and  C_10
REMARK                            x       y       z     vdW  Elec       q    Type
REMARK                         _______ _______ _______ _____ _____    ______ ____
ROOT
ATOM      1  C   UNL     1      47.802   5.811  14.604  0.00  0.00    +0.000 A 
ATOM      2  C   UNL     1      47.322   6.186  13.354  0.00  0.00    +0.000 A 
ATOM      3  C   UNL     1      46.560   5.275  12.614  0.00  0.00    +0.000 A 
ATOM      4  C   UNL     1      46.284   4.018  13.143  0.00  0.00    +0.000 A 
ATOM      5  N   UNL     1      45.535   3.050  12.467  0.00  0.00    +0.000 N 
ATOM      6  N   UNL     1      46.757   3.641  14.350  0.00  0.00    +0.000 NA
ATOM      7  C   UNL     1      47.508   4.531  15.049  0.00  0.00    +0.000 A 
ATOM      8  H   UNL     1      45.385   2.273  13.104  0.00  0.00    +0.000 HD
ENDROOT
BRANCH   1  10
ATOM      9  N   UNL     1      48.064   7.873  15.867  0.00  0.00    +0.000 N 
ATOM     10  C   UNL     1      48.624   6.693  15.460  0.00  0.00    +0.000 C 
ATOM     11  O   UNL     1      49.745   6.369  15.828  0.00  0.00    +0.000 OA
ATOM     12  H   UNL     1      48.599   8.415  16.534  0.00  0.00    +0.000 HD
ATOM     13  H   UNL     1      47.074   8.064  15.799  0.00  0.00    +0.000 HD
ENDBRANCH   1  10
BRANCH   5  14
ATOM     14  C   UNL     1      44.529   3.366  11.438  0.00  0.00    +0.000 C 
ATOM     15  C   UNL     1      43.364   4.274  11.802  0.00  0.00    +0.000 C 
ATOM     16  C   UNL     1      43.118   2.811  11.618  0.00  0.00    +0.000 C 
BRANCH  14  17
ATOM     17  C   UNL     1      45.049   3.368   9.995  0.00  0.00    +0.000 A 
ATOM     18  C   UNL     1      45.268   4.571   9.316  0.00  0.00    +0.000 A 
ATOM     19  N   UNL     1      45.810   4.660   8.076  0.00  0.00    +0.000 NA
ATOM     20  C   UNL     1      46.121   3.478   7.506  0.00  0.00    +0.000 A 
ATOM     21  C   UNL     1      45.890   2.272   8.141  0.00  0.00    +0.000 A 
ATOM     22  N   UNL     1      45.359   2.188   9.385  0.00  0.00    +0.000 NA
ENDBRANCH  14  17
ENDBRANCH   5  14
TORSDOF 3
ENDMDL
MODEL 3
REMARK VINA RESULT:    -6.178      2.668      4.388
REMARK INTER + INTRA:          -6.992
REMARK INTER:                  -6.870
REMARK INTRA:                  -0.122
REMARK UNBOUND:                 0.270
REMARK  Name = 
REMARK  3 active torsions:
REMARK  status: ('A' for Active; 'I' for Inactive)
REMARK    1  A    between atoms: C_2  and  C_4
REMARK    2  A    between atoms: N_8  and  C_9
REMARK    3  A    between atoms: C_9  and  C_10
REMARK                            x       y       z     vdW  Elec       q    Type
REMARK                         _______ _______ _______ _____ _____    ______ ____
ROOT
ATOM      1  C   UNL     1      45.020   3.873  10.083  0.00  0.00    +0.000 A 
ATOM      2  C   UNL     1      45.556   5.116   9.764  0.00  0.00    +0.000 A 
ATOM      3  C   UNL     1      45.911   5.993  10.795  0.00  0.00    +0.000 A 
ATOM      4  C   UNL     1      45.734   5.606  12.120  0.00  0.00    +0.000 A 
ATOM      5  N   UNL     1      46.057   6.424  13.206  0.00  0.00    +0.000 N 
ATOM      6  N   UNL     1      45.202   4.407  12.439  0.00  0.00    +0.000 NA
ATOM      7  C   UNL     1      44.848   3.573  11.427  0.00  0.00    +0.000 A 
ATOM      8  H   UNL     1      45.941   5.876  14.053  0.00  0.00    +0.000 HD
ENDROOT
BRANCH   1  10
ATOM      9  N   UNL     1      44.333   3.341   7.812  0.00  0.00    +0.000 N 
ATOM     10  C   UNL     1      44.603   2.879   9.072  0.00  0.00    +0.000 C 
ATOM     11  O   UNL     1      44.541   1.685   9.331  0.00  0.00    +0.000 OA
ATOM     12  H   UNL     1      44.149   2.637   7.108  0.00  0.00    +0.000 HD
ATOM     13  H   UNL     1      44.608   4.259   7.492  0.00  0.00    +0.000 HD
ENDBRANCH   1  10
BRANCH   5  14
ATOM     14  C   UNL     1      47.071   7.492  13.152  0.00  0.00    +0.000 C 
ATOM     15  C   UNL     1      48.536   7.109  13.002  0.00  0.00    +0.000 C 
ATOM     16  C   UNL     1      48.047   7.616  14.320  0.00  0.00    +0.000 C 
BRANCH  14  17
ATOM     17  C   UNL     1      46.588   8.822  12.562  0.00  0.00    +0.000 A 
ATOM     18  C   UNL     1      45.237   9.181  12.621  0.00  0.00    +0.000 A 
ATOM     19  N   UNL     1      44.746  10.376  12.205  0.00  0.00    +0.000 NA
ATOM     20  C   UNL     1      45.665  11.221  11.697  0.00  0.00    +0.000 A 
ATOM     21  C   UNL     1      47.002  10.884  11.600  0.00  0.00    +0.000 A 
ATOM     22  N   UNL     1      47.490   9.694  12.027  0.00  0.00    +0.000 NA
ENDBRANCH  14  17
ENDBRANCH   5  14
TORSDOF 3
ENDMDL
MODEL 4
REMARK VINA RESULT:    -5.798      3.264      5.478
REMARK INTER + INTRA:          -6.545
REMARK INTER:                  -6.340
REMARK INTRA:                  -0.205
REMARK UNBOUND:                 0.270
REMARK  Name = 
REMARK  3 active torsions:
REMARK  status: ('A' for Active; 'I' for Inactive)
REMARK    1  A    between atoms: C_2  and  C_4
REMARK    2  A    between atoms: N_8  and  C_9
REMARK    3  A    between atoms: C_9  and  C_10
REMARK                            x       y       z     vdW  Elec       q    Type
REMARK                         _______ _______ _______ _____ _____    ______ ____
ROOT
ATOM      1  C   UNL     1      44.695   5.164  10.979  0.00  0.00    +0.000 A 
ATOM      2  C   UNL     1      45.912   5.726  10.608  0.00  0.00    +0.000 A 
ATOM      3  C   UNL     1      46.522   6.656  11.457  0.00  0.00    +0.000 A 
ATOM      4  C   UNL     1      45.912   6.994  12.661  0.00  0.00    +0.000 A 
ATOM      5  N   UNL     1      46.453   7.917  13.561  0.00  0.00    +0.000 N 
ATOM      6  N   UNL     1      44.725   6.463  13.024  0.00  0.00    +0.000 NA
ATOM      7  C   UNL     1      44.137   5.575  12.181  0.00  0.00    +0.000 A 
ATOM      8  H   UNL     1      45.882   7.903  14.401  0.00  0.00    +0.000 HD
ENDROOT
BRANCH   1  10
ATOM      9  N   UNL     1      43.968   4.377   8.797  0.00  0.00    +0.000 N 
ATOM     10  C   UNL     1      43.963   4.183  10.151  0.00  0.00    +0.000 C 
ATOM     11  O   UNL     1      43.408   3.211  10.645  0.00  0.00    +0.000 OA
ATOM     12  H   UNL     1      43.550   3.642   8.239  0.00  0.00    +0.000 HD
ATOM     13  H   UNL     1      44.608   5.007   8.333  0.00  0.00    +0.000 HD
ENDBRANCH   1  10
BRANCH   5  14
ATOM     14  C   UNL     1      47.892   8.222  13.653  0.00  0.00    +0.000 C 
ATOM     15  C   UNL     1      48.832   7.172  14.224  0.00  0.00    +0.000 C 
ATOM     16  C   UNL     1      48.506   8.380  15.042  0.00  0.00    +0.000 C 
BRANCH  14  17
ATOM     17  C   UNL     1      48.421   9.194  12.592  0.00  0.00    +0.000 A 
ATOM     18  C   UNL     1      47.692  10.334  12.238  0.00  0.00    +0.000 A 
ATOM     19  N   UNL     1      48.132  11.287  11.378  0.00  0.00    +0.000 NA
ATOM     20  C   UNL     1      49.351  11.055  10.850  0.00  0.00    +0.000 A 
ATOM     21  C   UNL     1      50.084   9.924  11.159  0.00  0.00    +0.000 A 
ATOM     22  N   UNL     1      49.645   8.981  12.027  0.00  0.00    +0.000 NA
ENDBRANCH  14  17
ENDBRANCH   5  14
TORSDOF 3
ENDMDL
MODEL 5
REMARK VINA RESULT:    -5.725      2.933      5.778
REMARK INTER + INTRA:          -6.459
REMARK INTER:                  -7.067
REMARK INTRA:                   0.608
REMARK UNBOUND:                 0.270
REMARK  Name = 
REMARK  3 active torsions:
REMARK  status: ('A' for Active; 'I' for Inactive)
REMARK    1  A    between atoms: C_2  and  C_4
REMARK    2  A    between atoms: N_8  and  C_9
REMARK    3  A    between atoms: C_9  and  C_10
REMARK                            x       y       z     vdW  Elec       q    Type
REMARK                         _______ _______ _______ _____ _____    ______ ____
ROOT
ATOM      1  C   UNL     1      48.362   7.137  12.925  0.00  0.00    +0.000 A 
ATOM      2  C   UNL     1      47.672   5.970  13.236  0.00  0.00    +0.000 A 
ATOM      3  C   UNL     1      46.334   5.842  12.848  0.00  0.00    +0.000 A 
ATOM      4  C   UNL     1      45.719   6.876  12.148  0.00  0.00    +0.000 A 
ATOM      5  N   UNL     1      44.385   6.829  11.729  0.00  0.00    +0.000 N 
ATOM      6  N   UNL     1      46.376   8.018  11.853  0.00  0.00    +0.000 NA
ATOM      7  C   UNL     1      47.669   8.132  12.251  0.00  0.00    +0.000 A 
ATOM      8  H   UNL     1      44.213   7.647  11.151  0.00  0.00    +0.000 HD
ENDROOT
BRANCH   1  10
ATOM      9  N   UNL     1      50.674   7.521  12.280  0.00  0.00    +0.000 N 
ATOM     10  C   UNL     1      49.772   7.376  13.298  0.00  0.00    +0.000 C 
ATOM     11  O   UNL     1      50.119   7.481  14.466  0.00  0.00    +0.000 OA
ATOM     12  H   UNL     1      51.614   7.785  12.550  0.00  0.00    +0.000 HD
ATOM     13  H   UNL     1      50.401   7.690  11.321  0.00  0.00    +0.000 HD
ENDBRANCH   1  10
BRANCH   5  14
ATOM     14  C   UNL     1      43.652   5.577  11.475  0.00  0.00    +0.000 C 
ATOM     15  C   UNL     1      42.158   5.528  11.756  0.00  0.00    +0.000 C 
ATOM     16  C   UNL     1      43.096   4.813  12.674  0.00  0.00    +0.000 C 
BRANCH  14  17
ATOM     17  C   UNL     1      44.225   4.702  10.353  0.00  0.00    +0.000 A 
ATOM     18  C   UNL     1      45.130   5.229   9.426  0.00  0.00    +0.000 A 
ATOM     19  N   UNL     1      45.749   4.500   8.464  0.00  0.00    +0.000 NA
ATOM     20  C   UNL     1      45.416   3.194   8.439  0.00  0.00    +0.000 A 
ATOM     21  C   UNL     1      44.503   2.650   9.323  0.00  0.00    +0.000 A 
ATOM     22  N   UNL     1      43.896   3.379  10.291  0.00  0.00    +0.000 NA
ENDBRANCH  14  17
ENDBRANCH   5  14
TORSDOF 3
ENDMDL
MODEL 6
REMARK VINA RESULT:    -5.709      6.666      9.534
REMARK INTER + INTRA:          -6.440
REMARK INTER:                  -6.430
REMARK INTRA:                  -0.009
REMARK UNBOUND:                 0.270
REMARK  Name = 
REMARK  3 active torsions:
REMARK  status: ('A' for Active; 'I' for Inactive)
REMARK    1  A    between atoms: C_2  and  C_4
REMARK    2  A    between atoms: N_8  and  C_9
REMARK    3  A    between atoms: C_9  and  C_10
REMARK                            x       y       z     vdW  Elec       q    Type
REMARK                         _______ _______ _______ _____ _____    ______ ____
ROOT
ATOM      1  C   UNL     1      53.160   2.143  18.202  0.00  0.00    +0.000 A 
ATOM      2  C   UNL     1      52.468   3.341  18.054  0.00  0.00    +0.000 A 
ATOM      3  C   UNL     1      51.169   3.320  17.535  0.00  0.00    +0.000 A 
ATOM      4  C   UNL     1      50.585   2.105  17.188  0.00  0.00    +0.000 A 
ATOM      5  N   UNL     1      49.295   1.999  16.659  0.00  0.00    +0.000 N 
ATOM      6  N   UNL     1      51.254   0.939  17.315  0.00  0.00    +0.000 NA
ATOM      7  C   UNL     1      52.520   0.978  17.806  0.00  0.00    +0.000 A 
ATOM      8  H   UNL     1      49.066   1.011  16.595  0.00  0.00    +0.000 HD
ENDROOT
BRANCH   1  10
ATOM      9  N   UNL     1      54.726   1.341  19.880  0.00  0.00    +0.000 N 
ATOM     10  C   UNL     1      54.538   2.057  18.729  0.00  0.00    +0.000 C 
ATOM     11  O   UNL     1      55.484   2.567  18.144  0.00  0.00    +0.000 OA
ATOM     12  H   UNL     1      55.687   1.206  20.170  0.00  0.00    +0.000 HD
ATOM     13  H   UNL     1      54.033   0.706  20.252  0.00  0.00    +0.000 HD
ENDBRANCH   1  10
BRANCH   5  14
ATOM     14  C   UNL     1      48.231   2.989  16.895  0.00  0.00    +0.000 C 
ATOM     15  C   UNL     1      48.092   3.605  18.279  0.00  0.00    +0.000 C 
ATOM     16  C   UNL     1      47.082   2.602  17.822  0.00  0.00    +0.000 C 
BRANCH  14  17
ATOM     17  C   UNL     1      47.828   3.819  15.670  0.00  0.00    +0.000 A 
ATOM     18  C   UNL     1      48.087   5.192  15.620  0.00  0.00    +0.000 A 
ATOM     19  N   UNL     1      47.845   5.976  14.539  0.00  0.00    +0.000 NA
ATOM     20  C   UNL     1      47.303   5.336  13.484  0.00  0.00    +0.000 A 
ATOM     21  C   UNL     1      47.009   3.985  13.513  0.00  0.00    +0.000 A 
ATOM     22  N   UNL     1      47.264   3.204  14.590  0.00  0.00    +0.000 NA
ENDBRANCH  14  17
ENDBRANCH   5  14
TORSDOF 3
ENDMDL
MODEL 7
REMARK VINA RESULT:    -5.665      4.262      6.822
REMARK INTER + INTRA:          -6.389
REMARK INTER:                  -6.278
REMARK INTRA:                  -0.110
REMARK UNBOUND:                 0.270
REMARK  Name = 
REMARK  3 active torsions:
REMARK  status: ('A' for Active; 'I' for Inactive)
REMARK    1  A    between atoms: C_2  and  C_4
REMARK    2  A    between atoms: N_8  and  C_9
REMARK    3  A    between atoms: C_9  and  C_10
REMARK                            x       y       z     vdW  Elec       q    Type
REMARK                         _______ _______ _______ _____ _____    ______ ____
ROOT
ATOM      1  C   UNL     1      46.172   5.502  12.607  0.00  0.00    +0.000 A 
ATOM      2  C   UNL     1      46.330   4.379  13.412  0.00  0.00    +0.000 A 
ATOM      3  C   UNL     1      47.138   4.462  14.551  0.00  0.00    +0.000 A 
ATOM      4  C   UNL     1      47.759   5.666  14.868  0.00  0.00    +0.000 A 
ATOM      5  N   UNL     1      48.586   5.831  15.984  0.00  0.00    +0.000 N 
ATOM      6  N   UNL     1      47.623   6.758  14.086  0.00  0.00    +0.000 NA
ATOM      7  C   UNL     1      46.848   6.656  12.975  0.00  0.00    +0.000 A 
ATOM      8  H   UNL     1      48.822   6.817  16.053  0.00  0.00    +0.000 HD
ENDROOT
BRANCH   1  10
ATOM      9  N   UNL     1      44.883   6.729  10.951  0.00  0.00    +0.000 N 
ATOM     10  C   UNL     1      45.351   5.517  11.378  0.00  0.00    +0.000 C 
ATOM     11  O   UNL     1      45.129   4.496  10.741  0.00  0.00    +0.000 OA
ATOM     12  H   UNL     1      44.411   6.735  10.055  0.00  0.00    +0.000 HD
ATOM     13  H   UNL     1      45.242   7.610  11.294  0.00  0.00    +0.000 HD
ENDBRANCH   1  10
BRANCH   5  14
ATOM     14  C   UNL     1      48.486   5.010  17.203  0.00  0.00    +0.000 C 
ATOM     15  C   UNL     1      47.121   4.803  17.843  0.00  0.00    +0.000 C 
ATOM     16  C   UNL     1      48.109   5.705  18.509  0.00  0.00    +0.000 C 
BRANCH  14  17
ATOM     17  C   UNL     1      49.542   3.905  17.335  0.00  0.00    +0.000 A 
ATOM     18  C   UNL     1      49.241   2.584  16.988  0.00  0.00    +0.000 A 
ATOM     19  N   UNL     1      50.143   1.570  16.989  0.00  0.00    +0.000 NA
ATOM     20  C   UNL     1      51.387   1.918  17.375  0.00  0.00    +0.000 A 
ATOM     21  C   UNL     1      51.707   3.209  17.751  0.00  0.00    +0.000 A 
ATOM     22  N   UNL     1      50.807   4.221  17.737  0.00  0.00    +0.000 NA
ENDBRANCH  14  17
ENDBRANCH   5  14
TORSDOF 3
ENDMDL
MODEL 8
REMARK VINA RESULT:    -5.487      3.196      4.947
REMARK INTER + INTRA:          -6.179
REMARK INTER:                  -6.786
REMARK INTRA:                   0.607
REMARK UNBOUND:                 0.270
REMARK  Name = 
REMARK  3 active torsions:
REMARK  status: ('A' for Active; 'I' for Inactive)
REMARK    1  A    between atoms: C_2  and  C_4
REMARK    2  A    between atoms: N_8  and  C_9
REMARK    3  A    between atoms: C_9  and  C_10
REMARK                            x       y       z     vdW  Elec       q    Type
REMARK                         _______ _______ _______ _____ _____    ______ ____
ROOT
ATOM      1  C   UNL     1      44.470   4.192  11.537  0.00  0.00    +0.000 A 
ATOM      2  C   UNL     1      45.533   4.868  10.948  0.00  0.00    +0.000 A 
ATOM      3  C   UNL     1      45.983   6.063  11.520  0.00  0.00    +0.000 A 
ATOM      4  C   UNL     1      45.372   6.549  12.672  0.00  0.00    +0.000 A 
ATOM      5  N   UNL     1      45.758   7.737  13.301  0.00  0.00    +0.000 N 
ATOM      6  N   UNL     1      44.331   5.906  13.243  0.00  0.00    +0.000 NA
ATOM      7  C   UNL     1      43.896   4.756  12.667  0.00  0.00    +0.000 A 
ATOM      8  H   UNL     1      45.238   7.810  14.170  0.00  0.00    +0.000 HD
ENDROOT
BRANCH   1  10
ATOM      9  N   UNL     1      44.552   2.361   9.940  0.00  0.00    +0.000 N 
ATOM     10  C   UNL     1      43.913   2.929  11.007  0.00  0.00    +0.000 C 
ATOM     11  O   UNL     1      42.945   2.388  11.523  0.00  0.00    +0.000 OA
ATOM     12  H   UNL     1      44.219   1.447   9.655  0.00  0.00    +0.000 HD
ATOM     13  H   UNL     1      45.480   2.630   9.646  0.00  0.00    +0.000 HD
ENDBRANCH   1  10
BRANCH   5  14
ATOM     14  C   UNL     1      47.109   8.315  13.197  0.00  0.00    +0.000 C 
ATOM     15  C   UNL     1      47.277   9.688  12.567  0.00  0.00    +0.000 C 
ATOM     16  C   UNL     1      47.717   8.479  11.806  0.00  0.00    +0.000 C 
BRANCH  14  17
ATOM     17  C   UNL     1      48.092   7.875  14.289  0.00  0.00    +0.000 A 
ATOM     18  C   UNL     1      48.293   6.519  14.567  0.00  0.00    +0.000 A 
ATOM     19  N   UNL     1      49.208   6.047  15.451  0.00  0.00    +0.000 NA
ATOM     20  C   UNL     1      49.927   6.996  16.084  0.00  0.00    +0.000 A 
ATOM     21  C   UNL     1      49.732   8.345  15.851  0.00  0.00    +0.000 A 
ATOM     22  N   UNL     1      48.825   8.811  14.959  0.00  0.00    +0.000 NA
ENDBRANCH  14  17
ENDBRANCH   5  14
TORSDOF 3
ENDMDL
MODEL 9
REMARK VINA RESULT:    -5.452      3.839      6.999
REMARK INTER + INTRA:          -6.138
REMARK INTER:                  -6.037
REMARK INTRA:                  -0.101
REMARK UNBOUND:                 0.270
REMARK  Name = 
REMARK  3 active torsions:
REMARK  status: ('A' for Active; 'I' for Inactive)
REMARK    1  A    between atoms: C_2  and  C_4
REMARK    2  A    between atoms: N_8  and  C_9
REMARK    3  A    between atoms: C_9  and  C_10
REMARK                            x       y       z     vdW  Elec       q    Type
REMARK                         _______ _______ _______ _____ _____    ______ ____
ROOT
ATOM      1  C   UNL     1      48.478   3.662  16.346  0.00  0.00    +0.000 A 
ATOM      2  C   UNL     1      47.682   3.315  15.260  0.00  0.00    +0.000 A 
ATOM      3  C   UNL     1      47.123   4.327  14.471  0.00  0.00    +0.000 A 
ATOM      4  C   UNL     1      47.381   5.660  14.776  0.00  0.00    +0.000 A 
ATOM      5  N   UNL     1      46.856   6.729  14.043  0.00  0.00    +0.000 N 
ATOM      6  N   UNL     1      48.142   6.007  15.836  0.00  0.00    +0.000 NA
ATOM      7  C   UNL     1      48.664   5.013  16.601  0.00  0.00    +0.000 A 
ATOM      8  H   UNL     1      47.278   7.583  14.395  0.00  0.00    +0.000 HD
ENDROOT
BRANCH   1  10
ATOM      9  N   UNL     1      49.033   2.914  18.591  0.00  0.00    +0.000 N 
ATOM     10  C   UNL     1      49.106   2.673  17.247  0.00  0.00    +0.000 C 
ATOM     11  O   UNL     1      49.636   1.657  16.817  0.00  0.00    +0.000 OA
ATOM     12  H   UNL     1      49.377   2.177  19.196  0.00  0.00    +0.000 HD
ATOM     13  H   UNL     1      48.403   3.592  18.996  0.00  0.00    +0.000 HD
ENDBRANCH   1  10
BRANCH   5  14
ATOM     14  C   UNL     1      46.458   6.631  12.628  0.00  0.00    +0.000 C 
ATOM     15  C   UNL     1      47.528   6.741  11.552  0.00  0.00    +0.000 C 
ATOM     16  C   UNL     1      46.583   7.880  11.758  0.00  0.00    +0.000 C 
BRANCH  14  17
ATOM     17  C   UNL     1      45.219   5.770  12.356  0.00  0.00    +0.000 A 
ATOM     18  C   UNL     1      45.218   4.822  11.328  0.00  0.00    +0.000 A 
ATOM     19  N   UNL     1      44.198   3.961  11.083  0.00  0.00    +0.000 NA
ATOM     20  C   UNL     1      43.138   4.089  11.907  0.00  0.00    +0.000 A 
ATOM     21  C   UNL     1      43.098   5.034  12.915  0.00  0.00    +0.000 A 
ATOM     22  N   UNL     1      44.124   5.884  13.163  0.00  0.00    +0.000 NA
ENDBRANCH  14  17
ENDBRANCH   5  14
TORSDOF 3
ENDMDL
