MODEL 1
REMARK VINA RESULT:    -7.703      0.000      0.000
REMARK INTER + INTRA:          -9.897
REMARK INTER:                  -9.504
REMARK INTRA:                  -0.393
REMARK UNBOUND:                -0.393
REMARK  Name = 
REMARK  4 active torsions:
REMARK  status: ('A' for Active; 'I' for Inactive)
REMARK    1  A    between atoms: C_2  and  C_4
REMARK    2  A    between atoms: C_7  and  O_8
REMARK    3  A    between atoms: O_8  and  C_9
REMARK    4  A    between atoms: C_9  and  C_10
REMARK                            x       y       z     vdW  Elec       q    Type
REMARK                         _______ _______ _______ _____ _____    ______ ____
ROOT
ATOM      1  C   UNL     1      46.448   2.759   7.577  0.00  0.00    +0.000 A 
ATOM      2  N   UNL     1      46.071   4.063   7.634  0.00  0.00    +0.000 NA
ATOM      3  C   UNL     1      45.179   4.364   8.601  0.00  0.00    +0.000 A 
ATOM      4  C   UNL     1      44.639   3.428   9.455  0.00  0.00    +0.000 A 
ATOM      5  C   UNL     1      45.140   2.152   9.334  0.00  0.00    +0.000 A 
ATOM      6  N   UNL     1      46.040   1.781   8.404  0.00  0.00    +0.000 NA
ENDROOT
BRANCH   1   8
ATOM      7  N   UNL     1      47.212   3.181   5.299  0.00  0.00    +0.000 N 
ATOM      8  C   UNL     1      47.329   2.374   6.409  0.00  0.00    +0.000 C 
ATOM      9  O   UNL     1      48.084   1.412   6.404  0.00  0.00    +0.000 OA
ATOM     10  H   UNL     1      47.741   2.954   4.469  0.00  0.00    +0.000 HD
ATOM     11  H   UNL     1      46.566   3.961   5.308  0.00  0.00    +0.000 HD
ENDBRANCH   1   8
BRANCH   4  12
ATOM     12  O   UNL     1      43.679   3.667  10.384  0.00  0.00    +0.000 OA
BRANCH  12  13
ATOM     13  C   UNL     1      43.813   4.849  11.220  0.00  0.00    +0.000 C 
ATOM     14  C   UNL     1      42.533   5.113  12.011  0.00  0.00    +0.000 C 
ATOM     15  C   UNL     1      42.979   6.101  10.989  0.00  0.00    +0.000 C 
BRANCH  13  16
ATOM     16  C   UNL     1      45.126   4.973  11.972  0.00  0.00    +0.000 A 
ATOM     17  C   UNL     1      45.949   6.106  11.850  0.00  0.00    +0.000 A 
ATOM     18  C   UNL     1      47.100   6.259  12.627  0.00  0.00    +0.000 A 
ATOM     19  C   UNL     1      47.467   5.265  13.528  0.00  0.00    +0.000 A 
ATOM     20  C   UNL     1      46.700   4.108  13.631  0.00  0.00    +0.000 A 
ATOM     21  C   UNL     1      45.547   3.964  12.857  0.00  0.00    +0.000 A 
ENDBRANCH  13  16
ENDBRANCH  12  13
ENDBRANCH   4  12
TORSDOF 4
ENDMDL
MODEL 2
REMARK VINA RESULT:    -6.975      3.772      6.252
REMARK INTER + INTRA:          -8.999
REMARK INTER:                  -8.840
REMARK INTRA:                  -0.160
REMARK UNBOUND:                -0.393
REMARK  Name = 
REMARK  4 active torsions:
REMARK  status: ('A' for Active; 'I' for Inactive)
REMARK    1  A    between atoms: C_2  and  C_4
REMARK    2  A    between atoms: C_7  and  O_8
REMARK    3  A    between atoms: O_8  and  C_9
REMARK    4  A    between atoms: C_9  and  C_10
REMARK                            x       y       z     vdW  Elec       q    Type
REMARK                         _______ _______ _______ _____ _____    ______ ____
ROOT
ATOM      1  C   UNL     1      47.468   4.157  15.016  0.00  0.00    +0.000 A 
ATOM      2  N   UNL     1      46.954   3.195  14.206  0.00  0.00    +0.000 NA
ATOM      3  C   UNL     1      46.374   3.644  13.073  0.00  0.00    +0.000 A 
ATOM      4  C   UNL     1      46.260   4.978  12.755  0.00  0.00    +0.000 A 
ATOM      5  C   UNL     1      46.867   5.853  13.628  0.00  0.00    +0.000 A 
ATOM      6  N   UNL     1      47.475   5.479  14.768  0.00  0.00    +0.000 NA
ENDROOT
BRANCH   1   8
ATOM      7  N   UNL     1      47.039   3.124  17.183  0.00  0.00    +0.000 N 
ATOM      8  C   UNL     1      47.986   3.688  16.358  0.00  0.00    +0.000 C 
ATOM      9  O   UNL     1      49.146   3.804  16.727  0.00  0.00    +0.000 OA
ATOM     10  H   UNL     1      47.309   2.828  18.110  0.00  0.00    +0.000 HD
ATOM     11  H   UNL     1      46.076   3.053  16.875  0.00  0.00    +0.000 HD
ENDBRANCH   1   8
BRANCH   4  12
ATOM     12  O   UNL     1      45.614   5.481  11.672  0.00  0.00    +0.000 OA
BRANCH  12  13
ATOM     13  C   UNL     1      44.616   4.645  11.022  0.00  0.00    +0.000 C 
ATOM     14  C   UNL     1      43.274   5.369  10.919  0.00  0.00    +0.000 C 
ATOM     15  C   UNL     1      43.381   4.142  11.757  0.00  0.00    +0.000 C 
BRANCH  13  16
ATOM     16  C   UNL     1      45.092   3.895   9.792  0.00  0.00    +0.000 A 
ATOM     17  C   UNL     1      45.669   4.558   8.694  0.00  0.00    +0.000 A 
ATOM     18  C   UNL     1      46.203   3.851   7.614  0.00  0.00    +0.000 A 
ATOM     19  C   UNL     1      46.147   2.461   7.598  0.00  0.00    +0.000 A 
ATOM     20  C   UNL     1      45.535   1.781   8.646  0.00  0.00    +0.000 A 
ATOM     21  C   UNL     1      45.009   2.493   9.726  0.00  0.00    +0.000 A 
ENDBRANCH  13  16
ENDBRANCH  12  13
ENDBRANCH   4  12
TORSDOF 4
ENDMDL
MODEL 3
REMARK VINA RESULT:    -6.158      3.706      6.060
REMARK INTER + INTRA:          -7.991
REMARK INTER:                  -7.884
REMARK INTRA:                  -0.107
REMARK UNBOUND:                -0.393
REMARK  Name = 
REMARK  4 active torsions:
REMARK  status: ('A' for Active; 'I' for Inactive)
REMARK    1  A    between atoms: C_2  and  C_4
REMARK    2  A    between atoms: C_7  and  O_8
REMARK    3  A    between atoms: O_8  and  C_9
REMARK    4  A    between atoms: C_9  and  C_10
REMARK                            x       y       z     vdW  Elec       q    Type
REMARK                         _______ _______ _______ _____ _____    ______ ____
ROOT
ATOM      1  C   UNL     1      48.428   6.818  13.465  0.00  0.00    +0.000 A 
ATOM      2  N   UNL     1      47.775   5.639  13.640  0.00  0.00    +0.000 NA
ATOM      3  C   UNL     1      46.624   5.510  12.947  0.00  0.00    +0.000 A 
ATOM      4  C   UNL     1      46.102   6.501  12.147  0.00  0.00    +0.000 A 
ATOM      5  C   UNL     1      46.882   7.627  12.008  0.00  0.00    +0.000 A 
ATOM      6  N   UNL     1      48.046   7.821  12.656  0.00  0.00    +0.000 NA
ENDROOT
BRANCH   1   8
ATOM      7  N   UNL     1      50.631   7.815  13.786  0.00  0.00    +0.000 N 
ATOM      8  C   UNL     1      49.637   7.043  14.346  0.00  0.00    +0.000 C 
ATOM      9  O   UNL     1      49.770   6.571  15.466  0.00  0.00    +0.000 OA
ATOM     10  H   UNL     1      51.484   7.969  14.304  0.00  0.00    +0.000 HD
ATOM     11  H   UNL     1      50.519   8.182  12.849  0.00  0.00    +0.000 HD
ENDBRANCH   1   8
BRANCH   4  12
ATOM     12  O   UNL     1      44.910   6.450  11.500  0.00  0.00    +0.000 OA
BRANCH  12  13
ATOM     13  C   UNL     1      44.270   5.153  11.345  0.00  0.00    +0.000 C 
ATOM     14  C   UNL     1      42.750   5.273  11.450  0.00  0.00    +0.000 C 
ATOM     15  C   UNL     1      43.496   4.494  12.478  0.00  0.00    +0.000 C 
BRANCH  13  16
ATOM     16  C   UNL     1      44.819   4.282  10.230  0.00  0.00    +0.000 A 
ATOM     17  C   UNL     1      44.672   2.884  10.237  0.00  0.00    +0.000 A 
ATOM     18  C   UNL     1      45.083   2.101   9.155  0.00  0.00    +0.000 A 
ATOM     19  C   UNL     1      45.677   2.702   8.050  0.00  0.00    +0.000 A 
ATOM     20  C   UNL     1      45.883   4.078   8.038  0.00  0.00    +0.000 A 
ATOM     21  C   UNL     1      45.463   4.856   9.119  0.00  0.00    +0.000 A 
ENDBRANCH  13  16
ENDBRANCH  12  13
ENDBRANCH   4  12
TORSDOF 4
ENDMDL
MODEL 4
REMARK VINA RESULT:    -5.858      4.410      6.883
REMARK INTER + INTRA:          -7.620
REMARK INTER:                  -7.211
REMARK INTRA:                  -0.409
REMARK UNBOUND:                -0.393
REMARK  Name = 
REMARK  4 active torsions:
REMARK  status: ('A' for Active; 'I' for Inactive)
REMARK    1  A    between atoms: C_2  and  C_4
REMARK    2  A    between atoms: C_7  and  O_8
REMARK    3  A    between atoms: O_8  and  C_9
REMARK    4  A    between atoms: C_9  and  C_10
REMARK                            x       y       z     vdW  Elec       q    Type
REMARK                         _______ _______ _______ _____ _____    ______ ____
ROOT
ATOM      1  C   UNL     1      47.825   4.436  16.026  0.00  0.00    +0.000 A 
ATOM      2  N   UNL     1      47.184   3.790  15.016  0.00  0.00    +0.000 NA
ATOM      3  C   UNL     1      47.122   4.463  13.848  0.00  0.00    +0.000 A 
ATOM      4  C   UNL     1      47.625   5.733  13.675  0.00  0.00    +0.000 A 
ATOM      5  C   UNL     1      48.298   6.260  14.755  0.00  0.00    +0.000 A 
ATOM      6  N   UNL     1      48.412   5.643  15.945  0.00  0.00    +0.000 NA
ENDROOT
BRANCH   1   8
ATOM      7  N   UNL     1      46.770   2.835  17.533  0.00  0.00    +0.000 N 
ATOM      8  C   UNL     1      47.773   3.765  17.380  0.00  0.00    +0.000 C 
ATOM      9  O   UNL     1      48.534   4.019  18.304  0.00  0.00    +0.000 OA
ATOM     10  H   UNL     1      46.653   2.380  18.427  0.00  0.00    +0.000 HD
ATOM     11  H   UNL     1      46.132   2.649  16.768  0.00  0.00    +0.000 HD
ENDBRANCH   1   8
BRANCH   4  12
ATOM     12  O   UNL     1      47.512   6.482  12.548  0.00  0.00    +0.000 OA
BRANCH  12  13
ATOM     13  C   UNL     1      46.191   6.960  12.174  0.00  0.00    +0.000 C 
ATOM     14  C   UNL     1      46.241   8.419  11.723  0.00  0.00    +0.000 C 
ATOM     15  C   UNL     1      45.479   8.058  12.952  0.00  0.00    +0.000 C 
BRANCH  13  16
ATOM     16  C   UNL     1      45.364   6.005  11.332  0.00  0.00    +0.000 A 
ATOM     17  C   UNL     1      45.809   5.538  10.083  0.00  0.00    +0.000 A 
ATOM     18  C   UNL     1      45.093   4.576   9.367  0.00  0.00    +0.000 A 
ATOM     19  C   UNL     1      43.898   4.079   9.875  0.00  0.00    +0.000 A 
ATOM     20  C   UNL     1      43.406   4.562  11.084  0.00  0.00    +0.000 A 
ATOM     21  C   UNL     1      44.130   5.518  11.799  0.00  0.00    +0.000 A 
ENDBRANCH  13  16
ENDBRANCH  12  13
ENDBRANCH   4  12
TORSDOF 4
ENDMDL
MODEL 5
REMARK VINA RESULT:    -5.333      3.903      6.273
REMARK INTER + INTRA:          -6.973
REMARK INTER:                  -6.650
REMARK INTRA:                  -0.323
REMARK UNBOUND:                -0.393
REMARK  Name = 
REMARK  4 active torsions:
REMARK  status: ('A' for Active; 'I' for Inactive)
REMARK    1  A    between atoms: C_2  and  C_4
REMARK    2  A    between atoms: C_7  and  O_8
REMARK    3  A    between atoms: O_8  and  C_9
REMARK    4  A    between atoms: C_9  and  C_10
REMARK                            x       y       z     vdW  Elec       q    Type
REMARK                         _______ _______ _______ _____ _____    ______ ____
ROOT
ATOM      1  C   UNL     1      45.039   4.619  12.567  0.00  0.00    +0.000 A 
ATOM      2  N   UNL     1      45.712   4.163  13.656  0.00  0.00    +0.000 NA
ATOM      3  C   UNL     1      46.922   4.725  13.864  0.00  0.00    +0.000 A 
ATOM      4  C   UNL     1      47.478   5.664  13.025  0.00  0.00    +0.000 A 
ATOM      5  C   UNL     1      46.677   6.083  11.986  0.00  0.00    +0.000 A 
ATOM      6  N   UNL     1      45.457   5.579  11.725  0.00  0.00    +0.000 NA
ENDROOT
BRANCH   1   8
ATOM      7  N   UNL     1      43.749   2.549  12.518  0.00  0.00    +0.000 N 
ATOM      8  C   UNL     1      43.753   3.896  12.233  0.00  0.00    +0.000 C 
ATOM      9  O   UNL     1      42.777   4.429  11.725  0.00  0.00    +0.000 OA
ATOM     10  H   UNL     1      42.937   1.999  12.280  0.00  0.00    +0.000 HD
ATOM     11  H   UNL     1      44.572   2.115  12.918  0.00  0.00    +0.000 HD
ENDBRANCH   1   8
BRANCH   4  12
ATOM     12  O   UNL     1      48.722   6.194  13.144  0.00  0.00    +0.000 OA
BRANCH  12  13
ATOM     13  C   UNL     1      48.859   7.474  13.822  0.00  0.00    +0.000 C 
ATOM     14  C   UNL     1      49.984   7.432  14.854  0.00  0.00    +0.000 C 
ATOM     15  C   UNL     1      48.580   7.634  15.309  0.00  0.00    +0.000 C 
BRANCH  13  16
ATOM     16  C   UNL     1      48.787   8.698  12.927  0.00  0.00    +0.000 A 
ATOM     17  C   UNL     1      49.806   9.009  12.009  0.00  0.00    +0.000 A 
ATOM     18  C   UNL     1      49.681  10.074  11.114  0.00  0.00    +0.000 A 
ATOM     19  C   UNL     1      48.541  10.871  11.138  0.00  0.00    +0.000 A 
ATOM     20  C   UNL     1      47.540  10.619  12.071  0.00  0.00    +0.000 A 
ATOM     21  C   UNL     1      47.667   9.547  12.958  0.00  0.00    +0.000 A 
ENDBRANCH  13  16
ENDBRANCH  12  13
ENDBRANCH   4  12
TORSDOF 4
ENDMDL
MODEL 6
REMARK VINA RESULT:    -5.316      3.222      5.151
REMARK INTER + INTRA:          -6.952
REMARK INTER:                  -6.707
REMARK INTRA:                  -0.245
REMARK UNBOUND:                -0.393
REMARK  Name = 
REMARK  4 active torsions:
REMARK  status: ('A' for Active; 'I' for Inactive)
REMARK    1  A    between atoms: C_2  and  C_4
REMARK    2  A    between atoms: C_7  and  O_8
REMARK    3  A    between atoms: O_8  and  C_9
REMARK    4  A    between atoms: C_9  and  C_10
REMARK                            x       y       z     vdW  Elec       q    Type
REMARK                         _______ _______ _______ _____ _____    ______ ____
ROOT
ATOM      1  C   UNL     1      44.751   4.142  11.510  0.00  0.00    +0.000 A 
ATOM      2  N   UNL     1      44.838   5.129  10.580  0.00  0.00    +0.000 NA
ATOM      3  C   UNL     1      45.380   6.286  11.015  0.00  0.00    +0.000 A 
ATOM      4  C   UNL     1      45.786   6.494  12.314  0.00  0.00    +0.000 A 
ATOM      5  C   UNL     1      45.698   5.402  13.148  0.00  0.00    +0.000 A 
ATOM      6  N   UNL     1      45.181   4.214  12.782  0.00  0.00    +0.000 NA
ENDROOT
BRANCH   1   8
ATOM      7  N   UNL     1      44.539   2.248   9.988  0.00  0.00    +0.000 N 
ATOM      8  C   UNL     1      44.011   2.893  11.084  0.00  0.00    +0.000 C 
ATOM      9  O   UNL     1      43.003   2.470  11.633  0.00  0.00    +0.000 OA
ATOM     10  H   UNL     1      44.068   1.431   9.626  0.00  0.00    +0.000 HD
ATOM     11  H   UNL     1      45.361   2.620   9.529  0.00  0.00    +0.000 HD
ENDBRANCH   1   8
BRANCH   4  12
ATOM     12  O   UNL     1      46.257   7.663  12.818  0.00  0.00    +0.000 OA
BRANCH  12  13
ATOM     13  C   UNL     1      47.696   7.809  12.979  0.00  0.00    +0.000 C 
ATOM     14  C   UNL     1      48.258   8.841  12.004  0.00  0.00    +0.000 C 
ATOM     15  C   UNL     1      48.676   7.416  11.883  0.00  0.00    +0.000 C 
BRANCH  13  16
ATOM     16  C   UNL     1      48.189   7.873  14.413  0.00  0.00    +0.000 A 
ATOM     17  C   UNL     1      48.044   9.030  15.199  0.00  0.00    +0.000 A 
ATOM     18  C   UNL     1      48.401   9.045  16.549  0.00  0.00    +0.000 A 
ATOM     19  C   UNL     1      48.939   7.905  17.138  0.00  0.00    +0.000 A 
ATOM     20  C   UNL     1      49.143   6.762  16.371  0.00  0.00    +0.000 A 
ATOM     21  C   UNL     1      48.776   6.750  15.024  0.00  0.00    +0.000 A 
ENDBRANCH  13  16
ENDBRANCH  12  13
ENDBRANCH   4  12
TORSDOF 4
ENDMDL
MODEL 7
REMARK VINA RESULT:    -4.929      2.439      3.783
REMARK INTER + INTRA:          -6.475
REMARK INTER:                  -6.501
REMARK INTRA:                   0.027
REMARK UNBOUND:                -0.393
REMARK  Name = 
REMARK  4 active torsions:
REMARK  status: ('A' for Active; 'I' for Inactive)
REMARK    1  A    between atoms: C_2  and  C_4
REMARK    2  A    between atoms: C_7  and  O_8
REMARK    3  A    between atoms: O_8  and  C_9
REMARK    4  A    between atoms: C_9  and  C_10
REMARK                            x       y       z     vdW  Elec       q    Type
REMARK                         _______ _______ _______ _____ _____    ______ ____
ROOT
ATOM      1  C   UNL     1      45.161   3.614  10.010  0.00  0.00    +0.000 A 
ATOM      2  N   UNL     1      44.938   3.193  11.283  0.00  0.00    +0.000 NA
ATOM      3  C   UNL     1      44.950   4.163  12.222  0.00  0.00    +0.000 A 
ATOM      4  C   UNL     1      45.208   5.487  11.943  0.00  0.00    +0.000 A 
ATOM      5  C   UNL     1      45.365   5.796  10.611  0.00  0.00    +0.000 A 
ATOM      6  N   UNL     1      45.353   4.886   9.620  0.00  0.00    +0.000 NA
ENDROOT
BRANCH   1   8
ATOM      7  N   UNL     1      44.535   1.405   9.188  0.00  0.00    +0.000 N 
ATOM      8  C   UNL     1      45.302   2.526   8.968  0.00  0.00    +0.000 C 
ATOM      9  O   UNL     1      46.049   2.592   8.002  0.00  0.00    +0.000 OA
ATOM     10  H   UNL     1      44.613   0.623   8.553  0.00  0.00    +0.000 HD
ATOM     11  H   UNL     1      43.937   1.353  10.005  0.00  0.00    +0.000 HD
ENDBRANCH   1   8
BRANCH   4  12
ATOM     12  O   UNL     1      45.314   6.482  12.861  0.00  0.00    +0.000 OA
BRANCH  12  13
ATOM     13  C   UNL     1      45.999   7.703  12.470  0.00  0.00    +0.000 C 
ATOM     14  C   UNL     1      45.274   8.937  13.006  0.00  0.00    +0.000 C 
ATOM     15  C   UNL     1      45.364   8.722  11.534  0.00  0.00    +0.000 C 
BRANCH  13  16
ATOM     16  C   UNL     1      47.511   7.677  12.606  0.00  0.00    +0.000 A 
ATOM     17  C   UNL     1      48.358   8.097  11.566  0.00  0.00    +0.000 A 
ATOM     18  C   UNL     1      49.743   8.172  11.738  0.00  0.00    +0.000 A 
ATOM     19  C   UNL     1      50.312   7.803  12.952  0.00  0.00    +0.000 A 
ATOM     20  C   UNL     1      49.502   7.334  13.982  0.00  0.00    +0.000 A 
ATOM     21  C   UNL     1      48.119   7.268  13.806  0.00  0.00    +0.000 A 
ENDBRANCH  13  16
ENDBRANCH  12  13
ENDBRANCH   4  12
TORSDOF 4
ENDMDL
