MODEL 1
REMARK VINA RESULT:    -7.827      0.000      0.000
REMARK INTER + INTRA:         -11.523
REMARK INTER:                 -10.572
REMARK INTRA:                  -0.951
REMARK UNBOUND:                -0.951
REMARK  Name = 
REMARK  6 active torsions:
REMARK  status: ('A' for Active; 'I' for Inactive)
REMARK    1  A    between atoms: C_2  and  C_19
REMARK    2  A    between atoms: N_3  and  C_4
REMARK    3  A    between atoms: C_4  and  C_5
REMARK    4  A    between atoms: C_8  and  O_9
REMARK    5  A    between atoms: O_9  and  C_10
REMARK    6  A    between atoms: C_10  and  C_11
REMARK                            x       y       z     vdW  Elec       q    Type
REMARK                         _______ _______ _______ _____ _____    ______ ____
ROOT
ATOM      1  O   UNL     1      48.383   8.186  16.169  0.00  0.00    +0.000 OA
ATOM      2  C   UNL     1      48.589   6.996  15.966  0.00  0.00    +0.000 C 
ATOM      3  N   UNL     1      48.196   6.321  14.832  0.00  0.00    +0.000 N 
ATOM      4  H   UNL     1      48.595   5.407  14.673  0.00  0.00    +0.000 HD
ENDROOT
BRANCH   2   5
ATOM      5  C   UNL     1      49.476   6.178  16.782  0.00  0.00    +0.000 A 
ATOM      6  C   UNL     1      50.686   6.636  17.271  0.00  0.00    +0.000 A 
ATOM      7  S   UNL     1      51.740   5.334  17.651  0.00  0.00    +0.000 S 
ATOM      8  C   UNL     1      50.534   4.178  17.301  0.00  0.00    +0.000 A 
ATOM      9  N   UNL     1      50.783   2.843  17.254  0.00  0.00    +0.000 NA
ATOM     10  C   UNL     1      49.738   2.117  17.024  0.00  0.00    +0.000 A 
ATOM     11  N   UNL     1      48.456   2.597  16.890  0.00  0.00    +0.000 N 
ATOM     12  C   UNL     1      48.153   3.936  16.944  0.00  0.00    +0.000 A 
ATOM     13  O   UNL     1      47.003   4.350  16.892  0.00  0.00    +0.000 OA
ATOM     14  C   UNL     1      49.321   4.784  17.063  0.00  0.00    +0.000 A 
ATOM     15  H   UNL     1      47.671   1.968  16.799  0.00  0.00    +0.000 HD
ENDBRANCH   2   5
BRANCH   3  16
ATOM     16  C   UNL     1      47.707   7.004  13.669  0.00  0.00    +0.000 C 
BRANCH  16  17
ATOM     17  C   UNL     1      46.792   6.104  12.891  0.00  0.00    +0.000 A 
ATOM     18  C   UNL     1      46.419   4.838  13.359  0.00  0.00    +0.000 A 
ATOM     19  C   UNL     1      45.568   4.041  12.595  0.00  0.00    +0.000 A 
ATOM     20  C   UNL     1      45.123   4.537  11.382  0.00  0.00    +0.000 A 
ATOM     21  N   UNL     1      45.422   5.770  10.925  0.00  0.00    +0.000 NA
ATOM     22  C   UNL     1      46.234   6.529  11.693  0.00  0.00    +0.000 A 
BRANCH  20  23
ATOM     23  O   UNL     1      44.315   3.714  10.623  0.00  0.00    +0.000 OA
BRANCH  23  24
ATOM     24  C   UNL     1      44.401   4.040   9.231  0.00  0.00    +0.000 C 
BRANCH  24  25
ATOM     25  C   UNL     1      45.368   3.152   8.506  0.00  0.00    +0.000 A 
ATOM     26  C   UNL     1      46.303   3.586   7.588  0.00  0.00    +0.000 A 
ATOM     27  N   UNL     1      47.193   2.774   6.981  0.00  0.00    +0.000 NA
ATOM     28  C   UNL     1      47.131   1.479   7.324  0.00  0.00    +0.000 A 
ATOM     29  N   UNL     1      46.266   0.935   8.188  0.00  0.00    +0.000 NA
ATOM     30  C   UNL     1      45.405   1.798   8.769  0.00  0.00    +0.000 A 
ENDBRANCH  24  25
ENDBRANCH  23  24
ENDBRANCH  20  23
ENDBRANCH  16  17
ENDBRANCH   3  16
TORSDOF 6
ENDMDL
MODEL 2
REMARK VINA RESULT:    -7.428      2.034      2.674
REMARK INTER + INTRA:         -10.984
REMARK INTER:                 -10.095
REMARK INTRA:                  -0.889
REMARK UNBOUND:                -0.951
REMARK  Name = 
REMARK  6 active torsions:
REMARK  status: ('A' for Active; 'I' for Inactive)
REMARK    1  A    between atoms: C_2  and  C_19
REMARK    2  A    between atoms: N_3  and  C_4
REMARK    3  A    between atoms: C_4  and  C_5
REMARK    4  A    between atoms: C_8  and  O_9
REMARK    5  A    between atoms: O_9  and  C_10
REMARK    6  A    between atoms: C_10  and  C_11
REMARK                            x       y       z     vdW  Elec       q    Type
REMARK                         _______ _______ _______ _____ _____    ______ ____
ROOT
ATOM      1  O   UNL     1      50.063   7.000  15.140  0.00  0.00    +0.000 OA
ATOM      2  C   UNL     1      48.956   6.638  15.518  0.00  0.00    +0.000 C 
ATOM      3  N   UNL     1      47.805   6.745  14.770  0.00  0.00    +0.000 N 
ATOM      4  H   UNL     1      46.995   6.231  15.085  0.00  0.00    +0.000 HD
ENDROOT
BRANCH   2   5
ATOM      5  C   UNL     1      48.731   5.836  16.713  0.00  0.00    +0.000 A 
ATOM      6  C   UNL     1      48.389   4.497  16.667  0.00  0.00    +0.000 A 
ATOM      7  S   UNL     1      47.622   3.997  18.120  0.00  0.00    +0.000 S 
ATOM      8  C   UNL     1      47.880   5.518  18.848  0.00  0.00    +0.000 A 
ATOM      9  N   UNL     1      47.338   5.864  20.046  0.00  0.00    +0.000 NA
ATOM     10  C   UNL     1      47.683   7.038  20.464  0.00  0.00    +0.000 A 
ATOM     11  N   UNL     1      48.563   7.878  19.823  0.00  0.00    +0.000 N 
ATOM     12  C   UNL     1      49.147   7.567  18.619  0.00  0.00    +0.000 A 
ATOM     13  O   UNL     1      49.979   8.289  18.089  0.00  0.00    +0.000 OA
ATOM     14  C   UNL     1      48.673   6.319  18.058  0.00  0.00    +0.000 A 
ATOM     15  H   UNL     1      48.858   8.745  20.248  0.00  0.00    +0.000 HD
ENDBRANCH   2   5
BRANCH   3  16
ATOM     16  C   UNL     1      47.832   7.082  13.375  0.00  0.00    +0.000 C 
BRANCH  16  17
ATOM     17  C   UNL     1      46.876   6.207  12.617  0.00  0.00    +0.000 A 
ATOM     18  C   UNL     1      46.354   5.028  13.162  0.00  0.00    +0.000 A 
ATOM     19  C   UNL     1      45.470   4.252  12.414  0.00  0.00    +0.000 A 
ATOM     20  C   UNL     1      45.145   4.679  11.138  0.00  0.00    +0.000 A 
ATOM     21  N   UNL     1      45.589   5.834  10.601  0.00  0.00    +0.000 NA
ATOM     22  C   UNL     1      46.430   6.577  11.355  0.00  0.00    +0.000 A 
BRANCH  20  23
ATOM     23  O   UNL     1      44.301   3.873  10.399  0.00  0.00    +0.000 OA
BRANCH  23  24
ATOM     24  C   UNL     1      44.440   4.123   8.996  0.00  0.00    +0.000 C 
BRANCH  24  25
ATOM     25  C   UNL     1      45.401   3.171   8.349  0.00  0.00    +0.000 A 
ATOM     26  C   UNL     1      46.326   3.517   7.385  0.00  0.00    +0.000 A 
ATOM     27  N   UNL     1      47.211   2.651   6.849  0.00  0.00    +0.000 NA
ATOM     28  C   UNL     1      47.156   1.395   7.315  0.00  0.00    +0.000 A 
ATOM     29  N   UNL     1      46.301   0.935   8.236  0.00  0.00    +0.000 NA
ATOM     30  C   UNL     1      45.444   1.848   8.741  0.00  0.00    +0.000 A 
ENDBRANCH  24  25
ENDBRANCH  23  24
ENDBRANCH  20  23
ENDBRANCH  16  17
ENDBRANCH   3  16
TORSDOF 6
ENDMDL
MODEL 3
REMARK VINA RESULT:    -7.359      1.514      1.648
REMARK INTER + INTRA:         -10.891
REMARK INTER:                 -10.157
REMARK INTRA:                  -0.735
REMARK UNBOUND:                -0.951
REMARK  Name = 
REMARK  6 active torsions:
REMARK  status: ('A' for Active; 'I' for Inactive)
REMARK    1  A    between atoms: C_2  and  C_19
REMARK    2  A    between atoms: N_3  and  C_4
REMARK    3  A    between atoms: C_4  and  C_5
REMARK    4  A    between atoms: C_8  and  O_9
REMARK    5  A    between atoms: O_9  and  C_10
REMARK    6  A    between atoms: C_10  and  C_11
REMARK                            x       y       z     vdW  Elec       q    Type
REMARK                         _______ _______ _______ _____ _____    ______ ____
ROOT
ATOM      1  O   UNL     1      50.257   6.951  15.198  0.00  0.00    +0.000 OA
ATOM      2  C   UNL     1      49.068   6.938  15.486  0.00  0.00    +0.000 C 
ATOM      3  N   UNL     1      48.044   6.942  14.566  0.00  0.00    +0.000 N 
ATOM      4  H   UNL     1      47.117   6.719  14.899  0.00  0.00    +0.000 HD
ENDROOT
BRANCH   2   5
ATOM      5  C   UNL     1      48.564   6.684  16.829  0.00  0.00    +0.000 A 
ATOM      6  C   UNL     1      48.401   7.681  17.773  0.00  0.00    +0.000 A 
ATOM      7  S   UNL     1      48.383   7.036  19.366  0.00  0.00    +0.000 S 
ATOM      8  C   UNL     1      48.446   5.435  18.781  0.00  0.00    +0.000 A 
ATOM      9  N   UNL     1      48.622   4.359  19.594  0.00  0.00    +0.000 NA
ATOM     10  C   UNL     1      48.593   3.221  18.980  0.00  0.00    +0.000 A 
ATOM     11  N   UNL     1      48.351   3.054  17.637  0.00  0.00    +0.000 N 
ATOM     12  C   UNL     1      48.153   4.109  16.779  0.00  0.00    +0.000 A 
ATOM     13  O   UNL     1      47.872   3.949  15.600  0.00  0.00    +0.000 OA
ATOM     14  C   UNL     1      48.317   5.401  17.411  0.00  0.00    +0.000 A 
ATOM     15  H   UNL     1      48.255   2.132  17.236  0.00  0.00    +0.000 HD
ENDBRANCH   2   5
BRANCH   3  16
ATOM     16  C   UNL     1      48.276   6.729  13.166  0.00  0.00    +0.000 C 
BRANCH  16  17
ATOM     17  C   UNL     1      47.066   6.108  12.533  0.00  0.00    +0.000 A 
ATOM     18  C   UNL     1      46.530   4.895  12.982  0.00  0.00    +0.000 A 
ATOM     19  C   UNL     1      45.404   4.361  12.357  0.00  0.00    +0.000 A 
ATOM     20  C   UNL     1      44.857   5.058  11.294  0.00  0.00    +0.000 A 
ATOM     21  N   UNL     1      45.316   6.252  10.867  0.00  0.00    +0.000 NA
ATOM     22  C   UNL     1      46.398   6.756  11.502  0.00  0.00    +0.000 A 
BRANCH  20  23
ATOM     23  O   UNL     1      43.767   4.490  10.662  0.00  0.00    +0.000 OA
BRANCH  23  24
ATOM     24  C   UNL     1      44.012   3.117  10.336  0.00  0.00    +0.000 C 
BRANCH  24  25
ATOM     25  C   UNL     1      44.899   2.975   9.136  0.00  0.00    +0.000 A 
ATOM     26  C   UNL     1      45.161   3.978   8.224  0.00  0.00    +0.000 A 
ATOM     27  N   UNL     1      45.998   3.840   7.175  0.00  0.00    +0.000 NA
ATOM     28  C   UNL     1      46.592   2.643   7.054  0.00  0.00    +0.000 A 
ATOM     29  N   UNL     1      46.413   1.592   7.862  0.00  0.00    +0.000 NA
ATOM     30  C   UNL     1      45.569   1.792   8.898  0.00  0.00    +0.000 A 
ENDBRANCH  24  25
ENDBRANCH  23  24
ENDBRANCH  20  23
ENDBRANCH  16  17
ENDBRANCH   3  16
TORSDOF 6
ENDMDL
MODEL 4
REMARK VINA RESULT:    -7.319      3.106      7.951
REMARK INTER + INTRA:         -10.838
REMARK INTER:                  -9.832
REMARK INTRA:                  -1.006
REMARK UNBOUND:                -0.951
REMARK  Name = 
REMARK  6 active torsions:
REMARK  status: ('A' for Active; 'I' for Inactive)
REMARK    1  A    between atoms: C_2  and  C_19
REMARK    2  A    between atoms: N_3  and  C_4
REMARK    3  A    between atoms: C_4  and  C_5
REMARK    4  A    between atoms: C_8  and  O_9
REMARK    5  A    between atoms: O_9  and  C_10
REMARK    6  A    between atoms: C_10  and  C_11
REMARK                            x       y       z     vdW  Elec       q    Type
REMARK                         _______ _______ _______ _____ _____    ______ ____
ROOT
ATOM      1  O   UNL     1      44.637   7.810  11.385  0.00  0.00    +0.000 OA
ATOM      2  C   UNL     1      45.599   7.060  11.275  0.00  0.00    +0.000 C 
ATOM      3  N   UNL     1      46.823   7.274  11.868  0.00  0.00    +0.000 N 
ATOM      4  H   UNL     1      47.472   6.501  11.889  0.00  0.00    +0.000 HD
ENDROOT
BRANCH   2   5
ATOM      5  C   UNL     1      45.524   5.726  10.698  0.00  0.00    +0.000 A 
ATOM      6  C   UNL     1      45.844   5.457   9.379  0.00  0.00    +0.000 A 
ATOM      7  S   UNL     1      45.109   4.000   8.842  0.00  0.00    +0.000 S 
ATOM      8  C   UNL     1      44.495   3.667  10.398  0.00  0.00    +0.000 A 
ATOM      9  N   UNL     1      43.625   2.653  10.647  0.00  0.00    +0.000 NA
ATOM     10  C   UNL     1      43.307   2.521  11.893  0.00  0.00    +0.000 A 
ATOM     11  N   UNL     1      43.820   3.273  12.924  0.00  0.00    +0.000 N 
ATOM     12  C   UNL     1      44.713   4.299  12.724  0.00  0.00    +0.000 A 
ATOM     13  O   UNL     1      45.215   4.918  13.651  0.00  0.00    +0.000 OA
ATOM     14  C   UNL     1      44.981   4.561  11.325  0.00  0.00    +0.000 A 
ATOM     15  H   UNL     1      43.597   3.061  13.885  0.00  0.00    +0.000 HD
ENDBRANCH   2   5
BRANCH   3  16
ATOM     16  C   UNL     1      47.020   8.286  12.867  0.00  0.00    +0.000 C 
BRANCH  16  17
ATOM     17  C   UNL     1      47.804   7.726  14.018  0.00  0.00    +0.000 A 
ATOM     18  C   UNL     1      48.330   8.542  15.027  0.00  0.00    +0.000 A 
ATOM     19  C   UNL     1      49.052   7.971  16.073  0.00  0.00    +0.000 A 
ATOM     20  C   UNL     1      49.231   6.599  16.070  0.00  0.00    +0.000 A 
ATOM     21  N   UNL     1      48.697   5.778  15.142  0.00  0.00    +0.000 NA
ATOM     22  C   UNL     1      47.986   6.356  14.148  0.00  0.00    +0.000 A 
BRANCH  20  23
ATOM     23  O   UNL     1      49.985   6.059  17.093  0.00  0.00    +0.000 OA
BRANCH  23  24
ATOM     24  C   UNL     1      49.351   4.903  17.653  0.00  0.00    +0.000 C 
BRANCH  24  25
ATOM     25  C   UNL     1      50.247   3.702  17.624  0.00  0.00    +0.000 A 
ATOM     26  C   UNL     1      49.865   2.442  17.209  0.00  0.00    +0.000 A 
ATOM     27  N   UNL     1      50.701   1.385  17.149  0.00  0.00    +0.000 NA
ATOM     28  C   UNL     1      51.969   1.620  17.519  0.00  0.00    +0.000 A 
ATOM     29  N   UNL     1      52.457   2.790  17.949  0.00  0.00    +0.000 NA
ATOM     30  C   UNL     1      51.575   3.812  17.981  0.00  0.00    +0.000 A 
ENDBRANCH  24  25
ENDBRANCH  23  24
ENDBRANCH  20  23
ENDBRANCH  16  17
ENDBRANCH   3  16
TORSDOF 6
ENDMDL
MODEL 5
REMARK VINA RESULT:    -7.311      2.690      8.295
REMARK INTER + INTRA:         -10.826
REMARK INTER:                  -9.957
REMARK INTRA:                  -0.870
REMARK UNBOUND:                -0.951
REMARK  Name = 
REMARK  6 active torsions:
REMARK  status: ('A' for Active; 'I' for Inactive)
REMARK    1  A    between atoms: C_2  and  C_19
REMARK    2  A    between atoms: N_3  and  C_4
REMARK    3  A    between atoms: C_4  and  C_5
REMARK    4  A    between atoms: C_8  and  O_9
REMARK    5  A    between atoms: O_9  and  C_10
REMARK    6  A    between atoms: C_10  and  C_11
REMARK                            x       y       z     vdW  Elec       q    Type
REMARK                         _______ _______ _______ _____ _____    ______ ____
ROOT
ATOM      1  O   UNL     1      45.263   7.812  11.337  0.00  0.00    +0.000 OA
ATOM      2  C   UNL     1      45.582   6.630  11.313  0.00  0.00    +0.000 C 
ATOM      3  N   UNL     1      46.800   6.145  11.733  0.00  0.00    +0.000 N 
ATOM      4  H   UNL     1      46.883   5.148  11.869  0.00  0.00    +0.000 HD
ENDROOT
BRANCH   2   5
ATOM      5  C   UNL     1      44.646   5.544  11.058  0.00  0.00    +0.000 A 
ATOM      6  C   UNL     1      43.555   5.284  11.868  0.00  0.00    +0.000 A 
ATOM      7  S   UNL     1      43.018   3.662  11.691  0.00  0.00    +0.000 S 
ATOM      8  C   UNL     1      44.142   3.364  10.442  0.00  0.00    +0.000 A 
ATOM      9  N   UNL     1      44.358   2.126   9.924  0.00  0.00    +0.000 NA
ATOM     10  C   UNL     1      45.209   2.100   8.950  0.00  0.00    +0.000 A 
ATOM     11  N   UNL     1      45.825   3.205   8.409  0.00  0.00    +0.000 N 
ATOM     12  C   UNL     1      45.627   4.477   8.890  0.00  0.00    +0.000 A 
ATOM     13  O   UNL     1      46.125   5.461   8.362  0.00  0.00    +0.000 OA
ATOM     14  C   UNL     1      44.786   4.521  10.068  0.00  0.00    +0.000 A 
ATOM     15  H   UNL     1      46.412   3.125   7.593  0.00  0.00    +0.000 HD
ENDBRANCH   2   5
BRANCH   3  16
ATOM     16  C   UNL     1      47.735   6.957  12.459  0.00  0.00    +0.000 C 
BRANCH  16  17
ATOM     17  C   UNL     1      47.960   6.384  13.827  0.00  0.00    +0.000 A 
ATOM     18  C   UNL     1      48.726   7.046  14.795  0.00  0.00    +0.000 A 
ATOM     19  C   UNL     1      48.905   6.467  16.050  0.00  0.00    +0.000 A 
ATOM     20  C   UNL     1      48.318   5.238  16.292  0.00  0.00    +0.000 A 
ATOM     21  N   UNL     1      47.534   4.596  15.401  0.00  0.00    +0.000 NA
ATOM     22  C   UNL     1      47.362   5.187  14.198  0.00  0.00    +0.000 A 
BRANCH  20  23
ATOM     23  O   UNL     1      48.543   4.663  17.528  0.00  0.00    +0.000 OA
BRANCH  23  24
ATOM     24  C   UNL     1      49.911   4.808  17.927  0.00  0.00    +0.000 C 
BRANCH  24  25
ATOM     25  C   UNL     1      50.678   3.528  17.778  0.00  0.00    +0.000 A 
ATOM     26  C   UNL     1      50.171   2.363  17.239  0.00  0.00    +0.000 A 
ATOM     27  N   UNL     1      50.894   1.236  17.074  0.00  0.00    +0.000 NA
ATOM     28  C   UNL     1      52.175   1.300  17.465  0.00  0.00    +0.000 A 
ATOM     29  N   UNL     1      52.778   2.363  18.009  0.00  0.00    +0.000 NA
ATOM     30  C   UNL     1      52.007   3.464  18.143  0.00  0.00    +0.000 A 
ENDBRANCH  24  25
ENDBRANCH  23  24
ENDBRANCH  20  23
ENDBRANCH  16  17
ENDBRANCH   3  16
TORSDOF 6
ENDMDL
MODEL 6
REMARK VINA RESULT:    -7.211      2.526      4.213
REMARK INTER + INTRA:         -10.692
REMARK INTER:                  -9.832
REMARK INTRA:                  -0.860
REMARK UNBOUND:                -0.951
REMARK  Name = 
REMARK  6 active torsions:
REMARK  status: ('A' for Active; 'I' for Inactive)
REMARK    1  A    between atoms: C_2  and  C_19
REMARK    2  A    between atoms: N_3  and  C_4
REMARK    3  A    between atoms: C_4  and  C_5
REMARK    4  A    between atoms: C_8  and  O_9
REMARK    5  A    between atoms: O_9  and  C_10
REMARK    6  A    between atoms: C_10  and  C_11
REMARK                            x       y       z     vdW  Elec       q    Type
REMARK                         _______ _______ _______ _____ _____    ______ ____
ROOT
ATOM      1  O   UNL     1      48.735   5.432  16.114  0.00  0.00    +0.000 OA
ATOM      2  C   UNL     1      48.460   6.258  15.253  0.00  0.00    +0.000 C 
ATOM      3  N   UNL     1      47.494   6.084  14.287  0.00  0.00    +0.000 N 
ATOM      4  H   UNL     1      47.204   6.898  13.766  0.00  0.00    +0.000 HD
ENDROOT
BRANCH   2   5
ATOM      5  C   UNL     1      48.947   7.631  15.263  0.00  0.00    +0.000 A 
ATOM      6  C   UNL     1      49.197   8.332  16.429  0.00  0.00    +0.000 A 
ATOM      7  S   UNL     1      49.167  10.028  16.157  0.00  0.00    +0.000 S 
ATOM      8  C   UNL     1      48.967   9.814  14.476  0.00  0.00    +0.000 A 
ATOM      9  N   UNL     1      48.704  10.842  13.627  0.00  0.00    +0.000 NA
ATOM     10  C   UNL     1      48.634  10.498  12.383  0.00  0.00    +0.000 A 
ATOM     11  N   UNL     1      48.855   9.229  11.900  0.00  0.00    +0.000 N 
ATOM     12  C   UNL     1      49.138   8.161  12.717  0.00  0.00    +0.000 A 
ATOM     13  O   UNL     1      49.400   7.051  12.276  0.00  0.00    +0.000 OA
ATOM     14  C   UNL     1      49.087   8.488  14.127  0.00  0.00    +0.000 A 
ATOM     15  H   UNL     1      48.872   9.045  10.908  0.00  0.00    +0.000 HD
ENDBRANCH   2   5
BRANCH   3  16
ATOM     16  C   UNL     1      46.552   5.003  14.340  0.00  0.00    +0.000 C 
BRANCH  16  17
ATOM     17  C   UNL     1      45.989   4.745  12.972  0.00  0.00    +0.000 A 
ATOM     18  C   UNL     1      45.994   5.722  11.969  0.00  0.00    +0.000 A 
ATOM     19  C   UNL     1      45.457   5.430  10.716  0.00  0.00    +0.000 A 
ATOM     20  C   UNL     1      44.925   4.169  10.512  0.00  0.00    +0.000 A 
ATOM     21  N   UNL     1      44.948   3.189  11.438  0.00  0.00    +0.000 NA
ATOM     22  C   UNL     1      45.491   3.492  12.638  0.00  0.00    +0.000 A 
BRANCH  20  23
ATOM     23  O   UNL     1      44.360   3.916   9.277  0.00  0.00    +0.000 OA
BRANCH  23  24
ATOM     24  C   UNL     1      44.541   2.548   8.893  0.00  0.00    +0.000 C 
BRANCH  24  25
ATOM     25  C   UNL     1      45.760   2.360   8.041  0.00  0.00    +0.000 A 
ATOM     26  C   UNL     1      46.465   1.179   7.921  0.00  0.00    +0.000 A 
ATOM     27  N   UNL     1      47.534   1.022   7.112  0.00  0.00    +0.000 NA
ATOM     28  C   UNL     1      47.892   2.100   6.400  0.00  0.00    +0.000 A 
ATOM     29  N   UNL     1      47.300   3.299   6.437  0.00  0.00    +0.000 NA
ATOM     30  C   UNL     1      46.232   3.395   7.259  0.00  0.00    +0.000 A 
ENDBRANCH  24  25
ENDBRANCH  23  24
ENDBRANCH  20  23
ENDBRANCH  16  17
ENDBRANCH   3  16
TORSDOF 6
ENDMDL
MODEL 7
REMARK VINA RESULT:    -7.171      2.143      2.676
REMARK INTER + INTRA:         -10.638
REMARK INTER:                  -9.981
REMARK INTRA:                  -0.656
REMARK UNBOUND:                -0.951
REMARK  Name = 
REMARK  6 active torsions:
REMARK  status: ('A' for Active; 'I' for Inactive)
REMARK    1  A    between atoms: C_2  and  C_19
REMARK    2  A    between atoms: N_3  and  C_4
REMARK    3  A    between atoms: C_4  and  C_5
REMARK    4  A    between atoms: C_8  and  O_9
REMARK    5  A    between atoms: O_9  and  C_10
REMARK    6  A    between atoms: C_10  and  C_11
REMARK                            x       y       z     vdW  Elec       q    Type
REMARK                         _______ _______ _______ _____ _____    ______ ____
ROOT
ATOM      1  O   UNL     1      48.687   4.027  16.358  0.00  0.00    +0.000 OA
ATOM      2  C   UNL     1      48.275   5.144  16.076  0.00  0.00    +0.000 C 
ATOM      3  N   UNL     1      47.244   5.394  15.197  0.00  0.00    +0.000 N 
ATOM      4  H   UNL     1      46.848   6.323  15.197  0.00  0.00    +0.000 HD
ENDROOT
BRANCH   2   5
ATOM      5  C   UNL     1      48.654   6.352  16.794  0.00  0.00    +0.000 A 
ATOM      6  C   UNL     1      49.493   7.314  16.261  0.00  0.00    +0.000 A 
ATOM      7  S   UNL     1      50.219   8.264  17.494  0.00  0.00    +0.000 S 
ATOM      8  C   UNL     1      49.306   7.490  18.710  0.00  0.00    +0.000 A 
ATOM      9  N   UNL     1      49.526   7.687  20.036  0.00  0.00    +0.000 NA
ATOM     10  C   UNL     1      48.705   7.055  20.810  0.00  0.00    +0.000 A 
ATOM     11  N   UNL     1      47.648   6.286  20.381  0.00  0.00    +0.000 N 
ATOM     12  C   UNL     1      47.377   6.069  19.051  0.00  0.00    +0.000 A 
ATOM     13  O   UNL     1      46.397   5.440  18.677  0.00  0.00    +0.000 OA
ATOM     14  C   UNL     1      48.362   6.651  18.162  0.00  0.00    +0.000 A 
ATOM     15  H   UNL     1      46.992   5.890  21.037  0.00  0.00    +0.000 HD
ENDBRANCH   2   5
BRANCH   3  16
ATOM     16  C   UNL     1      46.396   4.349  14.701  0.00  0.00    +0.000 C 
BRANCH  16  17
ATOM     17  C   UNL     1      46.080   4.587  13.253  0.00  0.00    +0.000 A 
ATOM     18  C   UNL     1      45.186   3.776  12.543  0.00  0.00    +0.000 A 
ATOM     19  C   UNL     1      44.929   4.041  11.199  0.00  0.00    +0.000 A 
ATOM     20  C   UNL     1      45.586   5.106  10.607  0.00  0.00    +0.000 A 
ATOM     21  N   UNL     1      46.414   5.937  11.272  0.00  0.00    +0.000 NA
ATOM     22  C   UNL     1      46.631   5.668  12.579  0.00  0.00    +0.000 A 
BRANCH  20  23
ATOM     23  O   UNL     1      45.349   5.324   9.264  0.00  0.00    +0.000 OA
BRANCH  23  24
ATOM     24  C   UNL     1      44.707   4.196   8.658  0.00  0.00    +0.000 C 
BRANCH  24  25
ATOM     25  C   UNL     1      45.697   3.232   8.077  0.00  0.00    +0.000 A 
ATOM     26  C   UNL     1      46.704   3.570   7.195  0.00  0.00    +0.000 A 
ATOM     27  N   UNL     1      47.611   2.693   6.719  0.00  0.00    +0.000 NA
ATOM     28  C   UNL     1      47.492   1.432   7.160  0.00  0.00    +0.000 A 
ATOM     29  N   UNL     1      46.556   0.978   8.002  0.00  0.00    +0.000 NA
ATOM     30  C   UNL     1      45.680   1.904   8.450  0.00  0.00    +0.000 A 
ENDBRANCH  24  25
ENDBRANCH  23  24
ENDBRANCH  20  23
ENDBRANCH  16  17
ENDBRANCH   3  16
TORSDOF 6
ENDMDL
MODEL 8
REMARK VINA RESULT:    -6.605      1.914      2.554
REMARK INTER + INTRA:          -9.873
REMARK INTER:                  -9.184
REMARK INTRA:                  -0.689
REMARK UNBOUND:                -0.951
REMARK  Name = 
REMARK  6 active torsions:
REMARK  status: ('A' for Active; 'I' for Inactive)
REMARK    1  A    between atoms: C_2  and  C_19
REMARK    2  A    between atoms: N_3  and  C_4
REMARK    3  A    between atoms: C_4  and  C_5
REMARK    4  A    between atoms: C_8  and  O_9
REMARK    5  A    between atoms: O_9  and  C_10
REMARK    6  A    between atoms: C_10  and  C_11
REMARK                            x       y       z     vdW  Elec       q    Type
REMARK                         _______ _______ _______ _____ _____    ______ ____
ROOT
ATOM      1  O   UNL     1      48.594   7.685  16.607  0.00  0.00    +0.000 OA
ATOM      2  C   UNL     1      48.433   6.473  16.544  0.00  0.00    +0.000 C 
ATOM      3  N   UNL     1      48.057   5.796  15.405  0.00  0.00    +0.000 N 
ATOM      4  H   UNL     1      48.157   4.792  15.406  0.00  0.00    +0.000 HD
ENDROOT
BRANCH   2   5
ATOM      5  C   UNL     1      48.837   5.547  17.593  0.00  0.00    +0.000 A 
ATOM      6  C   UNL     1      47.931   4.858  18.379  0.00  0.00    +0.000 A 
ATOM      7  S   UNL     1      48.645   4.346  19.855  0.00  0.00    +0.000 S 
ATOM      8  C   UNL     1      50.181   4.915  19.377  0.00  0.00    +0.000 A 
ATOM      9  N   UNL     1      51.247   4.956  20.218  0.00  0.00    +0.000 NA
ATOM     10  C   UNL     1      52.342   5.370  19.667  0.00  0.00    +0.000 A 
ATOM     11  N   UNL     1      52.483   5.696  18.338  0.00  0.00    +0.000 N 
ATOM     12  C   UNL     1      51.438   5.656  17.446  0.00  0.00    +0.000 A 
ATOM     13  O   UNL     1      51.587   5.882  16.254  0.00  0.00    +0.000 OA
ATOM     14  C   UNL     1      50.170   5.330  18.064  0.00  0.00    +0.000 A 
ATOM     15  H   UNL     1      53.387   5.928  17.953  0.00  0.00    +0.000 HD
ENDBRANCH   2   5
BRANCH   3  16
ATOM     16  C   UNL     1      48.040   6.426  14.116  0.00  0.00    +0.000 C 
BRANCH  16  17
ATOM     17  C   UNL     1      46.906   5.886  13.294  0.00  0.00    +0.000 A 
ATOM     18  C   UNL     1      46.396   6.573  12.186  0.00  0.00    +0.000 A 
ATOM     19  C   UNL     1      45.340   6.026  11.458  0.00  0.00    +0.000 A 
ATOM     20  C   UNL     1      44.823   4.811  11.872  0.00  0.00    +0.000 A 
ATOM     21  N   UNL     1      45.321   4.099  12.904  0.00  0.00    +0.000 NA
ATOM     22  C   UNL     1      46.357   4.643  13.581  0.00  0.00    +0.000 A 
BRANCH  20  23
ATOM     23  O   UNL     1      43.749   4.309  11.162  0.00  0.00    +0.000 OA
BRANCH  23  24
ATOM     24  C   UNL     1      44.015   2.985  10.685  0.00  0.00    +0.000 C 
BRANCH  24  25
ATOM     25  C   UNL     1      44.800   2.996   9.408  0.00  0.00    +0.000 A 
ATOM     26  C   UNL     1      44.900   4.074   8.552  0.00  0.00    +0.000 A 
ATOM     27  N   UNL     1      45.649   4.075   7.430  0.00  0.00    +0.000 NA
ATOM     28  C   UNL     1      46.323   2.943   7.175  0.00  0.00    +0.000 A 
ATOM     29  N   UNL     1      46.300   1.831   7.918  0.00  0.00    +0.000 NA
ATOM     30  C   UNL     1      45.538   1.892   9.032  0.00  0.00    +0.000 A 
ENDBRANCH  24  25
ENDBRANCH  23  24
ENDBRANCH  20  23
ENDBRANCH  16  17
ENDBRANCH   3  16
TORSDOF 6
ENDMDL
MODEL 9
REMARK VINA RESULT:    -6.219      1.804      2.531
REMARK INTER + INTRA:          -9.351
REMARK INTER:                  -8.502
REMARK INTRA:                  -0.850
REMARK UNBOUND:                -0.951
REMARK  Name = 
REMARK  6 active torsions:
REMARK  status: ('A' for Active; 'I' for Inactive)
REMARK    1  A    between atoms: C_2  and  C_19
REMARK    2  A    between atoms: N_3  and  C_4
REMARK    3  A    between atoms: C_4  and  C_5
REMARK    4  A    between atoms: C_8  and  O_9
REMARK    5  A    between atoms: O_9  and  C_10
REMARK    6  A    between atoms: C_10  and  C_11
REMARK                            x       y       z     vdW  Elec       q    Type
REMARK                         _______ _______ _______ _____ _____    ______ ____
ROOT
ATOM      1  O   UNL     1      48.490   7.904  17.591  0.00  0.00    +0.000 OA
ATOM      2  C   UNL     1      49.010   7.027  16.912  0.00  0.00    +0.000 C 
ATOM      3  N   UNL     1      49.139   7.078  15.542  0.00  0.00    +0.000 N 
ATOM      4  H   UNL     1      49.763   6.413  15.108  0.00  0.00    +0.000 HD
ENDROOT
BRANCH   2   5
ATOM      5  C   UNL     1      49.770   5.917  17.468  0.00  0.00    +0.000 A 
ATOM      6  C   UNL     1      51.029   6.068  18.020  0.00  0.00    +0.000 A 
ATOM      7  S   UNL     1      51.891   4.582  18.028  0.00  0.00    +0.000 S 
ATOM      8  C   UNL     1      50.539   3.727  17.435  0.00  0.00    +0.000 A 
ATOM      9  N   UNL     1      50.602   2.427  17.046  0.00  0.00    +0.000 NA
ATOM     10  C   UNL     1      49.467   1.931  16.672  0.00  0.00    +0.000 A 
ATOM     11  N   UNL     1      48.265   2.597  16.702  0.00  0.00    +0.000 N 
ATOM     12  C   UNL     1      48.149   3.907  17.101  0.00  0.00    +0.000 A 
ATOM     13  O   UNL     1      47.068   4.472  17.189  0.00  0.00    +0.000 OA
ATOM     14  C   UNL     1      49.423   4.532  17.394  0.00  0.00    +0.000 A 
ATOM     15  H   UNL     1      47.401   2.124  16.479  0.00  0.00    +0.000 HD
ENDBRANCH   2   5
BRANCH   3  16
ATOM     16  C   UNL     1      48.881   8.277  14.797  0.00  0.00    +0.000 C 
BRANCH  16  17
ATOM     17  C   UNL     1      47.791   8.033  13.793  0.00  0.00    +0.000 A 
ATOM     18  C   UNL     1      47.095   9.082  13.182  0.00  0.00    +0.000 A 
ATOM     19  C   UNL     1      46.091   8.800  12.257  0.00  0.00    +0.000 A 
ATOM     20  C   UNL     1      45.810   7.473  11.982  0.00  0.00    +0.000 A 
ATOM     21  N   UNL     1      46.494   6.439  12.515  0.00  0.00    +0.000 NA
ATOM     22  C   UNL     1      47.475   6.741  13.395  0.00  0.00    +0.000 A 
BRANCH  20  23
ATOM     23  O   UNL     1      44.783   7.216  11.095  0.00  0.00    +0.000 OA
BRANCH  23  24
ATOM     24  C   UNL     1      43.876   6.239  11.619  0.00  0.00    +0.000 C 
BRANCH  24  25
ATOM     25  C   UNL     1      44.011   4.918  10.923  0.00  0.00    +0.000 A 
ATOM     26  C   UNL     1      44.740   4.704   9.770  0.00  0.00    +0.000 A 
ATOM     27  N   UNL     1      44.884   3.496   9.186  0.00  0.00    +0.000 NA
ATOM     28  C   UNL     1      44.270   2.473   9.799  0.00  0.00    +0.000 A 
ATOM     29  N   UNL     1      43.528   2.554  10.910  0.00  0.00    +0.000 NA
ATOM     30  C   UNL     1      43.426   3.786  11.453  0.00  0.00    +0.000 A 
ENDBRANCH  24  25
ENDBRANCH  23  24
ENDBRANCH  20  23
ENDBRANCH  16  17
ENDBRANCH   3  16
TORSDOF 6
ENDMDL
