MODEL 1
REMARK VINA RESULT:    -7.726      0.000      0.000
REMARK INTER + INTRA:         -12.520
REMARK INTER:                 -11.339
REMARK INTRA:                  -1.182
REMARK UNBOUND:                -1.182
REMARK  Name = 
REMARK  9 active torsions:
REMARK  status: ('A' for Active; 'I' for Inactive)
REMARK    1  A    between atoms: C_1  and  C_2
REMARK    2  A    between atoms: C_2  and  C_3
REMARK    3  A    between atoms: C_3  and  N_4
REMARK    4  A    between atoms: C_3  and  C_26
REMARK    5  A    between atoms: N_4  and  C_5
REMARK    6  A    between atoms: C_5  and  C_6
REMARK    7  A    between atoms: C_9  and  C_10
REMARK    8  A    between atoms: C_10  and  N_11
REMARK    9  A    between atoms: C_12  and  C_14
REMARK                            x       y       z     vdW  Elec       q    Type
REMARK                         _______ _______ _______ _____ _____    ______ ____
ROOT
ATOM      1  C   UNL     1      45.171   6.513  11.505  0.00  0.00    +0.000 A 
ATOM      2  C   UNL     1      44.869   7.808  11.950  0.00  0.00    +0.000 A 
ATOM      3  C   UNL     1      45.778   8.521  12.737  0.00  0.00    +0.000 A 
ATOM      4  C   UNL     1      47.002   7.950  13.101  0.00  0.00    +0.000 A 
ATOM      5  C   UNL     1      47.291   6.643  12.687  0.00  0.00    +0.000 A 
ATOM      6  C   UNL     1      46.389   5.936  11.890  0.00  0.00    +0.000 A 
ENDROOT
BRANCH   1   7
ATOM      7  C   UNL     1      44.190   5.731  10.658  0.00  0.00    +0.000 C 
BRANCH   7   8
ATOM      8  N   UNL     1      44.845   5.148   9.484  0.00  0.00    +0.000 NA
ATOM      9  H   UNL     1      44.468   5.585   8.648  0.00  0.00    +0.000 HD
BRANCH   8  10
ATOM     10  C   UNL     1      44.679   3.686   9.379  0.00  0.00    +0.000 C 
BRANCH  10  11
ATOM     11  C   UNL     1      45.600   3.058   8.329  0.00  0.00    +0.000 A 
ATOM     12  C   UNL     1      45.980   1.720   8.441  0.00  0.00    +0.000 A 
ATOM     13  C   UNL     1      46.789   1.170   7.454  0.00  0.00    +0.000 A 
ATOM     14  C   UNL     1      47.188   1.955   6.377  0.00  0.00    +0.000 A 
ATOM     15  C   UNL     1      46.752   3.264   6.327  0.00  0.00    +0.000 A 
ATOM     16  N   UNL     1      45.971   3.825   7.272  0.00  0.00    +0.000 NA
ENDBRANCH  10  11
BRANCH  10  18
ATOM     17  C   UNL     1      43.440   2.636  11.396  0.00  0.00    +0.000 C 
ATOM     18  C   UNL     1      44.773   2.911  10.717  0.00  0.00    +0.000 C 
ENDBRANCH  10  18
ENDBRANCH   8  10
ENDBRANCH   7   8
ENDBRANCH   1   7
BRANCH   4  19
ATOM     19  C   UNL     1      47.968   8.694  13.982  0.00  0.00    +0.000 C 
BRANCH  19  20
ATOM     20  N   UNL     1      48.233   7.949  15.186  0.00  0.00    +0.000 N 
ATOM     21  C   UNL     1      49.479   7.446  15.449  0.00  0.00    +0.000 C 
ATOM     22  O   UNL     1      50.430   7.640  14.695  0.00  0.00    +0.000 OA
ATOM     23  H   UNL     1      47.430   7.599  15.699  0.00  0.00    +0.000 HD
BRANCH  21  24
ATOM     24  C   UNL     1      49.640   6.719  16.714  0.00  0.00    +0.000 A 
ATOM     25  C   UNL     1      50.474   7.237  17.696  0.00  0.00    +0.000 A 
ATOM     26  S   UNL     1      50.512   6.306  19.123  0.00  0.00    +0.000 S 
ATOM     27  C   UNL     1      49.452   5.149  18.460  0.00  0.00    +0.000 A 
ATOM     28  N   UNL     1      49.085   4.052  19.174  0.00  0.00    +0.000 NA
ATOM     29  C   UNL     1      48.300   3.244  18.542  0.00  0.00    +0.000 A 
ATOM     30  N   UNL     1      47.848   3.436  17.262  0.00  0.00    +0.000 N 
ATOM     31  C   UNL     1      48.173   4.542  16.514  0.00  0.00    +0.000 A 
ATOM     32  O   UNL     1      47.723   4.701  15.384  0.00  0.00    +0.000 OA
ATOM     33  C   UNL     1      49.062   5.479  17.174  0.00  0.00    +0.000 A 
ATOM     34  H   UNL     1      47.229   2.769  16.827  0.00  0.00    +0.000 HD
ENDBRANCH  21  24
ENDBRANCH  19  20
ENDBRANCH   4  19
TORSDOF 8
ENDMDL
MODEL 2
REMARK VINA RESULT:    -7.046      2.920      8.280
REMARK INTER + INTRA:         -11.523
REMARK INTER:                  -9.942
REMARK INTRA:                  -1.581
REMARK UNBOUND:                -1.182
REMARK  Name = 
REMARK  9 active torsions:
REMARK  status: ('A' for Active; 'I' for Inactive)
REMARK    1  A    between atoms: C_1  and  C_2
REMARK    2  A    between atoms: C_2  and  C_3
REMARK    3  A    between atoms: C_3  and  N_4
REMARK    4  A    between atoms: C_3  and  C_26
REMARK    5  A    between atoms: N_4  and  C_5
REMARK    6  A    between atoms: C_5  and  C_6
REMARK    7  A    between atoms: C_9  and  C_10
REMARK    8  A    between atoms: C_10  and  N_11
REMARK    9  A    between atoms: C_12  and  C_14
REMARK                            x       y       z     vdW  Elec       q    Type
REMARK                         _______ _______ _______ _____ _____    ______ ____
ROOT
ATOM      1  C   UNL     1      49.489   8.349  15.786  0.00  0.00    +0.000 A 
ATOM      2  C   UNL     1      48.312   9.013  15.412  0.00  0.00    +0.000 A 
ATOM      3  C   UNL     1      47.779   8.850  14.131  0.00  0.00    +0.000 A 
ATOM      4  C   UNL     1      48.417   8.027  13.195  0.00  0.00    +0.000 A 
ATOM      5  C   UNL     1      49.612   7.391  13.555  0.00  0.00    +0.000 A 
ATOM      6  C   UNL     1      50.138   7.544  14.839  0.00  0.00    +0.000 A 
ENDROOT
BRANCH   1   7
ATOM      7  C   UNL     1      50.079   8.525  17.170  0.00  0.00    +0.000 C 
BRANCH   7   8
ATOM      8  N   UNL     1      49.903   7.317  17.981  0.00  0.00    +0.000 NA
ATOM      9  H   UNL     1      50.596   6.630  17.699  0.00  0.00    +0.000 HD
BRANCH   8  10
ATOM     10  C   UNL     1      48.559   6.719  17.866  0.00  0.00    +0.000 C 
BRANCH  10  11
ATOM     11  C   UNL     1      48.603   5.220  17.557  0.00  0.00    +0.000 A 
ATOM     12  C   UNL     1      49.814   4.529  17.607  0.00  0.00    +0.000 A 
ATOM     13  C   UNL     1      49.815   3.162  17.355  0.00  0.00    +0.000 A 
ATOM     14  C   UNL     1      48.616   2.515  17.072  0.00  0.00    +0.000 A 
ATOM     15  C   UNL     1      47.457   3.265  17.061  0.00  0.00    +0.000 A 
ATOM     16  N   UNL     1      47.426   4.593  17.297  0.00  0.00    +0.000 NA
ENDBRANCH  10  11
BRANCH  10  18
ATOM     17  C   UNL     1      48.013   6.362  20.372  0.00  0.00    +0.000 C 
ATOM     18  C   UNL     1      47.605   7.001  19.053  0.00  0.00    +0.000 C 
ENDBRANCH  10  18
ENDBRANCH   8  10
ENDBRANCH   7   8
ENDBRANCH   1   7
BRANCH   4  19
ATOM     19  C   UNL     1      47.872   7.880  11.801  0.00  0.00    +0.000 C 
BRANCH  19  20
ATOM     20  N   UNL     1      47.120   6.657  11.678  0.00  0.00    +0.000 N 
ATOM     21  C   UNL     1      45.757   6.648  11.805  0.00  0.00    +0.000 C 
ATOM     22  O   UNL     1      45.115   7.679  11.989  0.00  0.00    +0.000 OA
ATOM     23  H   UNL     1      47.639   5.787  11.745  0.00  0.00    +0.000 HD
BRANCH  21  24
ATOM     24  C   UNL     1      45.092   5.350  11.643  0.00  0.00    +0.000 A 
ATOM     25  C   UNL     1      44.420   4.788  12.721  0.00  0.00    +0.000 A 
ATOM     26  S   UNL     1      43.657   3.309  12.358  0.00  0.00    +0.000 S 
ATOM     27  C   UNL     1      44.238   3.340  10.757  0.00  0.00    +0.000 A 
ATOM     28  N   UNL     1      43.958   2.327   9.895  0.00  0.00    +0.000 NA
ATOM     29  C   UNL     1      44.483   2.465   8.724  0.00  0.00    +0.000 A 
ATOM     30  N   UNL     1      45.262   3.525   8.337  0.00  0.00    +0.000 N 
ATOM     31  C   UNL     1      45.549   4.582   9.167  0.00  0.00    +0.000 A 
ATOM     32  O   UNL     1      46.220   5.533   8.778  0.00  0.00    +0.000 OA
ATOM     33  C   UNL     1      44.990   4.473  10.500  0.00  0.00    +0.000 A 
ATOM     34  H   UNL     1      45.637   3.577   7.401  0.00  0.00    +0.000 HD
ENDBRANCH  21  24
ENDBRANCH  19  20
ENDBRANCH   4  19
TORSDOF 8
ENDMDL
MODEL 3
REMARK VINA RESULT:    -6.795      4.647      9.841
REMARK INTER + INTRA:         -11.155
REMARK INTER:                 -10.132
REMARK INTRA:                  -1.023
REMARK UNBOUND:                -1.182
REMARK  Name = 
REMARK  9 active torsions:
REMARK  status: ('A' for Active; 'I' for Inactive)
REMARK    1  A    between atoms: C_1  and  C_2
REMARK    2  A    between atoms: C_2  and  C_3
REMARK    3  A    between atoms: C_3  and  N_4
REMARK    4  A    between atoms: C_3  and  C_26
REMARK    5  A    between atoms: N_4  and  C_5
REMARK    6  A    between atoms: C_5  and  C_6
REMARK    7  A    between atoms: C_9  and  C_10
REMARK    8  A    between atoms: C_10  and  N_11
REMARK    9  A    between atoms: C_12  and  C_14
REMARK                            x       y       z     vdW  Elec       q    Type
REMARK                         _______ _______ _______ _____ _____    ______ ____
ROOT
ATOM      1  C   UNL     1      51.389   3.699  17.766  0.00  0.00    +0.000 A 
ATOM      2  C   UNL     1      50.841   2.463  17.396  0.00  0.00    +0.000 A 
ATOM      3  C   UNL     1      49.484   2.350  17.083  0.00  0.00    +0.000 A 
ATOM      4  C   UNL     1      48.647   3.470  17.140  0.00  0.00    +0.000 A 
ATOM      5  C   UNL     1      49.185   4.699  17.542  0.00  0.00    +0.000 A 
ATOM      6  C   UNL     1      50.544   4.814  17.844  0.00  0.00    +0.000 A 
ENDROOT
BRANCH   1   7
ATOM      7  C   UNL     1      52.857   3.829  18.115  0.00  0.00    +0.000 C 
BRANCH   7   8
ATOM      8  N   UNL     1      53.622   2.673  17.638  0.00  0.00    +0.000 NA
ATOM      9  H   UNL     1      53.051   2.151  16.980  0.00  0.00    +0.000 HD
BRANCH   8  10
ATOM     10  C   UNL     1      54.058   1.768  18.719  0.00  0.00    +0.000 C 
BRANCH  10  11
ATOM     11  C   UNL     1      54.336   0.345  18.224  0.00  0.00    +0.000 A 
ATOM     12  C   UNL     1      54.715   0.125  16.900  0.00  0.00    +0.000 A 
ATOM     13  C   UNL     1      54.993  -1.174  16.490  0.00  0.00    +0.000 A 
ATOM     14  C   UNL     1      54.901  -2.217  17.406  0.00  0.00    +0.000 A 
ATOM     15  C   UNL     1      54.541  -1.914  18.704  0.00  0.00    +0.000 A 
ATOM     16  N   UNL     1      54.260  -0.666  19.128  0.00  0.00    +0.000 NA
ENDBRANCH  10  11
BRANCH  10  18
ATOM     17  C   UNL     1      54.857   2.769  20.969  0.00  0.00    +0.000 C 
ATOM     18  C   UNL     1      55.238   2.284  19.578  0.00  0.00    +0.000 C 
ENDBRANCH  10  18
ENDBRANCH   8  10
ENDBRANCH   7   8
ENDBRANCH   1   7
BRANCH   4  19
ATOM     19  C   UNL     1      47.177   3.350  16.844  0.00  0.00    +0.000 C 
BRANCH  19  20
ATOM     20  N   UNL     1      46.770   4.348  15.888  0.00  0.00    +0.000 N 
ATOM     21  C   UNL     1      46.823   4.104  14.543  0.00  0.00    +0.000 C 
ATOM     22  O   UNL     1      47.179   3.018  14.093  0.00  0.00    +0.000 OA
ATOM     23  H   UNL     1      46.684   5.302  16.225  0.00  0.00    +0.000 HD
BRANCH  21  24
ATOM     24  C   UNL     1      46.365   5.185  13.661  0.00  0.00    +0.000 A 
ATOM     25  C   UNL     1      47.199   6.271  13.425  0.00  0.00    +0.000 A 
ATOM     26  S   UNL     1      46.547   7.412  12.341  0.00  0.00    +0.000 S 
ATOM     27  C   UNL     1      45.104   6.519  12.185  0.00  0.00    +0.000 A 
ATOM     28  N   UNL     1      44.090   6.968  11.398  0.00  0.00    +0.000 NA
ATOM     29  C   UNL     1      43.046   6.208  11.393  0.00  0.00    +0.000 A 
ATOM     30  N   UNL     1      42.925   5.041  12.102  0.00  0.00    +0.000 N 
ATOM     31  C   UNL     1      43.933   4.538  12.889  0.00  0.00    +0.000 A 
ATOM     32  O   UNL     1      43.805   3.472  13.482  0.00  0.00    +0.000 OA
ATOM     33  C   UNL     1      45.128   5.359  12.938  0.00  0.00    +0.000 A 
ATOM     34  H   UNL     1      42.082   4.489  12.048  0.00  0.00    +0.000 HD
ENDBRANCH  21  24
ENDBRANCH  19  20
ENDBRANCH   4  19
TORSDOF 8
ENDMDL
MODEL 4
REMARK VINA RESULT:    -6.778      3.108      8.763
REMARK INTER + INTRA:         -11.129
REMARK INTER:                  -9.620
REMARK INTRA:                  -1.509
REMARK UNBOUND:                -1.182
REMARK  Name = 
REMARK  9 active torsions:
REMARK  status: ('A' for Active; 'I' for Inactive)
REMARK    1  A    between atoms: C_1  and  C_2
REMARK    2  A    between atoms: C_2  and  C_3
REMARK    3  A    between atoms: C_3  and  N_4
REMARK    4  A    between atoms: C_3  and  C_26
REMARK    5  A    between atoms: N_4  and  C_5
REMARK    6  A    between atoms: C_5  and  C_6
REMARK    7  A    between atoms: C_9  and  C_10
REMARK    8  A    between atoms: C_10  and  N_11
REMARK    9  A    between atoms: C_12  and  C_14
REMARK                            x       y       z     vdW  Elec       q    Type
REMARK                         _______ _______ _______ _____ _____    ______ ____
ROOT
ATOM      1  C   UNL     1      50.239   7.422  15.313  0.00  0.00    +0.000 A 
ATOM      2  C   UNL     1      49.001   6.763  15.349  0.00  0.00    +0.000 A 
ATOM      3  C   UNL     1      48.114   6.852  14.274  0.00  0.00    +0.000 A 
ATOM      4  C   UNL     1      48.443   7.609  13.143  0.00  0.00    +0.000 A 
ATOM      5  C   UNL     1      49.663   8.297  13.119  0.00  0.00    +0.000 A 
ATOM      6  C   UNL     1      50.555   8.197  14.189  0.00  0.00    +0.000 A 
ENDROOT
BRANCH   1   7
ATOM      7  C   UNL     1      51.203   7.336  16.477  0.00  0.00    +0.000 C 
BRANCH   7   8
ATOM      8  N   UNL     1      51.821   6.010  16.561  0.00  0.00    +0.000 NA
ATOM      9  H   UNL     1      51.507   5.453  15.772  0.00  0.00    +0.000 HD
BRANCH   8  10
ATOM     10  C   UNL     1      51.510   5.292  17.811  0.00  0.00    +0.000 C 
BRANCH  10  11
ATOM     11  C   UNL     1      50.118   4.653  17.796  0.00  0.00    +0.000 A 
ATOM     12  C   UNL     1      49.084   5.208  18.552  0.00  0.00    +0.000 A 
ATOM     13  C   UNL     1      47.824   4.626  18.491  0.00  0.00    +0.000 A 
ATOM     14  C   UNL     1      47.618   3.518  17.675  0.00  0.00    +0.000 A 
ATOM     15  C   UNL     1      48.686   3.041  16.942  0.00  0.00    +0.000 A 
ATOM     16  N   UNL     1      49.920   3.582  16.985  0.00  0.00    +0.000 NA
ENDBRANCH  10  11
BRANCH  10  18
ATOM     17  C   UNL     1      52.747   4.141  19.773  0.00  0.00    +0.000 C 
ATOM     18  C   UNL     1      52.574   4.263  18.266  0.00  0.00    +0.000 C 
ENDBRANCH  10  18
ENDBRANCH   8  10
ENDBRANCH   7   8
ENDBRANCH   1   7
BRANCH   4  19
ATOM     19  C   UNL     1      47.477   7.745  11.999  0.00  0.00    +0.000 C 
BRANCH  19  20
ATOM     20  N   UNL     1      46.806   6.494  11.752  0.00  0.00    +0.000 N 
ATOM     21  C   UNL     1      45.443   6.430  11.644  0.00  0.00    +0.000 C 
ATOM     22  O   UNL     1      44.738   7.434  11.711  0.00  0.00    +0.000 OA
ATOM     23  H   UNL     1      47.339   5.645  11.909  0.00  0.00    +0.000 HD
BRANCH  21  24
ATOM     24  C   UNL     1      44.867   5.107  11.373  0.00  0.00    +0.000 A 
ATOM     25  C   UNL     1      44.126   4.471  12.360  0.00  0.00    +0.000 A 
ATOM     26  S   UNL     1      43.482   2.970  11.874  0.00  0.00    +0.000 S 
ATOM     27  C   UNL     1      44.213   3.093  10.340  0.00  0.00    +0.000 A 
ATOM     28  N   UNL     1      44.072   2.102   9.420  0.00  0.00    +0.000 NA
ATOM     29  C   UNL     1      44.700   2.312   8.312  0.00  0.00    +0.000 A 
ATOM     30  N   UNL     1      45.454   3.423   8.039  0.00  0.00    +0.000 N 
ATOM     31  C   UNL     1      45.603   4.460   8.929  0.00  0.00    +0.000 A 
ATOM     32  O   UNL     1      46.256   5.458   8.640  0.00  0.00    +0.000 OA
ATOM     33  C   UNL     1      44.924   4.272  10.197  0.00  0.00    +0.000 A 
ATOM     34  H   UNL     1      45.915   3.530   7.148  0.00  0.00    +0.000 HD
ENDBRANCH  21  24
ENDBRANCH  19  20
ENDBRANCH   4  19
TORSDOF 8
ENDMDL
MODEL 5
REMARK VINA RESULT:    -6.628      1.910      2.523
REMARK INTER + INTRA:         -10.910
REMARK INTER:                 -10.269
REMARK INTRA:                  -0.640
REMARK UNBOUND:                -1.182
REMARK  Name = 
REMARK  9 active torsions:
REMARK  status: ('A' for Active; 'I' for Inactive)
REMARK    1  A    between atoms: C_1  and  C_2
REMARK    2  A    between atoms: C_2  and  C_3
REMARK    3  A    between atoms: C_3  and  N_4
REMARK    4  A    between atoms: C_3  and  C_26
REMARK    5  A    between atoms: N_4  and  C_5
REMARK    6  A    between atoms: C_5  and  C_6
REMARK    7  A    between atoms: C_9  and  C_10
REMARK    8  A    between atoms: C_10  and  N_11
REMARK    9  A    between atoms: C_12  and  C_14
REMARK                            x       y       z     vdW  Elec       q    Type
REMARK                         _______ _______ _______ _____ _____    ______ ____
ROOT
ATOM      1  C   UNL     1      45.457   6.259  11.927  0.00  0.00    +0.000 A 
ATOM      2  C   UNL     1      46.111   5.448  12.866  0.00  0.00    +0.000 A 
ATOM      3  C   UNL     1      47.220   5.925  13.569  0.00  0.00    +0.000 A 
ATOM      4  C   UNL     1      47.702   7.219  13.341  0.00  0.00    +0.000 A 
ATOM      5  C   UNL     1      47.072   8.018  12.379  0.00  0.00    +0.000 A 
ATOM      6  C   UNL     1      45.956   7.546  11.685  0.00  0.00    +0.000 A 
ENDROOT
BRANCH   1   7
ATOM      7  C   UNL     1      44.259   5.747  11.155  0.00  0.00    +0.000 C 
BRANCH   7   8
ATOM      8  N   UNL     1      44.650   5.249   9.833  0.00  0.00    +0.000 NA
ATOM      9  H   UNL     1      44.082   5.710   9.129  0.00  0.00    +0.000 HD
BRANCH   8  10
ATOM     10  C   UNL     1      44.504   3.788   9.687  0.00  0.00    +0.000 C 
BRANCH  10  11
ATOM     11  C   UNL     1      45.466   3.198   8.651  0.00  0.00    +0.000 A 
ATOM     12  C   UNL     1      45.773   1.837   8.676  0.00  0.00    +0.000 A 
ATOM     13  C   UNL     1      46.622   1.325   7.702  0.00  0.00    +0.000 A 
ATOM     14  C   UNL     1      47.134   2.172   6.723  0.00  0.00    +0.000 A 
ATOM     15  C   UNL     1      46.766   3.502   6.755  0.00  0.00    +0.000 A 
ATOM     16  N   UNL     1      45.948   4.027   7.690  0.00  0.00    +0.000 NA
ENDBRANCH  10  11
BRANCH  10  18
ATOM     17  C   UNL     1      43.214   2.598  11.590  0.00  0.00    +0.000 C 
ATOM     18  C   UNL     1      44.566   2.981  11.006  0.00  0.00    +0.000 C 
ENDBRANCH  10  18
ENDBRANCH   8  10
ENDBRANCH   7   8
ENDBRANCH   1   7
BRANCH   4  19
ATOM     19  C   UNL     1      48.920   7.726  14.064  0.00  0.00    +0.000 C 
BRANCH  19  20
ATOM     20  N   UNL     1      49.249   6.863  15.169  0.00  0.00    +0.000 N 
ATOM     21  C   UNL     1      50.398   7.044  15.892  0.00  0.00    +0.000 C 
ATOM     22  O   UNL     1      51.174   7.967  15.659  0.00  0.00    +0.000 OA
ATOM     23  H   UNL     1      48.745   5.984  15.235  0.00  0.00    +0.000 HD
BRANCH  21  24
ATOM     24  C   UNL     1      50.623   6.117  17.008  0.00  0.00    +0.000 A 
ATOM     25  C   UNL     1      49.561   5.773  17.834  0.00  0.00    +0.000 A 
ATOM     26  S   UNL     1      49.971   4.650  19.047  0.00  0.00    +0.000 S 
ATOM     27  C   UNL     1      51.599   4.620  18.544  0.00  0.00    +0.000 A 
ATOM     28  N   UNL     1      52.515   3.855  19.195  0.00  0.00    +0.000 NA
ATOM     29  C   UNL     1      53.714   3.948  18.726  0.00  0.00    +0.000 A 
ATOM     30  N   UNL     1      54.080   4.735  17.665  0.00  0.00    +0.000 N 
ATOM     31  C   UNL     1      53.183   5.504  16.963  0.00  0.00    +0.000 A 
ATOM     32  O   UNL     1      53.536   6.170  15.995  0.00  0.00    +0.000 OA
ATOM     33  C   UNL     1      51.820   5.444  17.454  0.00  0.00    +0.000 A 
ATOM     34  H   UNL     1      55.035   4.756  17.342  0.00  0.00    +0.000 HD
ENDBRANCH  21  24
ENDBRANCH  19  20
ENDBRANCH   4  19
TORSDOF 8
ENDMDL
MODEL 6
REMARK VINA RESULT:    -6.586      3.807      9.137
REMARK INTER + INTRA:         -10.847
REMARK INTER:                  -9.190
REMARK INTRA:                  -1.658
REMARK UNBOUND:                -1.182
REMARK  Name = 
REMARK  9 active torsions:
REMARK  status: ('A' for Active; 'I' for Inactive)
REMARK    1  A    between atoms: C_1  and  C_2
REMARK    2  A    between atoms: C_2  and  C_3
REMARK    3  A    between atoms: C_3  and  N_4
REMARK    4  A    between atoms: C_3  and  C_26
REMARK    5  A    between atoms: N_4  and  C_5
REMARK    6  A    between atoms: C_5  and  C_6
REMARK    7  A    between atoms: C_9  and  C_10
REMARK    8  A    between atoms: C_10  and  N_11
REMARK    9  A    between atoms: C_12  and  C_14
REMARK                            x       y       z     vdW  Elec       q    Type
REMARK                         _______ _______ _______ _____ _____    ______ ____
ROOT
ATOM      1  C   UNL     1      51.315   3.621  18.115  0.00  0.00    +0.000 A 
ATOM      2  C   UNL     1      50.843   2.521  17.385  0.00  0.00    +0.000 A 
ATOM      3  C   UNL     1      49.503   2.445  16.999  0.00  0.00    +0.000 A 
ATOM      4  C   UNL     1      48.605   3.462  17.343  0.00  0.00    +0.000 A 
ATOM      5  C   UNL     1      49.067   4.545  18.102  0.00  0.00    +0.000 A 
ATOM      6  C   UNL     1      50.409   4.628  18.477  0.00  0.00    +0.000 A 
ENDROOT
BRANCH   1   7
ATOM      7  C   UNL     1      52.765   3.709  18.544  0.00  0.00    +0.000 C 
BRANCH   7   8
ATOM      8  N   UNL     1      53.620   4.158  17.442  0.00  0.00    +0.000 NA
ATOM      9  H   UNL     1      54.449   3.572  17.411  0.00  0.00    +0.000 HD
BRANCH   8  10
ATOM     10  C   UNL     1      54.035   5.570  17.554  0.00  0.00    +0.000 C 
BRANCH  10  11
ATOM     11  C   UNL     1      53.518   6.433  16.400  0.00  0.00    +0.000 A 
ATOM     12  C   UNL     1      52.209   6.916  16.418  0.00  0.00    +0.000 A 
ATOM     13  C   UNL     1      51.780   7.725  15.372  0.00  0.00    +0.000 A 
ATOM     14  C   UNL     1      52.661   8.044  14.345  0.00  0.00    +0.000 A 
ATOM     15  C   UNL     1      53.947   7.544  14.410  0.00  0.00    +0.000 A 
ATOM     16  N   UNL     1      54.389   6.754  15.409  0.00  0.00    +0.000 NA
ENDBRANCH  10  11
BRANCH  10  18
ATOM     17  C   UNL     1      54.760   7.265  19.372  0.00  0.00    +0.000 C 
ATOM     18  C   UNL     1      53.729   6.243  18.915  0.00  0.00    +0.000 C 
ENDBRANCH  10  18
ENDBRANCH   8  10
ENDBRANCH   7   8
ENDBRANCH   1   7
BRANCH   4  19
ATOM     19  C   UNL     1      47.152   3.368  16.967  0.00  0.00    +0.000 C 
BRANCH  19  20
ATOM     20  N   UNL     1      46.817   4.368  15.985  0.00  0.00    +0.000 N 
ATOM     21  C   UNL     1      46.963   4.123  14.646  0.00  0.00    +0.000 C 
ATOM     22  O   UNL     1      47.345   3.035  14.222  0.00  0.00    +0.000 OA
ATOM     23  H   UNL     1      46.713   5.322  16.315  0.00  0.00    +0.000 HD
BRANCH  21  24
ATOM     24  C   UNL     1      46.573   5.206  13.735  0.00  0.00    +0.000 A 
ATOM     25  C   UNL     1      47.459   6.248  13.496  0.00  0.00    +0.000 A 
ATOM     26  S   UNL     1      46.882   7.396  12.377  0.00  0.00    +0.000 S 
ATOM     27  C   UNL     1      45.404   6.567  12.208  0.00  0.00    +0.000 A 
ATOM     28  N   UNL     1      44.427   7.045  11.392  0.00  0.00    +0.000 NA
ATOM     29  C   UNL     1      43.350   6.334  11.379  0.00  0.00    +0.000 A 
ATOM     30  N   UNL     1      43.161   5.188  12.107  0.00  0.00    +0.000 N 
ATOM     31  C   UNL     1      44.129   4.655  12.925  0.00  0.00    +0.000 A 
ATOM     32  O   UNL     1      43.942   3.608  13.535  0.00  0.00    +0.000 OA
ATOM     33  C   UNL     1      45.360   5.421  12.983  0.00  0.00    +0.000 A 
ATOM     34  H   UNL     1      42.296   4.673  12.047  0.00  0.00    +0.000 HD
ENDBRANCH  21  24
ENDBRANCH  19  20
ENDBRANCH   4  19
TORSDOF 8
ENDMDL
MODEL 7
REMARK VINA RESULT:    -6.546      3.421      8.058
REMARK INTER + INTRA:         -10.789
REMARK INTER:                  -8.910
REMARK INTRA:                  -1.879
REMARK UNBOUND:                -1.182
REMARK  Name = 
REMARK  9 active torsions:
REMARK  status: ('A' for Active; 'I' for Inactive)
REMARK    1  A    between atoms: C_1  and  C_2
REMARK    2  A    between atoms: C_2  and  C_3
REMARK    3  A    between atoms: C_3  and  N_4
REMARK    4  A    between atoms: C_3  and  C_26
REMARK    5  A    between atoms: N_4  and  C_5
REMARK    6  A    between atoms: C_5  and  C_6
REMARK    7  A    between atoms: C_9  and  C_10
REMARK    8  A    between atoms: C_10  and  N_11
REMARK    9  A    between atoms: C_12  and  C_14
REMARK                            x       y       z     vdW  Elec       q    Type
REMARK                         _______ _______ _______ _____ _____    ______ ____
ROOT
ATOM      1  C   UNL     1      51.129   6.742  17.205  0.00  0.00    +0.000 A 
ATOM      2  C   UNL     1      49.973   7.204  17.849  0.00  0.00    +0.000 A 
ATOM      3  C   UNL     1      49.018   7.947  17.151  0.00  0.00    +0.000 A 
ATOM      4  C   UNL     1      49.205   8.251  15.798  0.00  0.00    +0.000 A 
ATOM      5  C   UNL     1      50.376   7.821  15.161  0.00  0.00    +0.000 A 
ATOM      6  C   UNL     1      51.324   7.067  15.856  0.00  0.00    +0.000 A 
ENDROOT
BRANCH   1   7
ATOM      7  C   UNL     1      52.173   5.941  17.955  0.00  0.00    +0.000 C 
BRANCH   7   8
ATOM      8  N   UNL     1      52.365   4.619  17.353  0.00  0.00    +0.000 NA
ATOM      9  H   UNL     1      51.954   4.620  16.424  0.00  0.00    +0.000 HD
BRANCH   8  10
ATOM     10  C   UNL     1      51.773   3.520  18.140  0.00  0.00    +0.000 C 
BRANCH  10  11
ATOM     11  C   UNL     1      50.296   3.284  17.810  0.00  0.00    +0.000 A 
ATOM     12  C   UNL     1      49.301   3.866  18.597  0.00  0.00    +0.000 A 
ATOM     13  C   UNL     1      47.971   3.662  18.252  0.00  0.00    +0.000 A 
ATOM     14  C   UNL     1      47.661   2.897  17.132  0.00  0.00    +0.000 A 
ATOM     15  C   UNL     1      48.704   2.373  16.392  0.00  0.00    +0.000 A 
ATOM     16  N   UNL     1      50.003   2.551  16.706  0.00  0.00    +0.000 NA
ENDBRANCH  10  11
BRANCH  10  18
ATOM     17  C   UNL     1      54.017   2.306  17.697  0.00  0.00    +0.000 C 
ATOM     18  C   UNL     1      52.557   2.185  18.106  0.00  0.00    +0.000 C 
ENDBRANCH  10  18
ENDBRANCH   8  10
ENDBRANCH   7   8
ENDBRANCH   1   7
BRANCH   4  19
ATOM     19  C   UNL     1      48.202   9.086  15.050  0.00  0.00    +0.000 C 
BRANCH  19  20
ATOM     20  N   UNL     1      47.204   8.249  14.435  0.00  0.00    +0.000 N 
ATOM     21  C   UNL     1      47.195   8.033  13.083  0.00  0.00    +0.000 C 
ATOM     22  O   UNL     1      48.055   8.506  12.344  0.00  0.00    +0.000 OA
ATOM     23  H   UNL     1      46.378   8.035  14.985  0.00  0.00    +0.000 HD
BRANCH  21  24
ATOM     24  C   UNL     1      46.144   7.148  12.567  0.00  0.00    +0.000 A 
ATOM     25  C   UNL     1      45.103   7.688  11.823  0.00  0.00    +0.000 A 
ATOM     26  S   UNL     1      43.995   6.526  11.251  0.00  0.00    +0.000 S 
ATOM     27  C   UNL     1      44.841   5.263  12.020  0.00  0.00    +0.000 A 
ATOM     28  N   UNL     1      44.396   3.980  11.943  0.00  0.00    +0.000 NA
ATOM     29  C   UNL     1      45.117   3.129  12.594  0.00  0.00    +0.000 A 
ATOM     30  N   UNL     1      46.241   3.443  13.312  0.00  0.00    +0.000 N 
ATOM     31  C   UNL     1      46.740   4.721  13.395  0.00  0.00    +0.000 A 
ATOM     32  O   UNL     1      47.769   4.963  14.017  0.00  0.00    +0.000 OA
ATOM     33  C   UNL     1      45.962   5.721  12.689  0.00  0.00    +0.000 A 
ATOM     34  H   UNL     1      46.765   2.727  13.792  0.00  0.00    +0.000 HD
ENDBRANCH  21  24
ENDBRANCH  19  20
ENDBRANCH   4  19
TORSDOF 8
ENDMDL
MODEL 8
REMARK VINA RESULT:    -6.531      3.910      5.298
REMARK INTER + INTRA:         -10.767
REMARK INTER:                  -9.983
REMARK INTRA:                  -0.784
REMARK UNBOUND:                -1.182
REMARK  Name = 
REMARK  9 active torsions:
REMARK  status: ('A' for Active; 'I' for Inactive)
REMARK    1  A    between atoms: C_1  and  C_2
REMARK    2  A    between atoms: C_2  and  C_3
REMARK    3  A    between atoms: C_3  and  N_4
REMARK    4  A    between atoms: C_3  and  C_26
REMARK    5  A    between atoms: N_4  and  C_5
REMARK    6  A    between atoms: C_5  and  C_6
REMARK    7  A    between atoms: C_9  and  C_10
REMARK    8  A    between atoms: C_10  and  N_11
REMARK    9  A    between atoms: C_12  and  C_14
REMARK                            x       y       z     vdW  Elec       q    Type
REMARK                         _______ _______ _______ _____ _____    ______ ____
ROOT
ATOM      1  C   UNL     1      45.026   5.953  11.757  0.00  0.00    +0.000 A 
ATOM      2  C   UNL     1      45.264   5.569  13.085  0.00  0.00    +0.000 A 
ATOM      3  C   UNL     1      46.442   5.943  13.735  0.00  0.00    +0.000 A 
ATOM      4  C   UNL     1      47.410   6.703  13.068  0.00  0.00    +0.000 A 
ATOM      5  C   UNL     1      47.191   7.059  11.732  0.00  0.00    +0.000 A 
ATOM      6  C   UNL     1      46.008   6.695  11.086  0.00  0.00    +0.000 A 
ENDROOT
BRANCH   1   7
ATOM      7  C   UNL     1      43.755   5.546  11.042  0.00  0.00    +0.000 C 
BRANCH   7   8
ATOM      8  N   UNL     1      44.043   5.013   9.707  0.00  0.00    +0.000 NA
ATOM      9  H   UNL     1      43.269   5.242   9.090  0.00  0.00    +0.000 HD
BRANCH   8  10
ATOM     10  C   UNL     1      44.257   3.553   9.688  0.00  0.00    +0.000 C 
BRANCH  10  11
ATOM     11  C   UNL     1      45.329   3.125   8.682  0.00  0.00    +0.000 A 
ATOM     12  C   UNL     1      45.739   1.793   8.620  0.00  0.00    +0.000 A 
ATOM     13  C   UNL     1      46.689   1.428   7.673  0.00  0.00    +0.000 A 
ATOM     14  C   UNL     1      47.197   2.390   6.805  0.00  0.00    +0.000 A 
ATOM     15  C   UNL     1      46.723   3.682   6.915  0.00  0.00    +0.000 A 
ATOM     16  N   UNL     1      45.807   4.065   7.827  0.00  0.00    +0.000 NA
ENDBRANCH  10  11
BRANCH  10  18
ATOM     17  C   UNL     1      43.298   2.280  11.729  0.00  0.00    +0.000 C 
ATOM     18  C   UNL     1      44.519   2.904  11.069  0.00  0.00    +0.000 C 
ENDBRANCH  10  18
ENDBRANCH   8  10
ENDBRANCH   7   8
ENDBRANCH   1   7
BRANCH   4  19
ATOM     19  C   UNL     1      48.700   7.075  13.748  0.00  0.00    +0.000 C 
BRANCH  19  20
ATOM     20  N   UNL     1      49.796   7.028  12.814  0.00  0.00    +0.000 N 
ATOM     21  C   UNL     1      50.482   8.162  12.469  0.00  0.00    +0.000 C 
ATOM     22  O   UNL     1      50.222   9.255  12.966  0.00  0.00    +0.000 OA
ATOM     23  H   UNL     1      49.879   6.195  12.241  0.00  0.00    +0.000 HD
BRANCH  21  24
ATOM     24  C   UNL     1      51.592   7.995  11.524  0.00  0.00    +0.000 A 
ATOM     25  C   UNL     1      51.336   7.502  10.251  0.00  0.00    +0.000 A 
ATOM     26  S   UNL     1      52.717   7.417   9.258  0.00  0.00    +0.000 S 
ATOM     27  C   UNL     1      53.719   7.991  10.510  0.00  0.00    +0.000 A 
ATOM     28  N   UNL     1      55.058   8.135  10.321  0.00  0.00    +0.000 NA
ATOM     29  C   UNL     1      55.700   8.552  11.360  0.00  0.00    +0.000 A 
ATOM     30  N   UNL     1      55.125   8.840  12.571  0.00  0.00    +0.000 N 
ATOM     31  C   UNL     1      53.774   8.733  12.799  0.00  0.00    +0.000 A 
ATOM     32  O   UNL     1      53.286   9.033  13.884  0.00  0.00    +0.000 OA
ATOM     33  C   UNL     1      53.005   8.259  11.665  0.00  0.00    +0.000 A 
ATOM     34  H   UNL     1      55.684   9.170  13.343  0.00  0.00    +0.000 HD
ENDBRANCH  21  24
ENDBRANCH  19  20
ENDBRANCH   4  19
TORSDOF 8
ENDMDL
MODEL 9
REMARK VINA RESULT:    -6.163      3.825      9.841
REMARK INTER + INTRA:         -10.226
REMARK INTER:                  -8.904
REMARK INTRA:                  -1.322
REMARK UNBOUND:                -1.182
REMARK  Name = 
REMARK  9 active torsions:
REMARK  status: ('A' for Active; 'I' for Inactive)
REMARK    1  A    between atoms: C_1  and  C_2
REMARK    2  A    between atoms: C_2  and  C_3
REMARK    3  A    between atoms: C_3  and  N_4
REMARK    4  A    between atoms: C_3  and  C_26
REMARK    5  A    between atoms: N_4  and  C_5
REMARK    6  A    between atoms: C_5  and  C_6
REMARK    7  A    between atoms: C_9  and  C_10
REMARK    8  A    between atoms: C_10  and  N_11
REMARK    9  A    between atoms: C_12  and  C_14
REMARK                            x       y       z     vdW  Elec       q    Type
REMARK                         _______ _______ _______ _____ _____    ______ ____
ROOT
ATOM      1  C   UNL     1      50.735   5.455  18.467  0.00  0.00    +0.000 A 
ATOM      2  C   UNL     1      50.718   4.064  18.293  0.00  0.00    +0.000 A 
ATOM      3  C   UNL     1      49.661   3.442  17.624  0.00  0.00    +0.000 A 
ATOM      4  C   UNL     1      48.595   4.198  17.123  0.00  0.00    +0.000 A 
ATOM      5  C   UNL     1      48.592   5.584  17.326  0.00  0.00    +0.000 A 
ATOM      6  C   UNL     1      49.655   6.207  17.984  0.00  0.00    +0.000 A 
ENDROOT
BRANCH   1   7
ATOM      7  C   UNL     1      51.873   6.137  19.197  0.00  0.00    +0.000 C 
BRANCH   7   8
ATOM      8  N   UNL     1      52.646   5.178  19.992  0.00  0.00    +0.000 NA
ATOM      9  H   UNL     1      52.609   5.457  20.968  0.00  0.00    +0.000 HD
BRANCH   8  10
ATOM     10  C   UNL     1      54.058   5.069  19.577  0.00  0.00    +0.000 C 
BRANCH  10  11
ATOM     11  C   UNL     1      54.342   3.801  18.767  0.00  0.00    +0.000 A 
ATOM     12  C   UNL     1      55.058   3.878  17.572  0.00  0.00    +0.000 A 
ATOM     13  C   UNL     1      55.329   2.705  16.878  0.00  0.00    +0.000 A 
ATOM     14  C   UNL     1      54.894   1.487  17.390  0.00  0.00    +0.000 A 
ATOM     15  C   UNL     1      54.209   1.493  18.589  0.00  0.00    +0.000 A 
ATOM     16  N   UNL     1      53.928   2.615  19.282  0.00  0.00    +0.000 NA
ENDBRANCH  10  11
BRANCH  10  18
ATOM     17  C   UNL     1      55.772   7.010  19.586  0.00  0.00    +0.000 C 
ATOM     18  C   UNL     1      54.634   6.313  18.856  0.00  0.00    +0.000 C 
ENDBRANCH  10  18
ENDBRANCH   8  10
ENDBRANCH   7   8
ENDBRANCH   1   7
BRANCH   4  19
ATOM     19  C   UNL     1      47.433   3.533  16.438  0.00  0.00    +0.000 C 
BRANCH  19  20
ATOM     20  N   UNL     1      46.777   4.453  15.545  0.00  0.00    +0.000 N 
ATOM     21  C   UNL     1      46.872   4.311  14.187  0.00  0.00    +0.000 C 
ATOM     22  O   UNL     1      47.483   3.377  13.672  0.00  0.00    +0.000 OA
ATOM     23  H   UNL     1      46.461   5.333  15.939  0.00  0.00    +0.000 HD
BRANCH  21  24
ATOM     24  C   UNL     1      46.148   5.294  13.372  0.00  0.00    +0.000 A 
ATOM     25  C   UNL     1      46.711   6.545  13.153  0.00  0.00    +0.000 A 
ATOM     26  S   UNL     1      45.775   7.551  12.146  0.00  0.00    +0.000 S 
ATOM     27  C   UNL     1      44.557   6.368  12.005  0.00  0.00    +0.000 A 
ATOM     28  N   UNL     1      43.434   6.608  11.278  0.00  0.00    +0.000 NA
ATOM     29  C   UNL     1      42.583   5.637  11.278  0.00  0.00    +0.000 A 
ATOM     30  N   UNL     1      42.754   4.448  11.938  0.00  0.00    +0.000 N 
ATOM     31  C   UNL     1      43.884   4.154  12.664  0.00  0.00    +0.000 A 
ATOM     32  O   UNL     1      44.021   3.066  13.214  0.00  0.00    +0.000 OA
ATOM     33  C   UNL     1      44.871   5.215  12.704  0.00  0.00    +0.000 A 
ATOM     34  H   UNL     1      42.052   3.725  11.892  0.00  0.00    +0.000 HD
ENDBRANCH  21  24
ENDBRANCH  19  20
ENDBRANCH   4  19
TORSDOF 8
ENDMDL
