MODEL 1
REMARK VINA RESULT:    -7.779      0.000      0.000
REMARK INTER + INTRA:          -9.558
REMARK INTER:                  -9.143
REMARK INTRA:                  -0.415
REMARK UNBOUND:                -0.415
REMARK  Name = 
REMARK  3 active torsions:
REMARK  status: ('A' for Active; 'I' for Inactive)
REMARK    1  A    between atoms: C_2  and  C_4
REMARK    2  A    between atoms: N_8  and  C_9
REMARK    3  A    between atoms: C_9  and  C_10
REMARK                            x       y       z     vdW  Elec       q    Type
REMARK                         _______ _______ _______ _____ _____    ______ ____
ROOT
ATOM      1  C   UNL     1      46.525   5.037  13.439  0.00  0.00    +0.000 A 
ATOM      2  C   UNL     1      46.811   6.134  12.648  0.00  0.00    +0.000 A 
ATOM      3  C   UNL     1      46.327   6.170  11.336  0.00  0.00    +0.000 A 
ATOM      4  C   UNL     1      45.548   5.116  10.854  0.00  0.00    +0.000 A 
ATOM      5  N   UNL     1      45.143   5.134   9.517  0.00  0.00    +0.000 N 
ATOM      6  N   UNL     1      45.278   4.040  11.617  0.00  0.00    +0.000 NA
ATOM      7  C   UNL     1      45.779   4.010  12.884  0.00  0.00    +0.000 A 
ATOM      8  H   UNL     1      44.942   6.057   9.144  0.00  0.00    +0.000 HD
ENDROOT
BRANCH   1  10
ATOM      9  N   UNL     1      47.871   5.912  15.259  0.00  0.00    +0.000 N 
ATOM     10  C   UNL     1      47.050   4.908  14.817  0.00  0.00    +0.000 C 
ATOM     11  O   UNL     1      46.764   3.960  15.518  0.00  0.00    +0.000 OA
ATOM     12  H   UNL     1      48.205   5.839  16.217  0.00  0.00    +0.000 HD
ATOM     13  H   UNL     1      47.973   6.797  14.792  0.00  0.00    +0.000 HD
ENDBRANCH   1  10
BRANCH   5  14
ATOM     14  C   UNL     1      44.308   4.031   9.055  0.00  0.00    +0.000 C 
BRANCH  14  15
ATOM     15  C   UNL     1      45.048   3.143   8.030  0.00  0.00    +0.000 C 
ATOM     16  C   UNL     1      45.626   1.899   8.737  0.00  0.00    +0.000 C 
ATOM     17  C   UNL     1      46.461   1.033   7.798  0.00  0.00    +0.000 C 
ATOM     18  C   UNL     1      47.573   1.844   7.141  0.00  0.00    +0.000 C 
ATOM     19  C   UNL     1      47.010   3.057   6.409  0.00  0.00    +0.000 C 
ATOM     20  C   UNL     1      46.170   3.930   7.336  0.00  0.00    +0.000 C 
ENDBRANCH  14  15
ENDBRANCH   5  14
TORSDOF 3
ENDMDL
MODEL 2
REMARK VINA RESULT:    -7.440      3.058      6.406
REMARK INTER + INTRA:          -9.160
REMARK INTER:                  -8.825
REMARK INTRA:                  -0.335
REMARK UNBOUND:                -0.415
REMARK  Name = 
REMARK  3 active torsions:
REMARK  status: ('A' for Active; 'I' for Inactive)
REMARK    1  A    between atoms: C_2  and  C_4
REMARK    2  A    between atoms: N_8  and  C_9
REMARK    3  A    between atoms: C_9  and  C_10
REMARK                            x       y       z     vdW  Elec       q    Type
REMARK                         _______ _______ _______ _____ _____    ______ ____
ROOT
ATOM      1  C   UNL     1      46.538   2.558   7.342  0.00  0.00    +0.000 A 
ATOM      2  C   UNL     1      46.035   1.517   8.101  0.00  0.00    +0.000 A 
ATOM      3  C   UNL     1      45.131   1.802   9.129  0.00  0.00    +0.000 A 
ATOM      4  C   UNL     1      44.733   3.121   9.359  0.00  0.00    +0.000 A 
ATOM      5  N   UNL     1      43.892   3.391  10.442  0.00  0.00    +0.000 N 
ATOM      6  N   UNL     1      45.231   4.138   8.631  0.00  0.00    +0.000 NA
ATOM      7  C   UNL     1      46.130   3.846   7.650  0.00  0.00    +0.000 A 
ATOM      8  H   UNL     1      43.209   2.667  10.644  0.00  0.00    +0.000 HD
ENDROOT
BRANCH   1  10
ATOM      9  N   UNL     1      47.548   3.236   5.241  0.00  0.00    +0.000 N 
ATOM     10  C   UNL     1      47.539   2.336   6.275  0.00  0.00    +0.000 C 
ATOM     11  O   UNL     1      48.315   1.404   6.317  0.00  0.00    +0.000 OA
ATOM     12  H   UNL     1      48.258   3.102   4.525  0.00  0.00    +0.000 HD
ATOM     13  H   UNL     1      47.064   4.118   5.265  0.00  0.00    +0.000 HD
ENDBRANCH   1  10
BRANCH   5  14
ATOM     14  C   UNL     1      43.475   4.776  10.635  0.00  0.00    +0.000 C 
BRANCH  14  15
ATOM     15  C   UNL     1      44.202   5.431  11.831  0.00  0.00    +0.000 C 
ATOM     16  C   UNL     1      45.007   6.655  11.345  0.00  0.00    +0.000 C 
ATOM     17  C   UNL     1      45.835   7.284  12.462  0.00  0.00    +0.000 C 
ATOM     18  C   UNL     1      46.756   6.258  13.113  0.00  0.00    +0.000 C 
ATOM     19  C   UNL     1      45.967   5.060  13.628  0.00  0.00    +0.000 C 
ATOM     20  C   UNL     1      45.133   4.423  12.522  0.00  0.00    +0.000 C 
ENDBRANCH  14  15
ENDBRANCH   5  14
TORSDOF 3
ENDMDL
MODEL 3
REMARK VINA RESULT:    -7.207      1.204      1.643
REMARK INTER + INTRA:          -8.886
REMARK INTER:                  -8.538
REMARK INTRA:                  -0.348
REMARK UNBOUND:                -0.415
REMARK  Name = 
REMARK  3 active torsions:
REMARK  status: ('A' for Active; 'I' for Inactive)
REMARK    1  A    between atoms: C_2  and  C_4
REMARK    2  A    between atoms: N_8  and  C_9
REMARK    3  A    between atoms: C_9  and  C_10
REMARK                            x       y       z     vdW  Elec       q    Type
REMARK                         _______ _______ _______ _____ _____    ______ ____
ROOT
ATOM      1  C   UNL     1      46.815   5.701  13.074  0.00  0.00    +0.000 A 
ATOM      2  C   UNL     1      46.344   4.475  13.505  0.00  0.00    +0.000 A 
ATOM      3  C   UNL     1      45.577   3.697  12.632  0.00  0.00    +0.000 A 
ATOM      4  C   UNL     1      45.318   4.155  11.338  0.00  0.00    +0.000 A 
ATOM      5  N   UNL     1      44.484   3.399  10.511  0.00  0.00    +0.000 N 
ATOM      6  N   UNL     1      45.764   5.354  10.919  0.00  0.00    +0.000 NA
ATOM      7  C   UNL     1      46.489   6.110  11.791  0.00  0.00    +0.000 A 
ATOM      8  H   UNL     1      44.558   2.394  10.632  0.00  0.00    +0.000 HD
ENDROOT
BRANCH   1  10
ATOM      9  N   UNL     1      47.174   7.906  14.023  0.00  0.00    +0.000 N 
ATOM     10  C   UNL     1      47.586   6.600  13.962  0.00  0.00    +0.000 C 
ATOM     11  O   UNL     1      48.533   6.198  14.604  0.00  0.00    +0.000 OA
ATOM     12  H   UNL     1      47.683   8.516  14.659  0.00  0.00    +0.000 HD
ATOM     13  H   UNL     1      46.291   8.230  13.667  0.00  0.00    +0.000 HD
ENDBRANCH   1  10
BRANCH   5  14
ATOM     14  C   UNL     1      44.258   3.894   9.157  0.00  0.00    +0.000 C 
BRANCH  14  15
ATOM     15  C   UNL     1      45.001   3.042   8.105  0.00  0.00    +0.000 C 
ATOM     16  C   UNL     1      45.617   1.798   8.780  0.00  0.00    +0.000 C 
ATOM     17  C   UNL     1      46.456   0.969   7.812  0.00  0.00    +0.000 C 
ATOM     18  C   UNL     1      47.540   1.816   7.154  0.00  0.00    +0.000 C 
ATOM     19  C   UNL     1      46.939   3.030   6.454  0.00  0.00    +0.000 C 
ATOM     20  C   UNL     1      46.095   3.866   7.409  0.00  0.00    +0.000 C 
ENDBRANCH  14  15
ENDBRANCH   5  14
TORSDOF 3
ENDMDL
MODEL 4
REMARK VINA RESULT:    -7.201      2.039      2.762
REMARK INTER + INTRA:          -8.879
REMARK INTER:                  -8.704
REMARK INTRA:                  -0.175
REMARK UNBOUND:                -0.415
REMARK  Name = 
REMARK  3 active torsions:
REMARK  status: ('A' for Active; 'I' for Inactive)
REMARK    1  A    between atoms: C_2  and  C_4
REMARK    2  A    between atoms: N_8  and  C_9
REMARK    3  A    between atoms: C_9  and  C_10
REMARK                            x       y       z     vdW  Elec       q    Type
REMARK                         _______ _______ _______ _____ _____    ______ ____
ROOT
ATOM      1  C   UNL     1      45.513   6.793  12.444  0.00  0.00    +0.000 A 
ATOM      2  C   UNL     1      45.707   5.736  13.315  0.00  0.00    +0.000 A 
ATOM      3  C   UNL     1      45.505   4.431  12.855  0.00  0.00    +0.000 A 
ATOM      4  C   UNL     1      45.134   4.212  11.527  0.00  0.00    +0.000 A 
ATOM      5  N   UNL     1      44.860   2.906  11.111  0.00  0.00    +0.000 N 
ATOM      6  N   UNL     1      44.931   5.238  10.679  0.00  0.00    +0.000 NA
ATOM      7  C   UNL     1      45.108   6.504  11.150  0.00  0.00    +0.000 A 
ATOM      8  H   UNL     1      45.429   2.189  11.549  0.00  0.00    +0.000 HD
ENDROOT
BRANCH   1  10
ATOM      9  N   UNL     1      46.574   8.452  13.862  0.00  0.00    +0.000 N 
ATOM     10  C   UNL     1      45.655   8.200  12.877  0.00  0.00    +0.000 C 
ATOM     11  O   UNL     1      44.991   9.087  12.381  0.00  0.00    +0.000 OA
ATOM     12  H   UNL     1      46.695   9.424  14.136  0.00  0.00    +0.000 HD
ATOM     13  H   UNL     1      47.272   7.790  14.156  0.00  0.00    +0.000 HD
ENDBRANCH   1  10
BRANCH   5  14
ATOM     14  C   UNL     1      44.502   2.712   9.710  0.00  0.00    +0.000 C 
BRANCH  14  15
ATOM     15  C   UNL     1      45.752   2.647   8.804  0.00  0.00    +0.000 C 
ATOM     16  C   UNL     1      45.588   3.622   7.618  0.00  0.00    +0.000 C 
ATOM     17  C   UNL     1      46.744   3.528   6.626  0.00  0.00    +0.000 C 
ATOM     18  C   UNL     1      46.929   2.099   6.127  0.00  0.00    +0.000 C 
ATOM     19  C   UNL     1      47.127   1.132   7.289  0.00  0.00    +0.000 C 
ATOM     20  C   UNL     1      45.980   1.218   8.290  0.00  0.00    +0.000 C 
ENDBRANCH  14  15
ENDBRANCH   5  14
TORSDOF 3
ENDMDL
MODEL 5
REMARK VINA RESULT:    -6.050      3.208      7.325
REMARK INTER + INTRA:          -7.526
REMARK INTER:                  -7.242
REMARK INTRA:                  -0.283
REMARK UNBOUND:                -0.415
REMARK  Name = 
REMARK  3 active torsions:
REMARK  status: ('A' for Active; 'I' for Inactive)
REMARK    1  A    between atoms: C_2  and  C_4
REMARK    2  A    between atoms: N_8  and  C_9
REMARK    3  A    between atoms: C_9  and  C_10
REMARK                            x       y       z     vdW  Elec       q    Type
REMARK                         _______ _______ _______ _____ _____    ______ ____
ROOT
ATOM      1  C   UNL     1      45.412   5.075  11.779  0.00  0.00    +0.000 A 
ATOM      2  C   UNL     1      46.361   6.041  12.055  0.00  0.00    +0.000 A 
ATOM      3  C   UNL     1      47.049   5.989  13.272  0.00  0.00    +0.000 A 
ATOM      4  C   UNL     1      46.785   4.956  14.175  0.00  0.00    +0.000 A 
ATOM      5  N   UNL     1      47.424   4.969  15.418  0.00  0.00    +0.000 N 
ATOM      6  N   UNL     1      45.852   4.021  13.915  0.00  0.00    +0.000 NA
ATOM      7  C   UNL     1      45.174   4.101  12.736  0.00  0.00    +0.000 A 
ATOM      8  H   UNL     1      48.372   5.335  15.407  0.00  0.00    +0.000 HD
ENDROOT
BRANCH   1  10
ATOM      9  N   UNL     1      45.302   5.160   9.355  0.00  0.00    +0.000 N 
ATOM     10  C   UNL     1      44.608   5.100  10.536  0.00  0.00    +0.000 C 
ATOM     11  O   UNL     1      43.396   5.067  10.563  0.00  0.00    +0.000 OA
ATOM     12  H   UNL     1      44.751   5.144   8.501  0.00  0.00    +0.000 HD
ATOM     13  H   UNL     1      46.291   4.992   9.280  0.00  0.00    +0.000 HD
ENDBRANCH   1  10
BRANCH   5  14
ATOM     14  C   UNL     1      47.147   3.860  16.324  0.00  0.00    +0.000 C 
BRANCH  14  15
ATOM     15  C   UNL     1      48.367   3.525  17.209  0.00  0.00    +0.000 C 
ATOM     16  C   UNL     1      49.284   4.761  17.325  0.00  0.00    +0.000 C 
ATOM     17  C   UNL     1      50.564   4.463  18.101  0.00  0.00    +0.000 C 
ATOM     18  C   UNL     1      51.320   3.288  17.489  0.00  0.00    +0.000 C 
ATOM     19  C   UNL     1      50.434   2.050  17.402  0.00  0.00    +0.000 C 
ATOM     20  C   UNL     1      49.149   2.335  16.632  0.00  0.00    +0.000 C 
ENDBRANCH  14  15
ENDBRANCH   5  14
TORSDOF 3
ENDMDL
MODEL 6
REMARK VINA RESULT:    -5.842      3.087      7.847
REMARK INTER + INTRA:          -7.281
REMARK INTER:                  -7.079
REMARK INTRA:                  -0.202
REMARK UNBOUND:                -0.415
REMARK  Name = 
REMARK  3 active torsions:
REMARK  status: ('A' for Active; 'I' for Inactive)
REMARK    1  A    between atoms: C_2  and  C_4
REMARK    2  A    between atoms: N_8  and  C_9
REMARK    3  A    between atoms: C_9  and  C_10
REMARK                            x       y       z     vdW  Elec       q    Type
REMARK                         _______ _______ _______ _____ _____    ______ ____
ROOT
ATOM      1  C   UNL     1      45.003   4.393  11.506  0.00  0.00    +0.000 A 
ATOM      2  C   UNL     1      45.463   5.689  11.644  0.00  0.00    +0.000 A 
ATOM      3  C   UNL     1      46.215   6.027  12.775  0.00  0.00    +0.000 A 
ATOM      4  C   UNL     1      46.507   5.052  13.731  0.00  0.00    +0.000 A 
ATOM      5  N   UNL     1      47.189   5.429  14.891  0.00  0.00    +0.000 N 
ATOM      6  N   UNL     1      46.050   3.791  13.607  0.00  0.00    +0.000 NA
ATOM      7  C   UNL     1      45.299   3.486  12.512  0.00  0.00    +0.000 A 
ATOM      8  H   UNL     1      47.880   6.162  14.761  0.00  0.00    +0.000 HD
ENDROOT
BRANCH   1  10
ATOM      9  N   UNL     1      44.259   4.728   9.221  0.00  0.00    +0.000 N 
ATOM     10  C   UNL     1      44.158   3.979  10.365  0.00  0.00    +0.000 C 
ATOM     11  O   UNL     1      43.414   3.024  10.439  0.00  0.00    +0.000 OA
ATOM     12  H   UNL     1      43.702   4.424   8.426  0.00  0.00    +0.000 HD
ATOM     13  H   UNL     1      44.993   5.395   9.053  0.00  0.00    +0.000 HD
ENDBRANCH   1  10
BRANCH   5  14
ATOM     14  C   UNL     1      47.502   4.380  15.854  0.00  0.00    +0.000 C 
BRANCH  14  15
ATOM     15  C   UNL     1      48.210   4.944  17.106  0.00  0.00    +0.000 C 
ATOM     16  C   UNL     1      49.318   3.971  17.562  0.00  0.00    +0.000 C 
ATOM     17  C   UNL     1      49.986   4.420  18.859  0.00  0.00    +0.000 C 
ATOM     18  C   UNL     1      48.959   4.624  19.967  0.00  0.00    +0.000 C 
ATOM     19  C   UNL     1      47.878   5.611  19.541  0.00  0.00    +0.000 C 
ATOM     20  C   UNL     1      47.205   5.175  18.244  0.00  0.00    +0.000 C 
ENDBRANCH  14  15
ENDBRANCH   5  14
TORSDOF 3
ENDMDL
MODEL 7
REMARK VINA RESULT:    -5.583      2.617      4.354
REMARK INTER + INTRA:          -6.977
REMARK INTER:                  -6.735
REMARK INTRA:                  -0.242
REMARK UNBOUND:                -0.415
REMARK  Name = 
REMARK  3 active torsions:
REMARK  status: ('A' for Active; 'I' for Inactive)
REMARK    1  A    between atoms: C_2  and  C_4
REMARK    2  A    between atoms: N_8  and  C_9
REMARK    3  A    between atoms: C_9  and  C_10
REMARK                            x       y       z     vdW  Elec       q    Type
REMARK                         _______ _______ _______ _____ _____    ______ ____
ROOT
ATOM      1  C   UNL     1      48.533   4.189  17.046  0.00  0.00    +0.000 A 
ATOM      2  C   UNL     1      48.879   5.427  16.536  0.00  0.00    +0.000 A 
ATOM      3  C   UNL     1      48.157   5.942  15.454  0.00  0.00    +0.000 A 
ATOM      4  C   UNL     1      47.090   5.214  14.921  0.00  0.00    +0.000 A 
ATOM      5  N   UNL     1      46.435   5.709  13.791  0.00  0.00    +0.000 N 
ATOM      6  N   UNL     1      46.759   4.002  15.407  0.00  0.00    +0.000 NA
ATOM      7  C   UNL     1      47.488   3.506  16.445  0.00  0.00    +0.000 A 
ATOM      8  H   UNL     1      46.364   6.721  13.747  0.00  0.00    +0.000 HD
ENDROOT
BRANCH   1  10
ATOM      9  N   UNL     1      48.608   3.366  19.328  0.00  0.00    +0.000 N 
ATOM     10  C   UNL     1      49.287   3.561  18.153  0.00  0.00    +0.000 C 
ATOM     11  O   UNL     1      50.447   3.232  18.024  0.00  0.00    +0.000 OA
ATOM     12  H   UNL     1      49.117   2.904  20.078  0.00  0.00    +0.000 HD
ATOM     13  H   UNL     1      47.609   3.441  19.415  0.00  0.00    +0.000 HD
ENDBRANCH   1  10
BRANCH   5  14
ATOM     14  C   UNL     1      45.309   4.937  13.278  0.00  0.00    +0.000 C 
BRANCH  14  15
ATOM     15  C   UNL     1      45.565   4.437  11.839  0.00  0.00    +0.000 C 
ATOM     16  C   UNL     1      45.437   5.614  10.848  0.00  0.00    +0.000 C 
ATOM     17  C   UNL     1      45.574   5.165   9.395  0.00  0.00    +0.000 C 
ATOM     18  C   UNL     1      44.570   4.067   9.059  0.00  0.00    +0.000 C 
ATOM     19  C   UNL     1      44.710   2.885  10.011  0.00  0.00    +0.000 C 
ATOM     20  C   UNL     1      44.579   3.319  11.467  0.00  0.00    +0.000 C 
ENDBRANCH  14  15
ENDBRANCH   5  14
TORSDOF 3
ENDMDL
MODEL 8
REMARK VINA RESULT:    -5.439      3.241      6.235
REMARK INTER + INTRA:          -6.808
REMARK INTER:                  -6.551
REMARK INTRA:                  -0.256
REMARK UNBOUND:                -0.415
REMARK  Name = 
REMARK  3 active torsions:
REMARK  status: ('A' for Active; 'I' for Inactive)
REMARK    1  A    between atoms: C_2  and  C_4
REMARK    2  A    between atoms: N_8  and  C_9
REMARK    3  A    between atoms: C_9  and  C_10
REMARK                            x       y       z     vdW  Elec       q    Type
REMARK                         _______ _______ _______ _____ _____    ______ ____
ROOT
ATOM      1  C   UNL     1      44.808   3.922  11.775  0.00  0.00    +0.000 A 
ATOM      2  C   UNL     1      45.629   3.621  12.847  0.00  0.00    +0.000 A 
ATOM      3  C   UNL     1      46.322   4.657  13.483  0.00  0.00    +0.000 A 
ATOM      4  C   UNL     1      46.160   5.973  13.044  0.00  0.00    +0.000 A 
ATOM      5  N   UNL     1      46.923   6.980  13.641  0.00  0.00    +0.000 N 
ATOM      6  N   UNL     1      45.372   6.268  11.993  0.00  0.00    +0.000 NA
ATOM      7  C   UNL     1      44.724   5.244  11.370  0.00  0.00    +0.000 A 
ATOM      8  H   UNL     1      47.105   6.848  14.632  0.00  0.00    +0.000 HD
ENDROOT
BRANCH   1  10
ATOM      9  N   UNL     1      44.737   2.336   9.939  0.00  0.00    +0.000 N 
ATOM     10  C   UNL     1      44.089   2.871  11.022  0.00  0.00    +0.000 C 
ATOM     11  O   UNL     1      42.981   2.502  11.349  0.00  0.00    +0.000 OA
ATOM     12  H   UNL     1      44.256   1.591   9.441  0.00  0.00    +0.000 HD
ATOM     13  H   UNL     1      45.717   2.470   9.753  0.00  0.00    +0.000 HD
ENDBRANCH   1  10
BRANCH   5  14
ATOM     14  C   UNL     1      46.708   8.346  13.178  0.00  0.00    +0.000 C 
BRANCH  14  15
ATOM     15  C   UNL     1      47.732   8.751  12.095  0.00  0.00    +0.000 C 
ATOM     16  C   UNL     1      49.108   8.131  12.419  0.00  0.00    +0.000 C 
ATOM     17  C   UNL     1      50.192   8.581  11.443  0.00  0.00    +0.000 C 
ATOM     18  C   UNL     1      50.287  10.102  11.386  0.00  0.00    +0.000 C 
ATOM     19  C   UNL     1      48.941  10.724  11.032  0.00  0.00    +0.000 C 
ATOM     20  C   UNL     1      47.848  10.280  11.998  0.00  0.00    +0.000 C 
ENDBRANCH  14  15
ENDBRANCH   5  14
TORSDOF 3
ENDMDL
MODEL 9
REMARK VINA RESULT:    -5.405      3.848      5.626
REMARK INTER + INTRA:          -6.768
REMARK INTER:                  -6.506
REMARK INTRA:                  -0.262
REMARK UNBOUND:                -0.415
REMARK  Name = 
REMARK  3 active torsions:
REMARK  status: ('A' for Active; 'I' for Inactive)
REMARK    1  A    between atoms: C_2  and  C_4
REMARK    2  A    between atoms: N_8  and  C_9
REMARK    3  A    between atoms: C_9  and  C_10
REMARK                            x       y       z     vdW  Elec       q    Type
REMARK                         _______ _______ _______ _____ _____    ______ ____
ROOT
ATOM      1  C   UNL     1      48.845   4.806  17.839  0.00  0.00    +0.000 A 
ATOM      2  C   UNL     1      47.886   3.810  17.845  0.00  0.00    +0.000 A 
ATOM      3  C   UNL     1      47.094   3.622  16.708  0.00  0.00    +0.000 A 
ATOM      4  C   UNL     1      47.294   4.424  15.582  0.00  0.00    +0.000 A 
ATOM      5  N   UNL     1      46.439   4.275  14.487  0.00  0.00    +0.000 N 
ATOM      6  N   UNL     1      48.217   5.405  15.577  0.00  0.00    +0.000 NA
ATOM      7  C   UNL     1      48.964   5.589  16.702  0.00  0.00    +0.000 A 
ATOM      8  H   UNL     1      46.122   3.324  14.320  0.00  0.00    +0.000 HD
ENDROOT
BRANCH   1  10
ATOM      9  N   UNL     1      49.504   4.283  20.116  0.00  0.00    +0.000 N 
ATOM     10  C   UNL     1      49.680   5.096  19.026  0.00  0.00    +0.000 C 
ATOM     11  O   UNL     1      50.482   6.006  19.031  0.00  0.00    +0.000 OA
ATOM     12  H   UNL     1      50.102   4.462  20.919  0.00  0.00    +0.000 HD
ATOM     13  H   UNL     1      49.003   3.412  20.087  0.00  0.00    +0.000 HD
ENDBRANCH   1  10
BRANCH   5  14
ATOM     14  C   UNL     1      46.695   5.109  13.319  0.00  0.00    +0.000 C 
BRANCH  14  15
ATOM     15  C   UNL     1      45.551   5.014  12.286  0.00  0.00    +0.000 C 
ATOM     16  C   UNL     1      44.673   6.282  12.361  0.00  0.00    +0.000 C 
ATOM     17  C   UNL     1      43.460   6.203  11.438  0.00  0.00    +0.000 C 
ATOM     18  C   UNL     1      42.630   4.955  11.721  0.00  0.00    +0.000 C 
ATOM     19  C   UNL     1      43.479   3.694  11.615  0.00  0.00    +0.000 C 
ATOM     20  C   UNL     1      44.697   3.761  12.530  0.00  0.00    +0.000 C 
ENDBRANCH  14  15
ENDBRANCH   5  14
TORSDOF 3
ENDMDL
