MODEL 1
REMARK VINA RESULT:    -7.634      0.000      0.000
REMARK INTER + INTRA:         -10.329
REMARK INTER:                  -9.642
REMARK INTRA:                  -0.687
REMARK UNBOUND:                -0.687
REMARK  Name = 
REMARK  8 active torsions:
REMARK  status: ('A' for Active; 'I' for Inactive)
REMARK    1  A    between atoms: C_1  and  C_2
REMARK    2  A    between atoms: C_2  and  C_3
REMARK    3  A    between atoms: C_2  and  C_4
REMARK    4  A    between atoms: C_2  and  C_5
REMARK    5  A    between atoms: C_8  and  C_9
REMARK    6  A    between atoms: C_9  and  N_10
REMARK    7  A    between atoms: C_15  and  C_16
REMARK    8  A    between atoms: C_16  and  O_18
REMARK                            x       y       z     vdW  Elec       q    Type
REMARK                         _______ _______ _______ _____ _____    ______ ____
ROOT
ATOM      1  N   UNL     1      44.418   4.318  10.329  0.00  0.00    +0.000 N 
ATOM      2  C   UNL     1      43.808   3.185  10.819  0.00  0.00    +0.000 A 
ATOM      3  C   UNL     1      44.238   2.111  10.071  0.00  0.00    +0.000 A 
ATOM      4  C   UNL     1      45.135   2.602   9.090  0.00  0.00    +0.000 A 
ATOM      5  C   UNL     1      45.872   2.024   8.038  0.00  0.00    +0.000 A 
ATOM      6  C   UNL     1      46.666   2.873   7.263  0.00  0.00    +0.000 A 
ATOM      7  C   UNL     1      46.673   4.236   7.548  0.00  0.00    +0.000 A 
ATOM      8  N   UNL     1      45.979   4.840   8.548  0.00  0.00    +0.000 NA
ATOM      9  C   UNL     1      45.235   3.981   9.275  0.00  0.00    +0.000 A 
ENDROOT
BRANCH   6  10
ATOM     10  C   UNL     1      47.458   2.402   6.108  0.00  0.00    +0.000 C 
ATOM     11  O   UNL     1      48.167   1.411   6.162  0.00  0.00    +0.000 OA
BRANCH  10  12
ATOM     12  O   UNL     1      47.314   3.140   4.988  0.00  0.00    +0.000 OA
ATOM     13  H   UNL     1      46.468   3.614   4.895  0.00  0.00    +0.000 HD
ENDBRANCH  10  12
ENDBRANCH   6  10
BRANCH   1  14
ATOM     14  C   UNL     1      44.159   5.676  10.801  0.00  0.00    +0.000 C 
BRANCH  14  18
ATOM     15  C   UNL     1      47.322   7.147  13.423  0.00  0.00    +0.000 A 
ATOM     16  C   UNL     1      46.569   8.010  12.611  0.00  0.00    +0.000 A 
ATOM     17  C   UNL     1      45.549   7.536  11.781  0.00  0.00    +0.000 A 
ATOM     18  C   UNL     1      45.242   6.174  11.726  0.00  0.00    +0.000 A 
ATOM     19  C   UNL     1      45.949   5.304  12.563  0.00  0.00    +0.000 A 
ATOM     20  C   UNL     1      46.970   5.785  13.399  0.00  0.00    +0.000 A 
BRANCH  15  22
ATOM     21  C   UNL     1      49.813   7.799  13.490  0.00  0.00    +0.000 C 
ATOM     22  C   UNL     1      48.495   7.650  14.285  0.00  0.00    +0.000 C 
ATOM     23  C   UNL     1      48.770   6.650  15.429  0.00  0.00    +0.000 C 
ATOM     24  C   UNL     1      48.167   9.027  14.896  0.00  0.00    +0.000 C 
ENDBRANCH  15  22
ENDBRANCH  14  18
ENDBRANCH   1  14
TORSDOF 5
ENDMDL
MODEL 2
REMARK VINA RESULT:    -7.167      3.390      7.333
REMARK INTER + INTRA:          -9.740
REMARK INTER:                  -9.038
REMARK INTRA:                  -0.702
REMARK UNBOUND:                -0.687
REMARK  Name = 
REMARK  8 active torsions:
REMARK  status: ('A' for Active; 'I' for Inactive)
REMARK    1  A    between atoms: C_1  and  C_2
REMARK    2  A    between atoms: C_2  and  C_3
REMARK    3  A    between atoms: C_2  and  C_4
REMARK    4  A    between atoms: C_2  and  C_5
REMARK    5  A    between atoms: C_8  and  C_9
REMARK    6  A    between atoms: C_9  and  N_10
REMARK    7  A    between atoms: C_15  and  C_16
REMARK    8  A    between atoms: C_16  and  O_18
REMARK                            x       y       z     vdW  Elec       q    Type
REMARK                         _______ _______ _______ _____ _____    ______ ____
ROOT
ATOM      1  N   UNL     1      44.611   6.069  11.601  0.00  0.00    +0.000 N 
ATOM      2  C   UNL     1      44.233   7.365  11.330  0.00  0.00    +0.000 A 
ATOM      3  C   UNL     1      45.102   8.210  11.987  0.00  0.00    +0.000 A 
ATOM      4  C   UNL     1      46.036   7.407  12.686  0.00  0.00    +0.000 A 
ATOM      5  C   UNL     1      47.128   7.665  13.537  0.00  0.00    +0.000 A 
ATOM      6  C   UNL     1      47.822   6.564  14.049  0.00  0.00    +0.000 A 
ATOM      7  C   UNL     1      47.393   5.283  13.716  0.00  0.00    +0.000 A 
ATOM      8  N   UNL     1      46.346   4.983  12.902  0.00  0.00    +0.000 NA
ATOM      9  C   UNL     1      45.713   6.075  12.426  0.00  0.00    +0.000 A 
ENDROOT
BRANCH   6  10
ATOM     10  C   UNL     1      48.961   6.695  14.982  0.00  0.00    +0.000 C 
ATOM     11  O   UNL     1      48.842   6.533  16.185  0.00  0.00    +0.000 OA
BRANCH  10  12
ATOM     12  O   UNL     1      50.140   6.980  14.392  0.00  0.00    +0.000 OA
ATOM     13  H   UNL     1      50.147   6.960  13.418  0.00  0.00    +0.000 HD
ENDBRANCH  10  12
ENDBRANCH   6  10
BRANCH   1  14
ATOM     14  C   UNL     1      43.891   4.879  11.156  0.00  0.00    +0.000 C 
BRANCH  14  18
ATOM     15  C   UNL     1      46.034   2.733   8.019  0.00  0.00    +0.000 A 
ATOM     16  C   UNL     1      45.280   2.063   8.995  0.00  0.00    +0.000 A 
ATOM     17  C   UNL     1      44.585   2.755   9.991  0.00  0.00    +0.000 A 
ATOM     18  C   UNL     1      44.621   4.150  10.055  0.00  0.00    +0.000 A 
ATOM     19  C   UNL     1      45.329   4.839   9.063  0.00  0.00    +0.000 A 
ATOM     20  C   UNL     1      46.021   4.140   8.061  0.00  0.00    +0.000 A 
BRANCH  15  22
ATOM     21  C   UNL     1      48.319   2.484   6.855  0.00  0.00    +0.000 C 
ATOM     22  C   UNL     1      46.861   1.978   6.962  0.00  0.00    +0.000 C 
ATOM     23  C   UNL     1      46.220   2.157   5.568  0.00  0.00    +0.000 C 
ATOM     24  C   UNL     1      46.919   0.473   7.293  0.00  0.00    +0.000 C 
ENDBRANCH  15  22
ENDBRANCH  14  18
ENDBRANCH   1  14
TORSDOF 5
ENDMDL
MODEL 3
REMARK VINA RESULT:    -6.080      5.249      8.893
REMARK INTER + INTRA:          -8.366
REMARK INTER:                  -7.699
REMARK INTRA:                  -0.667
REMARK UNBOUND:                -0.687
REMARK  Name = 
REMARK  8 active torsions:
REMARK  status: ('A' for Active; 'I' for Inactive)
REMARK    1  A    between atoms: C_1  and  C_2
REMARK    2  A    between atoms: C_2  and  C_3
REMARK    3  A    between atoms: C_2  and  C_4
REMARK    4  A    between atoms: C_2  and  C_5
REMARK    5  A    between atoms: C_8  and  C_9
REMARK    6  A    between atoms: C_9  and  N_10
REMARK    7  A    between atoms: C_15  and  C_16
REMARK    8  A    between atoms: C_16  and  O_18
REMARK                            x       y       z     vdW  Elec       q    Type
REMARK                         _______ _______ _______ _____ _____    ______ ____
ROOT
ATOM      1  N   UNL     1      48.774   7.322  15.032  0.00  0.00    +0.000 N 
ATOM      2  C   UNL     1      48.392   8.607  15.347  0.00  0.00    +0.000 A 
ATOM      3  C   UNL     1      48.310   8.703  16.719  0.00  0.00    +0.000 A 
ATOM      4  C   UNL     1      48.647   7.439  17.261  0.00  0.00    +0.000 A 
ATOM      5  C   UNL     1      48.724   6.901  18.560  0.00  0.00    +0.000 A 
ATOM      6  C   UNL     1      49.103   5.561  18.684  0.00  0.00    +0.000 A 
ATOM      7  C   UNL     1      49.361   4.825  17.531  0.00  0.00    +0.000 A 
ATOM      8  N   UNL     1      49.299   5.297  16.258  0.00  0.00    +0.000 NA
ATOM      9  C   UNL     1      48.939   6.595  16.188  0.00  0.00    +0.000 A 
ENDROOT
BRANCH   6  10
ATOM     10  C   UNL     1      49.185   4.866  19.985  0.00  0.00    +0.000 C 
ATOM     11  O   UNL     1      49.774   5.339  20.942  0.00  0.00    +0.000 OA
BRANCH  10  12
ATOM     12  O   UNL     1      48.538   3.684  20.032  0.00  0.00    +0.000 OA
ATOM     13  H   UNL     1      48.149   3.443  20.892  0.00  0.00    +0.000 HD
ENDBRANCH  10  12
ENDBRANCH   6  10
BRANCH   1  14
ATOM     14  C   UNL     1      48.893   6.796  13.675  0.00  0.00    +0.000 C 
BRANCH  14  18
ATOM     15  C   UNL     1      45.119   5.237  12.139  0.00  0.00    +0.000 A 
ATOM     16  C   UNL     1      45.775   4.649  13.231  0.00  0.00    +0.000 A 
ATOM     17  C   UNL     1      46.978   5.159  13.728  0.00  0.00    +0.000 A 
ATOM     18  C   UNL     1      47.579   6.278  13.147  0.00  0.00    +0.000 A 
ATOM     19  C   UNL     1      46.916   6.907  12.086  0.00  0.00    +0.000 A 
ATOM     20  C   UNL     1      45.705   6.394  11.593  0.00  0.00    +0.000 A 
BRANCH  15  22
ATOM     21  C   UNL     1      42.590   5.537  11.750  0.00  0.00    +0.000 C 
ATOM     22  C   UNL     1      43.832   4.640  11.538  0.00  0.00    +0.000 C 
ATOM     23  C   UNL     1      43.524   3.281  12.204  0.00  0.00    +0.000 C 
ATOM     24  C   UNL     1      43.992   4.425  10.020  0.00  0.00    +0.000 C 
ENDBRANCH  15  22
ENDBRANCH  14  18
ENDBRANCH   1  14
TORSDOF 5
ENDMDL
MODEL 4
REMARK VINA RESULT:    -6.000      3.370      5.176
REMARK INTER + INTRA:          -8.265
REMARK INTER:                  -7.744
REMARK INTRA:                  -0.522
REMARK UNBOUND:                -0.687
REMARK  Name = 
REMARK  8 active torsions:
REMARK  status: ('A' for Active; 'I' for Inactive)
REMARK    1  A    between atoms: C_1  and  C_2
REMARK    2  A    between atoms: C_2  and  C_3
REMARK    3  A    between atoms: C_2  and  C_4
REMARK    4  A    between atoms: C_2  and  C_5
REMARK    5  A    between atoms: C_8  and  C_9
REMARK    6  A    between atoms: C_9  and  N_10
REMARK    7  A    between atoms: C_15  and  C_16
REMARK    8  A    between atoms: C_16  and  O_18
REMARK                            x       y       z     vdW  Elec       q    Type
REMARK                         _______ _______ _______ _____ _____    ______ ____
ROOT
ATOM      1  N   UNL     1      46.998   6.804  12.993  0.00  0.00    +0.000 N 
ATOM      2  C   UNL     1      47.516   6.213  14.124  0.00  0.00    +0.000 A 
ATOM      3  C   UNL     1      47.061   4.914  14.174  0.00  0.00    +0.000 A 
ATOM      4  C   UNL     1      46.235   4.703  13.043  0.00  0.00    +0.000 A 
ATOM      5  C   UNL     1      45.476   3.623  12.553  0.00  0.00    +0.000 A 
ATOM      6  C   UNL     1      44.768   3.818  11.363  0.00  0.00    +0.000 A 
ATOM      7  C   UNL     1      44.828   5.060  10.739  0.00  0.00    +0.000 A 
ATOM      8  N   UNL     1      45.543   6.132  11.173  0.00  0.00    +0.000 NA
ATOM      9  C   UNL     1      46.215   5.895  12.318  0.00  0.00    +0.000 A 
ENDROOT
BRANCH   6  10
ATOM     10  C   UNL     1      43.905   2.780  10.762  0.00  0.00    +0.000 C 
ATOM     11  O   UNL     1      44.030   2.415   9.605  0.00  0.00    +0.000 OA
BRANCH  10  12
ATOM     12  O   UNL     1      42.990   2.254  11.602  0.00  0.00    +0.000 OA
ATOM     13  H   UNL     1      42.838   1.295  11.523  0.00  0.00    +0.000 HD
ENDBRANCH  10  12
ENDBRANCH   6  10
BRANCH   1  14
ATOM     14  C   UNL     1      47.180   8.205  12.625  0.00  0.00    +0.000 C 
BRANCH  14  18
ATOM     15  C   UNL     1      51.128   9.021  10.958  0.00  0.00    +0.000 A 
ATOM     16  C   UNL     1      50.244  10.053  11.311  0.00  0.00    +0.000 A 
ATOM     17  C   UNL     1      48.985   9.787  11.856  0.00  0.00    +0.000 A 
ATOM     18  C   UNL     1      48.555   8.474  12.066  0.00  0.00    +0.000 A 
ATOM     19  C   UNL     1      49.440   7.433  11.764  0.00  0.00    +0.000 A 
ATOM     20  C   UNL     1      50.707   7.705  11.221  0.00  0.00    +0.000 A 
BRANCH  15  22
ATOM     21  C   UNL     1      52.496  10.597   9.446  0.00  0.00    +0.000 C 
ATOM     22  C   UNL     1      52.488   9.301  10.290  0.00  0.00    +0.000 C 
ATOM     23  C   UNL     1      52.852   8.141   9.338  0.00  0.00    +0.000 C 
ATOM     24  C   UNL     1      53.596   9.437  11.354  0.00  0.00    +0.000 C 
ENDBRANCH  15  22
ENDBRANCH  14  18
ENDBRANCH   1  14
TORSDOF 5
ENDMDL
MODEL 5
REMARK VINA RESULT:    -5.957      3.511      5.560
REMARK INTER + INTRA:          -8.212
REMARK INTER:                  -7.418
REMARK INTRA:                  -0.793
REMARK UNBOUND:                -0.687
REMARK  Name = 
REMARK  8 active torsions:
REMARK  status: ('A' for Active; 'I' for Inactive)
REMARK    1  A    between atoms: C_1  and  C_2
REMARK    2  A    between atoms: C_2  and  C_3
REMARK    3  A    between atoms: C_2  and  C_4
REMARK    4  A    between atoms: C_2  and  C_5
REMARK    5  A    between atoms: C_8  and  C_9
REMARK    6  A    between atoms: C_9  and  N_10
REMARK    7  A    between atoms: C_15  and  C_16
REMARK    8  A    between atoms: C_16  and  O_18
REMARK                            x       y       z     vdW  Elec       q    Type
REMARK                         _______ _______ _______ _____ _____    ______ ____
ROOT
ATOM      1  N   UNL     1      46.106   8.128  12.751  0.00  0.00    +0.000 N 
ATOM      2  C   UNL     1      45.369   8.994  11.974  0.00  0.00    +0.000 A 
ATOM      3  C   UNL     1      44.413   8.259  11.306  0.00  0.00    +0.000 A 
ATOM      4  C   UNL     1      44.573   6.902  11.681  0.00  0.00    +0.000 A 
ATOM      5  C   UNL     1      43.939   5.693  11.335  0.00  0.00    +0.000 A 
ATOM      6  C   UNL     1      44.407   4.523  11.940  0.00  0.00    +0.000 A 
ATOM      7  C   UNL     1      45.478   4.603  12.825  0.00  0.00    +0.000 A 
ATOM      8  N   UNL     1      46.123   5.743  13.188  0.00  0.00    +0.000 NA
ATOM      9  C   UNL     1      45.633   6.847  12.588  0.00  0.00    +0.000 A 
ENDROOT
BRANCH   6  10
ATOM     10  C   UNL     1      43.855   3.186  11.637  0.00  0.00    +0.000 C 
ATOM     11  O   UNL     1      43.562   2.841  10.505  0.00  0.00    +0.000 OA
BRANCH  10  12
ATOM     12  O   UNL     1      43.728   2.375  12.708  0.00  0.00    +0.000 OA
ATOM     13  H   UNL     1      44.537   1.916  12.995  0.00  0.00    +0.000 HD
ENDBRANCH  10  12
ENDBRANCH   6  10
BRANCH   1  14
ATOM     14  C   UNL     1      47.269   8.507  13.548  0.00  0.00    +0.000 C 
BRANCH  14  18
ATOM     15  C   UNL     1      50.938   8.731  11.197  0.00  0.00    +0.000 A 
ATOM     16  C   UNL     1      50.438   7.511  11.679  0.00  0.00    +0.000 A 
ATOM     17  C   UNL     1      49.256   7.442  12.421  0.00  0.00    +0.000 A 
ATOM     18  C   UNL     1      48.526   8.596  12.718  0.00  0.00    +0.000 A 
ATOM     19  C   UNL     1      48.983   9.816  12.207  0.00  0.00    +0.000 A 
ATOM     20  C   UNL     1      50.169   9.880  11.458  0.00  0.00    +0.000 A 
BRANCH  15  22
ATOM     21  C   UNL     1      52.531   7.624   9.501  0.00  0.00    +0.000 C 
ATOM     22  C   UNL     1      52.277   8.826  10.441  0.00  0.00    +0.000 C 
ATOM     23  C   UNL     1      53.447   8.865  11.449  0.00  0.00    +0.000 C 
ATOM     24  C   UNL     1      52.321  10.103   9.578  0.00  0.00    +0.000 C 
ENDBRANCH  15  22
ENDBRANCH  14  18
ENDBRANCH   1  14
TORSDOF 5
ENDMDL
MODEL 6
REMARK VINA RESULT:    -5.927      3.676      6.034
REMARK INTER + INTRA:          -8.174
REMARK INTER:                  -7.411
REMARK INTRA:                  -0.763
REMARK UNBOUND:                -0.687
REMARK  Name = 
REMARK  8 active torsions:
REMARK  status: ('A' for Active; 'I' for Inactive)
REMARK    1  A    between atoms: C_1  and  C_2
REMARK    2  A    between atoms: C_2  and  C_3
REMARK    3  A    between atoms: C_2  and  C_4
REMARK    4  A    between atoms: C_2  and  C_5
REMARK    5  A    between atoms: C_8  and  C_9
REMARK    6  A    between atoms: C_9  and  N_10
REMARK    7  A    between atoms: C_15  and  C_16
REMARK    8  A    between atoms: C_16  and  O_18
REMARK                            x       y       z     vdW  Elec       q    Type
REMARK                         _______ _______ _______ _____ _____    ______ ____
ROOT
ATOM      1  N   UNL     1      47.452   6.999  13.634  0.00  0.00    +0.000 N 
ATOM      2  C   UNL     1      46.904   8.198  13.239  0.00  0.00    +0.000 A 
ATOM      3  C   UNL     1      45.709   7.934  12.605  0.00  0.00    +0.000 A 
ATOM      4  C   UNL     1      45.523   6.529  12.608  0.00  0.00    +0.000 A 
ATOM      5  C   UNL     1      44.537   5.656  12.108  0.00  0.00    +0.000 A 
ATOM      6  C   UNL     1      44.723   4.286  12.316  0.00  0.00    +0.000 A 
ATOM      7  C   UNL     1      45.868   3.854  12.979  0.00  0.00    +0.000 A 
ATOM      8  N   UNL     1      46.846   4.656  13.477  0.00  0.00    +0.000 NA
ATOM      9  C   UNL     1      46.621   5.968  13.260  0.00  0.00    +0.000 A 
ENDROOT
BRANCH   6  10
ATOM     10  C   UNL     1      43.785   3.262  11.811  0.00  0.00    +0.000 C 
ATOM     11  O   UNL     1      43.263   3.339  10.712  0.00  0.00    +0.000 OA
BRANCH  10  12
ATOM     12  O   UNL     1      43.575   2.229  12.652  0.00  0.00    +0.000 OA
ATOM     13  H   UNL     1      42.653   1.924  12.734  0.00  0.00    +0.000 HD
ENDBRANCH  10  12
ENDBRANCH   6  10
BRANCH   1  14
ATOM     14  C   UNL     1      48.760   6.847  14.267  0.00  0.00    +0.000 C 
BRANCH  14  18
ATOM     15  C   UNL     1      48.473   7.097  18.614  0.00  0.00    +0.000 A 
ATOM     16  C   UNL     1      48.492   5.866  17.941  0.00  0.00    +0.000 A 
ATOM     17  C   UNL     1      48.597   5.790  16.549  0.00  0.00    +0.000 A 
ATOM     18  C   UNL     1      48.680   6.946  15.770  0.00  0.00    +0.000 A 
ATOM     19  C   UNL     1      48.710   8.183  16.426  0.00  0.00    +0.000 A 
ATOM     20  C   UNL     1      48.610   8.255  17.825  0.00  0.00    +0.000 A 
BRANCH  15  22
ATOM     21  C   UNL     1      47.374   6.084  20.712  0.00  0.00    +0.000 C 
ATOM     22  C   UNL     1      48.286   7.194  20.140  0.00  0.00    +0.000 C 
ATOM     23  C   UNL     1      47.631   8.545  20.503  0.00  0.00    +0.000 C 
ATOM     24  C   UNL     1      49.645   7.091  20.860  0.00  0.00    +0.000 C 
ENDBRANCH  15  22
ENDBRANCH  14  18
ENDBRANCH   1  14
TORSDOF 5
ENDMDL
MODEL 7
REMARK VINA RESULT:    -5.427      5.898      8.882
REMARK INTER + INTRA:          -7.542
REMARK INTER:                  -7.132
REMARK INTRA:                  -0.410
REMARK UNBOUND:                -0.687
REMARK  Name = 
REMARK  8 active torsions:
REMARK  status: ('A' for Active; 'I' for Inactive)
REMARK    1  A    between atoms: C_1  and  C_2
REMARK    2  A    between atoms: C_2  and  C_3
REMARK    3  A    between atoms: C_2  and  C_4
REMARK    4  A    between atoms: C_2  and  C_5
REMARK    5  A    between atoms: C_8  and  C_9
REMARK    6  A    between atoms: C_9  and  N_10
REMARK    7  A    between atoms: C_15  and  C_16
REMARK    8  A    between atoms: C_16  and  O_18
REMARK                            x       y       z     vdW  Elec       q    Type
REMARK                         _______ _______ _______ _____ _____    ______ ____
ROOT
ATOM      1  N   UNL     1      49.605   4.352  17.753  0.00  0.00    +0.000 N 
ATOM      2  C   UNL     1      50.251   5.422  18.330  0.00  0.00    +0.000 A 
ATOM      3  C   UNL     1      51.541   5.035  18.623  0.00  0.00    +0.000 A 
ATOM      4  C   UNL     1      51.688   3.686  18.217  0.00  0.00    +0.000 A 
ATOM      5  C   UNL     1      52.731   2.741  18.267  0.00  0.00    +0.000 A 
ATOM      6  C   UNL     1      52.474   1.468  17.750  0.00  0.00    +0.000 A 
ATOM      7  C   UNL     1      51.209   1.191  17.239  0.00  0.00    +0.000 A 
ATOM      8  N   UNL     1      50.172   2.067  17.170  0.00  0.00    +0.000 NA
ATOM      9  C   UNL     1      50.469   3.283  17.672  0.00  0.00    +0.000 A 
ENDROOT
BRANCH   6  10
ATOM     10  C   UNL     1      53.467   0.374  17.774  0.00  0.00    +0.000 C 
ATOM     11  O   UNL     1      54.019   0.015  18.801  0.00  0.00    +0.000 OA
BRANCH  10  12
ATOM     12  O   UNL     1      53.693  -0.206  16.578  0.00  0.00    +0.000 OA
ATOM     13  H   UNL     1      53.843  -1.169  16.592  0.00  0.00    +0.000 HD
ENDBRANCH  10  12
ENDBRANCH   6  10
BRANCH   1  14
ATOM     14  C   UNL     1      48.195   4.333  17.374  0.00  0.00    +0.000 C 
BRANCH  14  18
ATOM     15  C   UNL     1      47.465   6.381  13.591  0.00  0.00    +0.000 A 
ATOM     16  C   UNL     1      48.322   6.911  14.568  0.00  0.00    +0.000 A 
ATOM     17  C   UNL     1      48.563   6.245  15.774  0.00  0.00    +0.000 A 
ATOM     18  C   UNL     1      47.950   5.022  16.054  0.00  0.00    +0.000 A 
ATOM     19  C   UNL     1      47.129   4.454  15.072  0.00  0.00    +0.000 A 
ATOM     20  C   UNL     1      46.894   5.124  13.861  0.00  0.00    +0.000 A 
BRANCH  15  22
ATOM     21  C   UNL     1      46.284   8.408  12.527  0.00  0.00    +0.000 C 
ATOM     22  C   UNL     1      47.137   7.140  12.291  0.00  0.00    +0.000 C 
ATOM     23  C   UNL     1      46.334   6.227  11.339  0.00  0.00    +0.000 C 
ATOM     24  C   UNL     1      48.433   7.582  11.581  0.00  0.00    +0.000 C 
ENDBRANCH  15  22
ENDBRANCH  14  18
ENDBRANCH   1  14
TORSDOF 5
ENDMDL
MODEL 8
REMARK VINA RESULT:    -5.256      4.570      6.706
REMARK INTER + INTRA:          -7.326
REMARK INTER:                  -6.776
REMARK INTRA:                  -0.550
REMARK UNBOUND:                -0.687
REMARK  Name = 
REMARK  8 active torsions:
REMARK  status: ('A' for Active; 'I' for Inactive)
REMARK    1  A    between atoms: C_1  and  C_2
REMARK    2  A    between atoms: C_2  and  C_3
REMARK    3  A    between atoms: C_2  and  C_4
REMARK    4  A    between atoms: C_2  and  C_5
REMARK    5  A    between atoms: C_8  and  C_9
REMARK    6  A    between atoms: C_9  and  N_10
REMARK    7  A    between atoms: C_15  and  C_16
REMARK    8  A    between atoms: C_16  and  O_18
REMARK                            x       y       z     vdW  Elec       q    Type
REMARK                         _______ _______ _______ _____ _____    ______ ____
ROOT
ATOM      1  N   UNL     1      46.974   7.318  12.530  0.00  0.00    +0.000 N 
ATOM      2  C   UNL     1      46.244   6.696  11.541  0.00  0.00    +0.000 A 
ATOM      3  C   UNL     1      45.990   5.404  11.947  0.00  0.00    +0.000 A 
ATOM      4  C   UNL     1      46.586   5.228  13.220  0.00  0.00    +0.000 A 
ATOM      5  C   UNL     1      46.697   4.156  14.127  0.00  0.00    +0.000 A 
ATOM      6  C   UNL     1      47.392   4.386  15.318  0.00  0.00    +0.000 A 
ATOM      7  C   UNL     1      47.953   5.640  15.539  0.00  0.00    +0.000 A 
ATOM      8  N   UNL     1      47.875   6.704  14.696  0.00  0.00    +0.000 NA
ATOM      9  C   UNL     1      47.189   6.438  13.565  0.00  0.00    +0.000 A 
ENDROOT
BRANCH   6  10
ATOM     10  C   UNL     1      47.613   3.338  16.335  0.00  0.00    +0.000 C 
ATOM     11  O   UNL     1      48.579   2.593  16.308  0.00  0.00    +0.000 OA
BRANCH  10  12
ATOM     12  O   UNL     1      46.676   3.289  17.305  0.00  0.00    +0.000 OA
ATOM     13  H   UNL     1      45.778   3.040  17.020  0.00  0.00    +0.000 HD
ENDBRANCH  10  12
ENDBRANCH   6  10
BRANCH   1  14
ATOM     14  C   UNL     1      47.512   8.673  12.443  0.00  0.00    +0.000 C 
BRANCH  14  18
ATOM     15  C   UNL     1      51.518   8.782  10.717  0.00  0.00    +0.000 A 
ATOM     16  C   UNL     1      50.806   9.955  11.017  0.00  0.00    +0.000 A 
ATOM     17  C   UNL     1      49.528   9.915  11.581  0.00  0.00    +0.000 A 
ATOM     18  C   UNL     1      48.905   8.698  11.864  0.00  0.00    +0.000 A 
ATOM     19  C   UNL     1      49.617   7.518  11.616  0.00  0.00    +0.000 A 
ATOM     20  C   UNL     1      50.903   7.562  11.054  0.00  0.00    +0.000 A 
BRANCH  15  22
ATOM     21  C   UNL     1      52.967   9.820   8.857  0.00  0.00    +0.000 C 
ATOM     22  C   UNL     1      52.895   8.814  10.029  0.00  0.00    +0.000 C 
ATOM     23  C   UNL     1      53.223   7.421   9.447  0.00  0.00    +0.000 C 
ATOM     24  C   UNL     1      53.995   9.202  11.038  0.00  0.00    +0.000 C 
ENDBRANCH  15  22
ENDBRANCH  14  18
ENDBRANCH   1  14
TORSDOF 5
ENDMDL
MODEL 9
REMARK VINA RESULT:    -5.112      4.224      7.338
REMARK INTER + INTRA:          -7.144
REMARK INTER:                  -6.550
REMARK INTRA:                  -0.595
REMARK UNBOUND:                -0.687
REMARK  Name = 
REMARK  8 active torsions:
REMARK  status: ('A' for Active; 'I' for Inactive)
REMARK    1  A    between atoms: C_1  and  C_2
REMARK    2  A    between atoms: C_2  and  C_3
REMARK    3  A    between atoms: C_2  and  C_4
REMARK    4  A    between atoms: C_2  and  C_5
REMARK    5  A    between atoms: C_8  and  C_9
REMARK    6  A    between atoms: C_9  and  N_10
REMARK    7  A    between atoms: C_15  and  C_16
REMARK    8  A    between atoms: C_16  and  O_18
REMARK                            x       y       z     vdW  Elec       q    Type
REMARK                         _______ _______ _______ _____ _____    ______ ____
ROOT
ATOM      1  N   UNL     1      48.927   8.313  12.751  0.00  0.00    +0.000 N 
ATOM      2  C   UNL     1      48.175   9.437  13.007  0.00  0.00    +0.000 A 
ATOM      3  C   UNL     1      48.729  10.489  12.312  0.00  0.00    +0.000 A 
ATOM      4  C   UNL     1      49.859   9.996  11.613  0.00  0.00    +0.000 A 
ATOM      5  C   UNL     1      50.833  10.565  10.770  0.00  0.00    +0.000 A 
ATOM      6  C   UNL     1      51.824   9.718  10.265  0.00  0.00    +0.000 A 
ATOM      7  C   UNL     1      51.815   8.376  10.633  0.00  0.00    +0.000 A 
ATOM      8  N   UNL     1      50.899   7.782  11.443  0.00  0.00    +0.000 NA
ATOM      9  C   UNL     1      49.959   8.634  11.899  0.00  0.00    +0.000 A 
ENDROOT
BRANCH   6  10
ATOM     10  C   UNL     1      52.925  10.194   9.402  0.00  0.00    +0.000 C 
ATOM     11  O   UNL     1      54.098  10.061   9.705  0.00  0.00    +0.000 OA
BRANCH  10  12
ATOM     12  O   UNL     1      52.526  10.763   8.245  0.00  0.00    +0.000 OA
ATOM     13  H   UNL     1      51.780  10.330   7.791  0.00  0.00    +0.000 HD
ENDBRANCH  10  12
ENDBRANCH   6  10
BRANCH   1  14
ATOM     14  C   UNL     1      48.713   7.006  13.367  0.00  0.00    +0.000 C 
BRANCH  14  18
ATOM     15  C   UNL     1      45.127   4.998  11.902  0.00  0.00    +0.000 A 
ATOM     16  C   UNL     1      45.655   4.737  13.176  0.00  0.00    +0.000 A 
ATOM     17  C   UNL     1      46.797   5.392  13.646  0.00  0.00    +0.000 A 
ATOM     18  C   UNL     1      47.463   6.333  12.857  0.00  0.00    +0.000 A 
ATOM     19  C   UNL     1      46.924   6.641  11.602  0.00  0.00    +0.000 A 
ATOM     20  C   UNL     1      45.774   5.985  11.136  0.00  0.00    +0.000 A 
BRANCH  15  22
ATOM     21  C   UNL     1      43.598   2.937  12.135  0.00  0.00    +0.000 C 
ATOM     22  C   UNL     1      43.912   4.231  11.347  0.00  0.00    +0.000 C 
ATOM     23  C   UNL     1      44.180   3.813   9.885  0.00  0.00    +0.000 C 
ATOM     24  C   UNL     1      42.649   5.113  11.389  0.00  0.00    +0.000 C 
ENDBRANCH  15  22
ENDBRANCH  14  18
ENDBRANCH   1  14
TORSDOF 5
ENDMDL
