MODEL 1
REMARK VINA RESULT:    -8.103      0.000      0.000
REMARK INTER + INTRA:         -10.506
REMARK INTER:                  -9.998
REMARK INTRA:                  -0.508
REMARK UNBOUND:                -0.508
REMARK  Name = 
REMARK  4 active torsions:
REMARK  status: ('A' for Active; 'I' for Inactive)
REMARK    1  A    between atoms: C_2  and  C_4
REMARK    2  A    between atoms: C_7  and  N_8
REMARK    3  A    between atoms: N_8  and  C_9
REMARK    4  A    between atoms: C_9  and  C_10
REMARK                            x       y       z     vdW  Elec       q    Type
REMARK                         _______ _______ _______ _____ _____    ______ ____
ROOT
ATOM      1  C   UNL     1      46.423   2.560   7.471  0.00  0.00    +0.000 A 
ATOM      2  C   UNL     1      45.991   1.525   8.313  0.00  0.00    +0.000 A 
ATOM      3  C   UNL     1      45.053   1.791   9.316  0.00  0.00    +0.000 A 
ATOM      4  C   UNL     1      44.563   3.093   9.504  0.00  0.00    +0.000 A 
ATOM      5  C   UNL     1      44.927   4.088   8.596  0.00  0.00    +0.000 A 
ATOM      6  C   UNL     1      45.864   3.842   7.601  0.00  0.00    +0.000 A 
ENDROOT
BRANCH   1   8
ATOM      7  N   UNL     1      47.450   3.170   5.350  0.00  0.00    +0.000 N 
ATOM      8  C   UNL     1      47.496   2.379   6.461  0.00  0.00    +0.000 C 
ATOM      9  O   UNL     1      48.403   1.572   6.620  0.00  0.00    +0.000 OA
ATOM     10  H   UNL     1      48.242   3.099   4.724  0.00  0.00    +0.000 HD
ATOM     11  H   UNL     1      46.888   4.007   5.307  0.00  0.00    +0.000 HD
ENDBRANCH   1   8
BRANCH   4  12
ATOM     12  N   UNL     1      43.697   3.461  10.537  0.00  0.00    +0.000 N 
ATOM     13  H   UNL     1      43.510   2.652  11.138  0.00  0.00    +0.000 HD
BRANCH  12  14
ATOM     14  C   UNL     1      43.899   4.687  11.369  0.00  0.00    +0.000 C 
ATOM     15  C   UNL     1      42.656   5.072  12.155  0.00  0.00    +0.000 C 
ATOM     16  C   UNL     1      43.191   6.010  11.125  0.00  0.00    +0.000 C 
BRANCH  14  17
ATOM     17  C   UNL     1      45.313   4.715  11.979  0.00  0.00    +0.000 A 
ATOM     18  N   UNL     1      45.655   3.784  12.897  0.00  0.00    +0.000 NA
ATOM     19  C   UNL     1      46.681   4.084  13.717  0.00  0.00    +0.000 A 
ATOM     20  C   UNL     1      47.376   5.264  13.670  0.00  0.00    +0.000 A 
ATOM     21  C   UNL     1      47.013   6.121  12.665  0.00  0.00    +0.000 A 
ATOM     22  N   UNL     1      46.006   5.871  11.811  0.00  0.00    +0.000 NA
ENDBRANCH  14  17
ENDBRANCH  12  14
ENDBRANCH   4  12
TORSDOF 4
ENDMDL
MODEL 2
REMARK VINA RESULT:    -6.740      3.109      6.167
REMARK INTER + INTRA:          -8.825
REMARK INTER:                  -8.330
REMARK INTRA:                  -0.494
REMARK UNBOUND:                -0.508
REMARK  Name = 
REMARK  4 active torsions:
REMARK  status: ('A' for Active; 'I' for Inactive)
REMARK    1  A    between atoms: C_2  and  C_4
REMARK    2  A    between atoms: C_7  and  N_8
REMARK    3  A    between atoms: N_8  and  C_9
REMARK    4  A    between atoms: C_9  and  C_10
REMARK                            x       y       z     vdW  Elec       q    Type
REMARK                         _______ _______ _______ _____ _____    ______ ____
ROOT
ATOM      1  C   UNL     1      47.085   7.977  12.920  0.00  0.00    +0.000 A 
ATOM      2  C   UNL     1      47.638   7.006  12.072  0.00  0.00    +0.000 A 
ATOM      3  C   UNL     1      46.804   6.260  11.232  0.00  0.00    +0.000 A 
ATOM      4  C   UNL     1      45.414   6.456  11.255  0.00  0.00    +0.000 A 
ATOM      5  C   UNL     1      44.891   7.493  12.030  0.00  0.00    +0.000 A 
ATOM      6  C   UNL     1      45.705   8.236  12.875  0.00  0.00    +0.000 A 
ENDROOT
BRANCH   1   8
ATOM      7  N   UNL     1      47.294   9.028  15.105  0.00  0.00    +0.000 N 
ATOM      8  C   UNL     1      47.892   8.726  13.916  0.00  0.00    +0.000 C 
ATOM      9  O   UNL     1      49.054   9.043  13.699  0.00  0.00    +0.000 OA
ATOM     10  H   UNL     1      47.891   9.451  15.805  0.00  0.00    +0.000 HD
ATOM     11  H   UNL     1      46.453   8.567  15.419  0.00  0.00    +0.000 HD
ENDBRANCH   1   8
BRANCH   4  12
ATOM     12  N   UNL     1      44.504   5.693  10.517  0.00  0.00    +0.000 N 
ATOM     13  H   UNL     1      44.529   5.978   9.533  0.00  0.00    +0.000 HD
BRANCH  12  14
ATOM     14  C   UNL     1      44.422   4.203  10.622  0.00  0.00    +0.000 C 
ATOM     15  C   UNL     1      43.188   3.738  11.378  0.00  0.00    +0.000 C 
ATOM     16  C   UNL     1      44.541   3.432  11.927  0.00  0.00    +0.000 C 
BRANCH  14  17
ATOM     17  C   UNL     1      44.909   3.530   9.326  0.00  0.00    +0.000 A 
ATOM     18  N   UNL     1      45.175   2.205   9.329  0.00  0.00    +0.000 NA
ATOM     19  C   UNL     1      45.997   1.745   8.365  0.00  0.00    +0.000 A 
ATOM     20  C   UNL     1      46.569   2.541   7.407  0.00  0.00    +0.000 A 
ATOM     21  C   UNL     1      46.191   3.857   7.431  0.00  0.00    +0.000 A 
ATOM     22  N   UNL     1      45.366   4.369   8.361  0.00  0.00    +0.000 NA
ENDBRANCH  14  17
ENDBRANCH  12  14
ENDBRANCH   4  12
TORSDOF 4
ENDMDL
MODEL 3
REMARK VINA RESULT:    -6.376      2.933      6.143
REMARK INTER + INTRA:          -8.375
REMARK INTER:                  -8.272
REMARK INTRA:                  -0.103
REMARK UNBOUND:                -0.508
REMARK  Name = 
REMARK  4 active torsions:
REMARK  status: ('A' for Active; 'I' for Inactive)
REMARK    1  A    between atoms: C_2  and  C_4
REMARK    2  A    between atoms: C_7  and  N_8
REMARK    3  A    between atoms: N_8  and  C_9
REMARK    4  A    between atoms: C_9  and  C_10
REMARK                            x       y       z     vdW  Elec       q    Type
REMARK                         _______ _______ _______ _____ _____    ______ ____
ROOT
ATOM      1  C   UNL     1      47.961   6.584  13.930  0.00  0.00    +0.000 A 
ATOM      2  C   UNL     1      47.205   5.403  13.894  0.00  0.00    +0.000 A 
ATOM      3  C   UNL     1      46.377   5.140  12.798  0.00  0.00    +0.000 A 
ATOM      4  C   UNL     1      46.277   6.065  11.746  0.00  0.00    +0.000 A 
ATOM      5  C   UNL     1      47.110   7.185  11.750  0.00  0.00    +0.000 A 
ATOM      6  C   UNL     1      47.930   7.464  12.836  0.00  0.00    +0.000 A 
ENDROOT
BRANCH   1   8
ATOM      7  N   UNL     1      48.295   8.001  15.881  0.00  0.00    +0.000 N 
ATOM      8  C   UNL     1      48.772   6.982  15.108  0.00  0.00    +0.000 C 
ATOM      9  O   UNL     1      49.815   6.410  15.398  0.00  0.00    +0.000 OA
ATOM     10  H   UNL     1      48.812   8.191  16.730  0.00  0.00    +0.000 HD
ATOM     11  H   UNL     1      47.337   8.312  15.832  0.00  0.00    +0.000 HD
ENDBRANCH   1   8
BRANCH   4  12
ATOM     12  N   UNL     1      45.408   5.923  10.661  0.00  0.00    +0.000 N 
ATOM     13  H   UNL     1      45.917   6.081   9.785  0.00  0.00    +0.000 HD
BRANCH  12  14
ATOM     14  C   UNL     1      44.474   4.763  10.514  0.00  0.00    +0.000 C 
ATOM     15  C   UNL     1      43.030   5.135  10.807  0.00  0.00    +0.000 C 
ATOM     16  C   UNL     1      43.716   4.128  11.668  0.00  0.00    +0.000 C 
BRANCH  14  17
ATOM     17  C   UNL     1      44.881   3.873   9.325  0.00  0.00    +0.000 A 
ATOM     18  N   UNL     1      44.881   2.530   9.475  0.00  0.00    +0.000 NA
ATOM     19  C   UNL     1      45.643   1.821   8.619  0.00  0.00    +0.000 A 
ATOM     20  C   UNL     1      46.405   2.384   7.629  0.00  0.00    +0.000 A 
ATOM     21  C   UNL     1      46.293   3.743   7.500  0.00  0.00    +0.000 A 
ATOM     22  N   UNL     1      45.541   4.501   8.317  0.00  0.00    +0.000 NA
ENDBRANCH  14  17
ENDBRANCH  12  14
ENDBRANCH   4  12
TORSDOF 4
ENDMDL
MODEL 4
REMARK VINA RESULT:    -5.787      2.561      4.343
REMARK INTER + INTRA:          -7.648
REMARK INTER:                  -7.507
REMARK INTRA:                  -0.141
REMARK UNBOUND:                -0.508
REMARK  Name = 
REMARK  4 active torsions:
REMARK  status: ('A' for Active; 'I' for Inactive)
REMARK    1  A    between atoms: C_2  and  C_4
REMARK    2  A    between atoms: C_7  and  N_8
REMARK    3  A    between atoms: N_8  and  C_9
REMARK    4  A    between atoms: C_9  and  C_10
REMARK                            x       y       z     vdW  Elec       q    Type
REMARK                         _______ _______ _______ _____ _____    ______ ____
ROOT
ATOM      1  C   UNL     1      44.840   3.708  10.329  0.00  0.00    +0.000 A 
ATOM      2  C   UNL     1      44.720   3.166  11.617  0.00  0.00    +0.000 A 
ATOM      3  C   UNL     1      45.064   3.938  12.731  0.00  0.00    +0.000 A 
ATOM      4  C   UNL     1      45.557   5.242  12.567  0.00  0.00    +0.000 A 
ATOM      5  C   UNL     1      45.575   5.801  11.288  0.00  0.00    +0.000 A 
ATOM      6  C   UNL     1      45.246   5.044  10.171  0.00  0.00    +0.000 A 
ENDROOT
BRANCH   1   8
ATOM      7  N   UNL     1      44.347   3.604   7.948  0.00  0.00    +0.000 N 
ATOM      8  C   UNL     1      44.602   2.914   9.098  0.00  0.00    +0.000 C 
ATOM      9  O   UNL     1      44.654   1.691   9.097  0.00  0.00    +0.000 OA
ATOM     10  H   UNL     1      44.285   3.048   7.104  0.00  0.00    +0.000 HD
ATOM     11  H   UNL     1      44.553   4.587   7.851  0.00  0.00    +0.000 HD
ENDBRANCH   1   8
BRANCH   4  12
ATOM     12  N   UNL     1      46.007   6.046  13.619  0.00  0.00    +0.000 N 
ATOM     13  H   UNL     1      45.430   5.886  14.451  0.00  0.00    +0.000 HD
BRANCH  12  14
ATOM     14  C   UNL     1      47.450   6.148  14.002  0.00  0.00    +0.000 C 
ATOM     15  C   UNL     1      48.049   7.503  13.665  0.00  0.00    +0.000 C 
ATOM     16  C   UNL     1      48.590   6.278  13.006  0.00  0.00    +0.000 C 
BRANCH  14  17
ATOM     17  C   UNL     1      47.720   5.424  15.334  0.00  0.00    +0.000 A 
ATOM     18  N   UNL     1      48.760   5.819  16.102  0.00  0.00    +0.000 NA
ATOM     19  C   UNL     1      49.237   4.925  16.990  0.00  0.00    +0.000 A 
ATOM     20  C   UNL     1      48.734   3.660  17.145  0.00  0.00    +0.000 A 
ATOM     21  C   UNL     1      47.636   3.365  16.380  0.00  0.00    +0.000 A 
ATOM     22  N   UNL     1      47.110   4.220  15.486  0.00  0.00    +0.000 NA
ENDBRANCH  14  17
ENDBRANCH  12  14
ENDBRANCH   4  12
TORSDOF 4
ENDMDL
MODEL 5
REMARK VINA RESULT:    -5.708      3.369      5.263
REMARK INTER + INTRA:          -7.551
REMARK INTER:                  -7.064
REMARK INTRA:                  -0.487
REMARK UNBOUND:                -0.508
REMARK  Name = 
REMARK  4 active torsions:
REMARK  status: ('A' for Active; 'I' for Inactive)
REMARK    1  A    between atoms: C_2  and  C_4
REMARK    2  A    between atoms: C_7  and  N_8
REMARK    3  A    between atoms: N_8  and  C_9
REMARK    4  A    between atoms: C_9  and  C_10
REMARK                            x       y       z     vdW  Elec       q    Type
REMARK                         _______ _______ _______ _____ _____    ______ ____
ROOT
ATOM      1  C   UNL     1      44.514   4.115  11.780  0.00  0.00    +0.000 A 
ATOM      2  C   UNL     1      45.383   4.024  12.876  0.00  0.00    +0.000 A 
ATOM      3  C   UNL     1      45.951   5.186  13.411  0.00  0.00    +0.000 A 
ATOM      4  C   UNL     1      45.680   6.438  12.837  0.00  0.00    +0.000 A 
ATOM      5  C   UNL     1      44.737   6.520  11.812  0.00  0.00    +0.000 A 
ATOM      6  C   UNL     1      44.171   5.376  11.265  0.00  0.00    +0.000 A 
ENDROOT
BRANCH   1   8
ATOM      7  N   UNL     1      44.650   2.450  10.009  0.00  0.00    +0.000 N 
ATOM      8  C   UNL     1      43.964   2.920  11.091  0.00  0.00    +0.000 C 
ATOM      9  O   UNL     1      42.951   2.356  11.485  0.00  0.00    +0.000 OA
ATOM     10  H   UNL     1      44.313   1.581   9.615  0.00  0.00    +0.000 HD
ATOM     11  H   UNL     1      45.604   2.716   9.818  0.00  0.00    +0.000 HD
ENDBRANCH   1   8
BRANCH   4  12
ATOM     12  N   UNL     1      46.276   7.633  13.251  0.00  0.00    +0.000 N 
ATOM     13  H   UNL     1      45.985   7.853  14.209  0.00  0.00    +0.000 HD
BRANCH  12  14
ATOM     14  C   UNL     1      47.734   7.917  13.075  0.00  0.00    +0.000 C 
ATOM     15  C   UNL     1      47.995   9.049  12.096  0.00  0.00    +0.000 C 
ATOM     16  C   UNL     1      48.500   7.680  11.784  0.00  0.00    +0.000 C 
BRANCH  14  17
ATOM     17  C   UNL     1      48.489   7.779  14.410  0.00  0.00    +0.000 A 
ATOM     18  N   UNL     1      48.958   6.567  14.782  0.00  0.00    +0.000 NA
ATOM     19  C   UNL     1      49.196   6.382  16.096  0.00  0.00    +0.000 A 
ATOM     20  C   UNL     1      48.985   7.340  17.052  0.00  0.00    +0.000 A 
ATOM     21  C   UNL     1      48.578   8.561  16.583  0.00  0.00    +0.000 A 
ATOM     22  N   UNL     1      48.335   8.807  15.284  0.00  0.00    +0.000 NA
ENDBRANCH  14  17
ENDBRANCH  12  14
ENDBRANCH   4  12
TORSDOF 4
ENDMDL
MODEL 6
REMARK VINA RESULT:    -5.629      3.936      7.075
REMARK INTER + INTRA:          -7.454
REMARK INTER:                  -6.740
REMARK INTRA:                  -0.714
REMARK UNBOUND:                -0.508
REMARK  Name = 
REMARK  4 active torsions:
REMARK  status: ('A' for Active; 'I' for Inactive)
REMARK    1  A    between atoms: C_2  and  C_4
REMARK    2  A    between atoms: C_7  and  N_8
REMARK    3  A    between atoms: N_8  and  C_9
REMARK    4  A    between atoms: C_9  and  C_10
REMARK                            x       y       z     vdW  Elec       q    Type
REMARK                         _______ _______ _______ _____ _____    ______ ____
ROOT
ATOM      1  C   UNL     1      47.739   4.707  16.277  0.00  0.00    +0.000 A 
ATOM      2  C   UNL     1      46.997   4.101  15.253  0.00  0.00    +0.000 A 
ATOM      3  C   UNL     1      46.924   4.709  13.995  0.00  0.00    +0.000 A 
ATOM      4  C   UNL     1      47.564   5.936  13.760  0.00  0.00    +0.000 A 
ATOM      5  C   UNL     1      48.378   6.474  14.758  0.00  0.00    +0.000 A 
ATOM      6  C   UNL     1      48.454   5.887  16.015  0.00  0.00    +0.000 A 
ENDROOT
BRANCH   1   8
ATOM      7  N   UNL     1      47.216   2.952  17.881  0.00  0.00    +0.000 N 
ATOM      8  C   UNL     1      47.770   4.180  17.665  0.00  0.00    +0.000 C 
ATOM      9  O   UNL     1      48.291   4.803  18.581  0.00  0.00    +0.000 OA
ATOM     10  H   UNL     1      47.335   2.570  18.811  0.00  0.00    +0.000 HD
ATOM     11  H   UNL     1      47.021   2.308  17.128  0.00  0.00    +0.000 HD
ENDBRANCH   1   8
BRANCH   4  12
ATOM     12  N   UNL     1      47.465   6.653  12.565  0.00  0.00    +0.000 N 
ATOM     13  H   UNL     1      47.733   6.054  11.777  0.00  0.00    +0.000 HD
BRANCH  12  14
ATOM     14  C   UNL     1      46.266   7.473  12.206  0.00  0.00    +0.000 C 
ATOM     15  C   UNL     1      46.613   8.929  11.943  0.00  0.00    +0.000 C 
ATOM     16  C   UNL     1      45.703   8.585  13.074  0.00  0.00    +0.000 C 
BRANCH  14  17
ATOM     17  C   UNL     1      45.296   6.673  11.318  0.00  0.00    +0.000 A 
ATOM     18  N   UNL     1      43.991   6.601  11.663  0.00  0.00    +0.000 NA
ATOM     19  C   UNL     1      43.283   5.572  11.159  0.00  0.00    +0.000 A 
ATOM     20  C   UNL     1      43.811   4.612  10.336  0.00  0.00    +0.000 A 
ATOM     21  C   UNL     1      45.120   4.799   9.977  0.00  0.00    +0.000 A 
ATOM     22  N   UNL     1      45.873   5.812  10.439  0.00  0.00    +0.000 NA
ENDBRANCH  14  17
ENDBRANCH  12  14
ENDBRANCH   4  12
TORSDOF 4
ENDMDL
MODEL 7
REMARK VINA RESULT:    -5.321      3.494      6.939
REMARK INTER + INTRA:          -7.074
REMARK INTER:                  -6.847
REMARK INTRA:                  -0.227
REMARK UNBOUND:                -0.508
REMARK  Name = 
REMARK  4 active torsions:
REMARK  status: ('A' for Active; 'I' for Inactive)
REMARK    1  A    between atoms: C_2  and  C_4
REMARK    2  A    between atoms: C_7  and  N_8
REMARK    3  A    between atoms: N_8  and  C_9
REMARK    4  A    between atoms: C_9  and  C_10
REMARK                            x       y       z     vdW  Elec       q    Type
REMARK                         _______ _______ _______ _____ _____    ______ ____
ROOT
ATOM      1  C   UNL     1      48.098   5.119  15.998  0.00  0.00    +0.000 A 
ATOM      2  C   UNL     1      48.539   6.335  15.456  0.00  0.00    +0.000 A 
ATOM      3  C   UNL     1      48.099   6.731  14.188  0.00  0.00    +0.000 A 
ATOM      4  C   UNL     1      47.244   5.904  13.443  0.00  0.00    +0.000 A 
ATOM      5  C   UNL     1      46.737   4.747  14.037  0.00  0.00    +0.000 A 
ATOM      6  C   UNL     1      47.170   4.337  15.291  0.00  0.00    +0.000 A 
ENDROOT
BRANCH   1   8
ATOM      7  N   UNL     1      48.675   3.225  17.415  0.00  0.00    +0.000 N 
ATOM      8  C   UNL     1      48.608   4.583  17.285  0.00  0.00    +0.000 C 
ATOM      9  O   UNL     1      48.980   5.318  18.191  0.00  0.00    +0.000 OA
ATOM     10  H   UNL     1      49.116   2.883  18.259  0.00  0.00    +0.000 HD
ATOM     11  H   UNL     1      48.632   2.605  16.620  0.00  0.00    +0.000 HD
ENDBRANCH   1   8
BRANCH   4  12
ATOM     12  N   UNL     1      46.832   6.181  12.137  0.00  0.00    +0.000 N 
ATOM     13  H   UNL     1      47.515   5.807  11.470  0.00  0.00    +0.000 HD
BRANCH  12  14
ATOM     14  C   UNL     1      45.441   5.921  11.651  0.00  0.00    +0.000 C 
ATOM     15  C   UNL     1      44.635   7.197  11.477  0.00  0.00    +0.000 C 
ATOM     16  C   UNL     1      44.189   6.179  12.473  0.00  0.00    +0.000 C 
BRANCH  14  17
ATOM     17  C   UNL     1      45.420   4.774  10.623  0.00  0.00    +0.000 A 
ATOM     18  N   UNL     1      45.671   5.047   9.324  0.00  0.00    +0.000 NA
ATOM     19  C   UNL     1      45.217   4.161   8.416  0.00  0.00    +0.000 A 
ATOM     20  C   UNL     1      44.524   3.024   8.739  0.00  0.00    +0.000 A 
ATOM     21  C   UNL     1      44.376   2.785  10.080  0.00  0.00    +0.000 A 
ATOM     22  N   UNL     1      44.816   3.627  11.031  0.00  0.00    +0.000 NA
ENDBRANCH  14  17
ENDBRANCH  12  14
ENDBRANCH   4  12
TORSDOF 4
ENDMDL
