MODEL 1
REMARK VINA RESULT:    -7.484      0.000      0.000
REMARK INTER + INTRA:         -11.174
REMARK INTER:                 -10.109
REMARK INTRA:                  -1.066
REMARK UNBOUND:                -1.066
REMARK  Name = 
REMARK  6 active torsions:
REMARK  status: ('A' for Active; 'I' for Inactive)
REMARK    1  A    between atoms: C_2  and  C_25
REMARK    2  A    between atoms: N_3  and  C_4
REMARK    3  A    between atoms: C_4  and  C_5
REMARK    4  A    between atoms: C_8  and  C_9
REMARK    5  A    between atoms: C_9  and  N_10
REMARK    6  A    between atoms: C_11  and  C_13
REMARK                            x       y       z     vdW  Elec       q    Type
REMARK                         _______ _______ _______ _____ _____    ______ ____
ROOT
ATOM      1  C   UNL     1      45.235   6.823  11.346  0.00  0.00    +0.000 A 
ATOM      2  C   UNL     1      44.901   8.038  11.958  0.00  0.00    +0.000 A 
ATOM      3  C   UNL     1      45.755   8.619  12.902  0.00  0.00    +0.000 A 
ATOM      4  C   UNL     1      46.970   8.007  13.237  0.00  0.00    +0.000 A 
ATOM      5  C   UNL     1      47.300   6.788  12.629  0.00  0.00    +0.000 A 
ATOM      6  C   UNL     1      46.447   6.208  11.685  0.00  0.00    +0.000 A 
ENDROOT
BRANCH   1   7
ATOM      7  C   UNL     1      44.328   6.205  10.314  0.00  0.00    +0.000 C 
BRANCH   7  10
ATOM      8  O   UNL     1      43.699   3.499  10.159  0.00  0.00    +0.000 OA
ATOM      9  C   UNL     1      44.651   3.904   9.496  0.00  0.00    +0.000 C 
ATOM     10  N   UNL     1      45.030   5.227   9.521  0.00  0.00    +0.000 N 
ATOM     11  H   UNL     1      45.805   5.526   8.941  0.00  0.00    +0.000 HD
BRANCH   9  12
ATOM     12  C   UNL     1      45.441   3.029   8.639  0.00  0.00    +0.000 A 
ATOM     13  C   UNL     1      45.534   1.649   8.718  0.00  0.00    +0.000 A 
ATOM     14  C   UNL     1      46.385   1.099   7.722  0.00  0.00    +0.000 A 
ATOM     15 CL   UNL     1      46.682  -0.576   7.572  0.00  0.00    +0.000 Cl
ATOM     16  C   UNL     1      46.927   2.067   6.910  0.00  0.00    +0.000 A 
ATOM     17  S   UNL     1      46.404   3.634   7.350  0.00  0.00    +0.000 S 
ENDBRANCH   9  12
ENDBRANCH   7  10
ENDBRANCH   1   7
BRANCH   4  18
ATOM     18  C   UNL     1      47.894   8.625  14.253  0.00  0.00    +0.000 C 
BRANCH  18  19
ATOM     19  N   UNL     1      48.131   7.736  15.363  0.00  0.00    +0.000 N 
ATOM     20  C   UNL     1      49.337   7.096  15.507  0.00  0.00    +0.000 C 
ATOM     21  O   UNL     1      50.271   7.290  14.733  0.00  0.00    +0.000 OA
ATOM     22  H   UNL     1      47.319   7.395  15.868  0.00  0.00    +0.000 HD
BRANCH  20  23
ATOM     23  C   UNL     1      49.483   6.213  16.672  0.00  0.00    +0.000 A 
ATOM     24  C   UNL     1      50.480   6.468  17.604  0.00  0.00    +0.000 A 
ATOM     25  S   UNL     1      50.479   5.386  18.922  0.00  0.00    +0.000 S 
ATOM     26  C   UNL     1      49.181   4.503  18.265  0.00  0.00    +0.000 A 
ATOM     27  N   UNL     1      48.691   3.404  18.899  0.00  0.00    +0.000 NA
ATOM     28  C   UNL     1      47.731   2.811  18.274  0.00  0.00    +0.000 A 
ATOM     29  N   UNL     1      47.210   3.220  17.072  0.00  0.00    +0.000 N 
ATOM     30  C   UNL     1      47.654   4.339  16.409  0.00  0.00    +0.000 A 
ATOM     31  O   UNL     1      47.142   4.699  15.354  0.00  0.00    +0.000 OA
ATOM     32  C   UNL     1      48.743   5.037  17.066  0.00  0.00    +0.000 A 
ATOM     33  H   UNL     1      46.454   2.713  16.638  0.00  0.00    +0.000 HD
ENDBRANCH  20  23
ENDBRANCH  18  19
ENDBRANCH   4  18
TORSDOF 6
ENDMDL
MODEL 2
REMARK VINA RESULT:    -7.083      1.988      2.443
REMARK INTER + INTRA:         -10.633
REMARK INTER:                  -9.951
REMARK INTRA:                  -0.682
REMARK UNBOUND:                -1.066
REMARK  Name = 
REMARK  6 active torsions:
REMARK  status: ('A' for Active; 'I' for Inactive)
REMARK    1  A    between atoms: C_2  and  C_25
REMARK    2  A    between atoms: N_3  and  C_4
REMARK    3  A    between atoms: C_4  and  C_5
REMARK    4  A    between atoms: C_8  and  C_9
REMARK    5  A    between atoms: C_9  and  N_10
REMARK    6  A    between atoms: C_11  and  C_13
REMARK                            x       y       z     vdW  Elec       q    Type
REMARK                         _______ _______ _______ _____ _____    ______ ____
ROOT
ATOM      1  C   UNL     1      45.009   5.699  11.475  0.00  0.00    +0.000 A 
ATOM      2  C   UNL     1      45.802   4.967  12.369  0.00  0.00    +0.000 A 
ATOM      3  C   UNL     1      46.742   5.613  13.180  0.00  0.00    +0.000 A 
ATOM      4  C   UNL     1      46.891   7.004  13.130  0.00  0.00    +0.000 A 
ATOM      5  C   UNL     1      46.103   7.734  12.230  0.00  0.00    +0.000 A 
ATOM      6  C   UNL     1      45.163   7.090  11.420  0.00  0.00    +0.000 A 
ENDROOT
BRANCH   1   7
ATOM      7  C   UNL     1      43.982   5.010  10.615  0.00  0.00    +0.000 C 
BRANCH   7  10
ATOM      8  O   UNL     1      45.852   5.457   8.604  0.00  0.00    +0.000 OA
ATOM      9  C   UNL     1      45.512   4.297   8.821  0.00  0.00    +0.000 C 
ATOM     10  N   UNL     1      44.588   3.991   9.795  0.00  0.00    +0.000 N 
ATOM     11  H   UNL     1      44.353   3.020   9.960  0.00  0.00    +0.000 HD
BRANCH   9  12
ATOM     12  C   UNL     1      46.055   3.166   8.078  0.00  0.00    +0.000 A 
ATOM     13  C   UNL     1      45.984   1.828   8.430  0.00  0.00    +0.000 A 
ATOM     14  C   UNL     1      46.607   0.977   7.478  0.00  0.00    +0.000 A 
ATOM     15 CL   UNL     1      46.666  -0.722   7.645  0.00  0.00    +0.000 Cl
ATOM     16  C   UNL     1      47.144   1.681   6.427  0.00  0.00    +0.000 A 
ATOM     17  S   UNL     1      46.891   3.363   6.589  0.00  0.00    +0.000 S 
ENDBRANCH   9  12
ENDBRANCH   7  10
ENDBRANCH   1   7
BRANCH   4  18
ATOM     18  C   UNL     1      47.902   7.707  13.999  0.00  0.00    +0.000 C 
BRANCH  18  19
ATOM     19  N   UNL     1      47.933   7.154  15.329  0.00  0.00    +0.000 N 
ATOM     20  C   UNL     1      49.099   6.664  15.861  0.00  0.00    +0.000 C 
ATOM     21  O   UNL     1      50.164   6.721  15.250  0.00  0.00    +0.000 OA
ATOM     22  H   UNL     1      47.044   6.896  15.746  0.00  0.00    +0.000 HD
BRANCH  20  23
ATOM     23  C   UNL     1      49.030   6.124  17.224  0.00  0.00    +0.000 A 
ATOM     24  C   UNL     1      49.468   4.829  17.471  0.00  0.00    +0.000 A 
ATOM     25  S   UNL     1      49.374   4.374  19.111  0.00  0.00    +0.000 S 
ATOM     26  C   UNL     1      48.692   5.871  19.543  0.00  0.00    +0.000 A 
ATOM     27  N   UNL     1      48.339   6.134  20.830  0.00  0.00    +0.000 NA
ATOM     28  C   UNL     1      47.803   7.294  21.010  0.00  0.00    +0.000 A 
ATOM     29  N   UNL     1      47.590   8.220  20.021  0.00  0.00    +0.000 N 
ATOM     30  C   UNL     1      47.955   8.010  18.712  0.00  0.00    +0.000 A 
ATOM     31  O   UNL     1      47.786   8.873  17.858  0.00  0.00    +0.000 OA
ATOM     32  C   UNL     1      48.555   6.714  18.453  0.00  0.00    +0.000 A 
ATOM     33  H   UNL     1      47.169   9.112  20.230  0.00  0.00    +0.000 HD
ENDBRANCH  20  23
ENDBRANCH  18  19
ENDBRANCH   4  18
TORSDOF 6
ENDMDL
MODEL 3
REMARK VINA RESULT:    -6.803      1.927      2.312
REMARK INTER + INTRA:         -10.255
REMARK INTER:                  -9.269
REMARK INTRA:                  -0.986
REMARK UNBOUND:                -1.066
REMARK  Name = 
REMARK  6 active torsions:
REMARK  status: ('A' for Active; 'I' for Inactive)
REMARK    1  A    between atoms: C_2  and  C_25
REMARK    2  A    between atoms: N_3  and  C_4
REMARK    3  A    between atoms: C_4  and  C_5
REMARK    4  A    between atoms: C_8  and  C_9
REMARK    5  A    between atoms: C_9  and  N_10
REMARK    6  A    between atoms: C_11  and  C_13
REMARK                            x       y       z     vdW  Elec       q    Type
REMARK                         _______ _______ _______ _____ _____    ______ ____
ROOT
ATOM      1  C   UNL     1      46.023   7.286  12.346  0.00  0.00    +0.000 A 
ATOM      2  C   UNL     1      46.998   6.352  12.723  0.00  0.00    +0.000 A 
ATOM      3  C   UNL     1      47.998   6.697  13.639  0.00  0.00    +0.000 A 
ATOM      4  C   UNL     1      48.030   7.975  14.212  0.00  0.00    +0.000 A 
ATOM      5  C   UNL     1      47.058   8.910  13.829  0.00  0.00    +0.000 A 
ATOM      6  C   UNL     1      46.059   8.565  12.915  0.00  0.00    +0.000 A 
ENDROOT
BRANCH   1   7
ATOM      7  C   UNL     1      44.933   6.912  11.375  0.00  0.00    +0.000 C 
BRANCH   7  10
ATOM      8  O   UNL     1      43.375   4.781  10.496  0.00  0.00    +0.000 OA
ATOM      9  C   UNL     1      44.531   4.852  10.086  0.00  0.00    +0.000 C 
ATOM     10  N   UNL     1      45.369   5.871  10.478  0.00  0.00    +0.000 N 
ATOM     11  H   UNL     1      46.307   5.908  10.098  0.00  0.00    +0.000 HD
BRANCH   9  12
ATOM     12  C   UNL     1      45.099   3.877   9.163  0.00  0.00    +0.000 A 
ATOM     13  C   UNL     1      45.807   4.144   8.003  0.00  0.00    +0.000 A 
ATOM     14  C   UNL     1      46.233   2.964   7.336  0.00  0.00    +0.000 A 
ATOM     15 CL   UNL     1      47.133   2.987   5.885  0.00  0.00    +0.000 Cl
ATOM     16  C   UNL     1      45.837   1.825   7.996  0.00  0.00    +0.000 A 
ATOM     17  S   UNL     1      44.959   2.183   9.417  0.00  0.00    +0.000 S 
ENDBRANCH   9  12
ENDBRANCH   7  10
ENDBRANCH   1   7
BRANCH   4  18
ATOM     18  C   UNL     1      49.103   8.355  15.198  0.00  0.00    +0.000 C 
BRANCH  18  19
ATOM     19  N   UNL     1      49.880   7.211  15.603  0.00  0.00    +0.000 N 
ATOM     20  C   UNL     1      50.329   7.086  16.894  0.00  0.00    +0.000 C 
ATOM     21  O   UNL     1      50.049   7.911  17.761  0.00  0.00    +0.000 OA
ATOM     22  H   UNL     1      50.303   6.652  14.869  0.00  0.00    +0.000 HD
BRANCH  20  23
ATOM     23  C   UNL     1      51.110   5.883  17.211  0.00  0.00    +0.000 A 
ATOM     24  C   UNL     1      52.452   6.007  17.549  0.00  0.00    +0.000 A 
ATOM     25  S   UNL     1      53.199   4.526  17.942  0.00  0.00    +0.000 S 
ATOM     26  C   UNL     1      51.772   3.659  17.620  0.00  0.00    +0.000 A 
ATOM     27  N   UNL     1      51.735   2.305  17.740  0.00  0.00    +0.000 NA
ATOM     28  C   UNL     1      50.600   1.772  17.433  0.00  0.00    +0.000 A 
ATOM     29  N   UNL     1      49.495   2.472  17.020  0.00  0.00    +0.000 N 
ATOM     30  C   UNL     1      49.476   3.842  16.910  0.00  0.00    +0.000 A 
ATOM     31  O   UNL     1      48.461   4.441  16.574  0.00  0.00    +0.000 OA
ATOM     32  C   UNL     1      50.734   4.490  17.235  0.00  0.00    +0.000 A 
ATOM     33  H   UNL     1      48.635   1.994  16.799  0.00  0.00    +0.000 HD
ENDBRANCH  20  23
ENDBRANCH  18  19
ENDBRANCH   4  18
TORSDOF 6
ENDMDL
MODEL 4
REMARK VINA RESULT:    -6.647      4.143      8.556
REMARK INTER + INTRA:         -10.044
REMARK INTER:                  -9.080
REMARK INTRA:                  -0.965
REMARK UNBOUND:                -1.066
REMARK  Name = 
REMARK  6 active torsions:
REMARK  status: ('A' for Active; 'I' for Inactive)
REMARK    1  A    between atoms: C_2  and  C_25
REMARK    2  A    between atoms: N_3  and  C_4
REMARK    3  A    between atoms: C_4  and  C_5
REMARK    4  A    between atoms: C_8  and  C_9
REMARK    5  A    between atoms: C_9  and  N_10
REMARK    6  A    between atoms: C_11  and  C_13
REMARK                            x       y       z     vdW  Elec       q    Type
REMARK                         _______ _______ _______ _____ _____    ______ ____
ROOT
ATOM      1  C   UNL     1      49.705   4.588  17.661  0.00  0.00    +0.000 A 
ATOM      2  C   UNL     1      50.510   5.663  17.261  0.00  0.00    +0.000 A 
ATOM      3  C   UNL     1      50.078   6.543  16.262  0.00  0.00    +0.000 A 
ATOM      4  C   UNL     1      48.825   6.378  15.660  0.00  0.00    +0.000 A 
ATOM      5  C   UNL     1      48.024   5.298  16.055  0.00  0.00    +0.000 A 
ATOM      6  C   UNL     1      48.454   4.419  17.053  0.00  0.00    +0.000 A 
ENDROOT
BRANCH   1   7
ATOM      7  C   UNL     1      50.157   3.651  18.750  0.00  0.00    +0.000 C 
BRANCH   7  10
ATOM      8  O   UNL     1      50.713   1.418  17.186  0.00  0.00    +0.000 OA
ATOM      9  C   UNL     1      51.662   2.018  17.684  0.00  0.00    +0.000 C 
ATOM     10  N   UNL     1      51.472   3.128  18.476  0.00  0.00    +0.000 N 
ATOM     11  H   UNL     1      52.282   3.610  18.847  0.00  0.00    +0.000 HD
BRANCH   9  12
ATOM     12  C   UNL     1      53.047   1.610  17.478  0.00  0.00    +0.000 A 
ATOM     13  C   UNL     1      53.500   0.345  17.142  0.00  0.00    +0.000 A 
ATOM     14  C   UNL     1      54.913   0.287  17.006  0.00  0.00    +0.000 A 
ATOM     15 CL   UNL     1      55.751  -1.141  16.589  0.00  0.00    +0.000 Cl
ATOM     16  C   UNL     1      55.507   1.504  17.245  0.00  0.00    +0.000 A 
ATOM     17  S   UNL     1      54.359   2.710  17.629  0.00  0.00    +0.000 S 
ENDBRANCH   9  12
ENDBRANCH   7  10
ENDBRANCH   1   7
BRANCH   4  18
ATOM     18  C   UNL     1      48.353   7.320  14.582  0.00  0.00    +0.000 C 
BRANCH  18  19
ATOM     19  N   UNL     1      47.098   6.892  14.017  0.00  0.00    +0.000 N 
ATOM     20  C   UNL     1      46.987   6.616  12.678  0.00  0.00    +0.000 C 
ATOM     21  O   UNL     1      47.954   6.673  11.921  0.00  0.00    +0.000 OA
ATOM     22  H   UNL     1      46.261   7.057  14.566  0.00  0.00    +0.000 HD
BRANCH  20  23
ATOM     23  C   UNL     1      45.668   6.184  12.197  0.00  0.00    +0.000 A 
ATOM     24  C   UNL     1      44.803   7.118  11.642  0.00  0.00    +0.000 A 
ATOM     25  S   UNL     1      43.338   6.447  11.083  0.00  0.00    +0.000 S 
ATOM     26  C   UNL     1      43.785   4.894  11.613  0.00  0.00    +0.000 A 
ATOM     27  N   UNL     1      42.946   3.835  11.458  0.00  0.00    +0.000 NA
ATOM     28  C   UNL     1      43.397   2.723  11.934  0.00  0.00    +0.000 A 
ATOM     29  N   UNL     1      44.614   2.572  12.548  0.00  0.00    +0.000 N 
ATOM     30  C   UNL     1      45.506   3.607  12.703  0.00  0.00    +0.000 A 
ATOM     31  O   UNL     1      46.602   3.431  13.223  0.00  0.00    +0.000 OA
ATOM     32  C   UNL     1      45.042   4.883  12.192  0.00  0.00    +0.000 A 
ATOM     33  H   UNL     1      44.908   1.672  12.896  0.00  0.00    +0.000 HD
ENDBRANCH  20  23
ENDBRANCH  18  19
ENDBRANCH   4  18
TORSDOF 6
ENDMDL
MODEL 5
REMARK VINA RESULT:    -6.599      4.826      7.651
REMARK INTER + INTRA:          -9.979
REMARK INTER:                  -9.077
REMARK INTRA:                  -0.902
REMARK UNBOUND:                -1.066
REMARK  Name = 
REMARK  6 active torsions:
REMARK  status: ('A' for Active; 'I' for Inactive)
REMARK    1  A    between atoms: C_2  and  C_25
REMARK    2  A    between atoms: N_3  and  C_4
REMARK    3  A    between atoms: C_4  and  C_5
REMARK    4  A    between atoms: C_8  and  C_9
REMARK    5  A    between atoms: C_9  and  N_10
REMARK    6  A    between atoms: C_11  and  C_13
REMARK                            x       y       z     vdW  Elec       q    Type
REMARK                         _______ _______ _______ _____ _____    ______ ____
ROOT
ATOM      1  C   UNL     1      50.466   8.918  11.588  0.00  0.00    +0.000 A 
ATOM      2  C   UNL     1      49.634  10.002  11.898  0.00  0.00    +0.000 A 
ATOM      3  C   UNL     1      48.294   9.795  12.245  0.00  0.00    +0.000 A 
ATOM      4  C   UNL     1      47.766   8.500  12.308  0.00  0.00    +0.000 A 
ATOM      5  C   UNL     1      48.597   7.417  11.991  0.00  0.00    +0.000 A 
ATOM      6  C   UNL     1      49.936   7.623  11.645  0.00  0.00    +0.000 A 
ENDROOT
BRANCH   1   7
ATOM      7  C   UNL     1      51.915   9.135  11.234  0.00  0.00    +0.000 C 
BRANCH   7  10
ATOM      8  O   UNL     1      52.927   9.937   8.770  0.00  0.00    +0.000 OA
ATOM      9  C   UNL     1      52.827   8.731   8.982  0.00  0.00    +0.000 C 
ATOM     10  N   UNL     1      52.330   8.252  10.174  0.00  0.00    +0.000 N 
ATOM     11  H   UNL     1      52.287   7.251  10.320  0.00  0.00    +0.000 HD
BRANCH   9  12
ATOM     12  C   UNL     1      53.223   7.724   8.005  0.00  0.00    +0.000 A 
ATOM     13  C   UNL     1      52.994   6.360   8.076  0.00  0.00    +0.000 A 
ATOM     14  C   UNL     1      53.503   5.660   6.949  0.00  0.00    +0.000 A 
ATOM     15 CL   UNL     1      53.357   3.968   6.761  0.00  0.00    +0.000 Cl
ATOM     16  C   UNL     1      54.113   6.500   6.048  0.00  0.00    +0.000 A 
ATOM     17  S   UNL     1      54.066   8.129   6.562  0.00  0.00    +0.000 S 
ENDBRANCH   9  12
ENDBRANCH   7  10
ENDBRANCH   1   7
BRANCH   4  18
ATOM     18  C   UNL     1      46.324   8.268  12.679  0.00  0.00    +0.000 C 
BRANCH  18  19
ATOM     19  N   UNL     1      45.924   6.907  12.424  0.00  0.00    +0.000 N 
ATOM     20  C   UNL     1      44.796   6.631  11.692  0.00  0.00    +0.000 C 
ATOM     21  O   UNL     1      44.116   7.522  11.188  0.00  0.00    +0.000 OA
ATOM     22  H   UNL     1      46.332   6.185  13.008  0.00  0.00    +0.000 HD
BRANCH  20  23
ATOM     23  C   UNL     1      44.472   5.214  11.483  0.00  0.00    +0.000 A 
ATOM     24  C   UNL     1      43.788   4.515  12.469  0.00  0.00    +0.000 A 
ATOM     25  S   UNL     1      43.441   2.900  12.049  0.00  0.00    +0.000 S 
ATOM     26  C   UNL     1      44.241   3.059  10.557  0.00  0.00    +0.000 A 
ATOM     27  N   UNL     1      44.336   2.008   9.699  0.00  0.00    +0.000 NA
ATOM     28  C   UNL     1      44.998   2.258   8.620  0.00  0.00    +0.000 A 
ATOM     29  N   UNL     1      45.572   3.467   8.317  0.00  0.00    +0.000 N 
ATOM     30  C   UNL     1      45.478   4.565   9.139  0.00  0.00    +0.000 A 
ATOM     31  O   UNL     1      45.970   5.642   8.822  0.00  0.00    +0.000 OA
ATOM     32  C   UNL     1      44.751   4.333  10.373  0.00  0.00    +0.000 A 
ATOM     33  H   UNL     1      46.073   3.598   7.452  0.00  0.00    +0.000 HD
ENDBRANCH  20  23
ENDBRANCH  18  19
ENDBRANCH   4  18
TORSDOF 6
ENDMDL
MODEL 6
REMARK VINA RESULT:    -6.371      3.394      8.787
REMARK INTER + INTRA:          -9.671
REMARK INTER:                  -8.687
REMARK INTRA:                  -0.984
REMARK UNBOUND:                -1.066
REMARK  Name = 
REMARK  6 active torsions:
REMARK  status: ('A' for Active; 'I' for Inactive)
REMARK    1  A    between atoms: C_2  and  C_25
REMARK    2  A    between atoms: N_3  and  C_4
REMARK    3  A    between atoms: C_4  and  C_5
REMARK    4  A    between atoms: C_8  and  C_9
REMARK    5  A    between atoms: C_9  and  N_10
REMARK    6  A    between atoms: C_11  and  C_13
REMARK                            x       y       z     vdW  Elec       q    Type
REMARK                         _______ _______ _______ _____ _____    ______ ____
ROOT
ATOM      1  C   UNL     1      49.156   7.823  15.907  0.00  0.00    +0.000 A 
ATOM      2  C   UNL     1      48.963   9.027  15.216  0.00  0.00    +0.000 A 
ATOM      3  C   UNL     1      48.344   9.036  13.960  0.00  0.00    +0.000 A 
ATOM      4  C   UNL     1      47.888   7.846  13.381  0.00  0.00    +0.000 A 
ATOM      5  C   UNL     1      48.089   6.641  14.070  0.00  0.00    +0.000 A 
ATOM      6  C   UNL     1      48.705   6.632  15.324  0.00  0.00    +0.000 A 
ENDROOT
BRANCH   1   7
ATOM      7  C   UNL     1      49.802   7.812  17.267  0.00  0.00    +0.000 C 
BRANCH   7  10
ATOM      8  O   UNL     1      49.620   5.986  19.359  0.00  0.00    +0.000 OA
ATOM      9  C   UNL     1      50.478   5.790  18.501  0.00  0.00    +0.000 C 
ATOM     10  N   UNL     1      50.637   6.649  17.438  0.00  0.00    +0.000 N 
ATOM     11  H   UNL     1      51.339   6.439  16.739  0.00  0.00    +0.000 HD
BRANCH   9  12
ATOM     12  C   UNL     1      51.381   4.646  18.540  0.00  0.00    +0.000 A 
ATOM     13  C   UNL     1      51.245   3.455  17.847  0.00  0.00    +0.000 A 
ATOM     14  C   UNL     1      52.310   2.548  18.100  0.00  0.00    +0.000 A 
ATOM     15 CL   UNL     1      52.410   1.005  17.377  0.00  0.00    +0.000 Cl
ATOM     16  C   UNL     1      53.230   3.063  18.981  0.00  0.00    +0.000 A 
ATOM     17  S   UNL     1      52.809   4.637  19.496  0.00  0.00    +0.000 S 
ENDBRANCH   9  12
ENDBRANCH   7  10
ENDBRANCH   1   7
BRANCH   4  18
ATOM     18  C   UNL     1      47.223   7.846  12.029  0.00  0.00    +0.000 C 
BRANCH  18  19
ATOM     19  N   UNL     1      46.625   6.570  11.733  0.00  0.00    +0.000 N 
ATOM     20  C   UNL     1      45.261   6.418  11.719  0.00  0.00    +0.000 C 
ATOM     21  O   UNL     1      44.501   7.365  11.909  0.00  0.00    +0.000 OA
ATOM     22  H   UNL     1      47.220   5.750  11.799  0.00  0.00    +0.000 HD
BRANCH  20  23
ATOM     23  C   UNL     1      44.746   5.079  11.403  0.00  0.00    +0.000 A 
ATOM     24  C   UNL     1      44.006   4.388  12.354  0.00  0.00    +0.000 A 
ATOM     25  S   UNL     1      43.436   2.876  11.812  0.00  0.00    +0.000 S 
ATOM     26  C   UNL     1      44.204   3.065  10.306  0.00  0.00    +0.000 A 
ATOM     27  N   UNL     1      44.132   2.093   9.358  0.00  0.00    +0.000 NA
ATOM     28  C   UNL     1      44.788   2.353   8.277  0.00  0.00    +0.000 A 
ATOM     29  N   UNL     1      45.506   3.500   8.055  0.00  0.00    +0.000 N 
ATOM     30  C   UNL     1      45.584   4.521   8.972  0.00  0.00    +0.000 A 
ATOM     31  O   UNL     1      46.204   5.551   8.728  0.00  0.00    +0.000 OA
ATOM     32  C   UNL     1      44.872   4.274  10.211  0.00  0.00    +0.000 A 
ATOM     33  H   UNL     1      45.994   3.643   7.183  0.00  0.00    +0.000 HD
ENDBRANCH  20  23
ENDBRANCH  18  19
ENDBRANCH   4  18
TORSDOF 6
ENDMDL
MODEL 7
REMARK VINA RESULT:    -6.356      2.680      3.381
REMARK INTER + INTRA:          -9.651
REMARK INTER:                  -8.753
REMARK INTRA:                  -0.898
REMARK UNBOUND:                -1.066
REMARK  Name = 
REMARK  6 active torsions:
REMARK  status: ('A' for Active; 'I' for Inactive)
REMARK    1  A    between atoms: C_2  and  C_25
REMARK    2  A    between atoms: N_3  and  C_4
REMARK    3  A    between atoms: C_4  and  C_5
REMARK    4  A    between atoms: C_8  and  C_9
REMARK    5  A    between atoms: C_9  and  N_10
REMARK    6  A    between atoms: C_11  and  C_13
REMARK                            x       y       z     vdW  Elec       q    Type
REMARK                         _______ _______ _______ _____ _____    ______ ____
ROOT
ATOM      1  C   UNL     1      46.174   5.634  12.208  0.00  0.00    +0.000 A 
ATOM      2  C   UNL     1      45.649   4.442  12.724  0.00  0.00    +0.000 A 
ATOM      3  C   UNL     1      45.955   4.035  14.028  0.00  0.00    +0.000 A 
ATOM      4  C   UNL     1      46.773   4.822  14.847  0.00  0.00    +0.000 A 
ATOM      5  C   UNL     1      47.304   6.011  14.327  0.00  0.00    +0.000 A 
ATOM      6  C   UNL     1      46.998   6.418  13.026  0.00  0.00    +0.000 A 
ENDROOT
BRANCH   1   7
ATOM      7  C   UNL     1      45.831   6.086  10.812  0.00  0.00    +0.000 C 
BRANCH   7  10
ATOM      8  O   UNL     1      44.134   4.343   9.463  0.00  0.00    +0.000 OA
ATOM      9  C   UNL     1      45.334   4.287   9.205  0.00  0.00    +0.000 C 
ATOM     10  N   UNL     1      46.240   5.111   9.833  0.00  0.00    +0.000 N 
ATOM     11  H   UNL     1      47.218   5.051   9.575  0.00  0.00    +0.000 HD
BRANCH   9  12
ATOM     12  C   UNL     1      45.886   3.359   8.226  0.00  0.00    +0.000 A 
ATOM     13  C   UNL     1      46.531   3.683   7.043  0.00  0.00    +0.000 A 
ATOM     14  C   UNL     1      46.958   2.537   6.320  0.00  0.00    +0.000 A 
ATOM     15 CL   UNL     1      47.788   2.633   4.830  0.00  0.00    +0.000 Cl
ATOM     16  C   UNL     1      46.627   1.367   6.960  0.00  0.00    +0.000 A 
ATOM     17  S   UNL     1      45.806   1.655   8.431  0.00  0.00    +0.000 S 
ENDBRANCH   9  12
ENDBRANCH   7  10
ENDBRANCH   1   7
BRANCH   4  18
ATOM     18  C   UNL     1      47.109   4.390  16.251  0.00  0.00    +0.000 C 
BRANCH  18  19
ATOM     19  N   UNL     1      48.525   4.181  16.417  0.00  0.00    +0.000 N 
ATOM     20  C   UNL     1      49.158   4.541  17.580  0.00  0.00    +0.000 C 
ATOM     21  O   UNL     1      48.543   5.008  18.536  0.00  0.00    +0.000 OA
ATOM     22  H   UNL     1      49.072   4.015  15.578  0.00  0.00    +0.000 HD
BRANCH  20  23
ATOM     23  C   UNL     1      50.603   4.285  17.654  0.00  0.00    +0.000 A 
ATOM     24  C   UNL     1      51.476   5.344  17.865  0.00  0.00    +0.000 A 
ATOM     25  S   UNL     1      53.110   4.872  17.982  0.00  0.00    +0.000 S 
ATOM     26  C   UNL     1      52.715   3.242  17.700  0.00  0.00    +0.000 A 
ATOM     27  N   UNL     1      53.683   2.287  17.646  0.00  0.00    +0.000 NA
ATOM     28  C   UNL     1      53.247   1.100  17.392  0.00  0.00    +0.000 A 
ATOM     29  N   UNL     1      51.929   0.776  17.191  0.00  0.00    +0.000 N 
ATOM     30  C   UNL     1      50.915   1.701  17.262  0.00  0.00    +0.000 A 
ATOM     31  O   UNL     1      49.742   1.374  17.114  0.00  0.00    +0.000 OA
ATOM     32  C   UNL     1      51.353   3.057  17.536  0.00  0.00    +0.000 A 
ATOM     33  H   UNL     1      51.654  -0.175  17.000  0.00  0.00    +0.000 HD
ENDBRANCH  20  23
ENDBRANCH  18  19
ENDBRANCH   4  18
TORSDOF 6
ENDMDL
MODEL 8
REMARK VINA RESULT:    -6.099      2.755      3.636
REMARK INTER + INTRA:          -9.304
REMARK INTER:                  -8.349
REMARK INTRA:                  -0.955
REMARK UNBOUND:                -1.066
REMARK  Name = 
REMARK  6 active torsions:
REMARK  status: ('A' for Active; 'I' for Inactive)
REMARK    1  A    between atoms: C_2  and  C_25
REMARK    2  A    between atoms: N_3  and  C_4
REMARK    3  A    between atoms: C_4  and  C_5
REMARK    4  A    between atoms: C_8  and  C_9
REMARK    5  A    between atoms: C_9  and  N_10
REMARK    6  A    between atoms: C_11  and  C_13
REMARK                            x       y       z     vdW  Elec       q    Type
REMARK                         _______ _______ _______ _____ _____    ______ ____
ROOT
ATOM      1  C   UNL     1      45.712   5.348  12.050  0.00  0.00    +0.000 A 
ATOM      2  C   UNL     1      45.522   4.189  12.815  0.00  0.00    +0.000 A 
ATOM      3  C   UNL     1      46.181   4.028  14.039  0.00  0.00    +0.000 A 
ATOM      4  C   UNL     1      47.024   5.031  14.533  0.00  0.00    +0.000 A 
ATOM      5  C   UNL     1      47.218   6.187  13.764  0.00  0.00    +0.000 A 
ATOM      6  C   UNL     1      46.560   6.349  12.542  0.00  0.00    +0.000 A 
ENDROOT
BRANCH   1   7
ATOM      7  C   UNL     1      44.989   5.534  10.742  0.00  0.00    +0.000 C 
BRANCH   7  10
ATOM      8  O   UNL     1      44.001   3.115   9.787  0.00  0.00    +0.000 OA
ATOM      9  C   UNL     1      45.031   3.553   9.279  0.00  0.00    +0.000 C 
ATOM     10  N   UNL     1      45.588   4.740   9.699  0.00  0.00    +0.000 N 
ATOM     11  H   UNL     1      46.423   5.079   9.238  0.00  0.00    +0.000 HD
BRANCH   9  12
ATOM     12  C   UNL     1      45.734   2.862   8.205  0.00  0.00    +0.000 A 
ATOM     13  C   UNL     1      46.256   3.427   7.054  0.00  0.00    +0.000 A 
ATOM     14  C   UNL     1      46.891   2.473   6.214  0.00  0.00    +0.000 A 
ATOM     15 CL   UNL     1      47.633   2.885   4.731  0.00  0.00    +0.000 Cl
ATOM     16  C   UNL     1      46.836   1.204   6.737  0.00  0.00    +0.000 A 
ATOM     17  S   UNL     1      46.023   1.168   8.239  0.00  0.00    +0.000 S 
ENDBRANCH   9  12
ENDBRANCH   7  10
ENDBRANCH   1   7
BRANCH   4  18
ATOM     18  C   UNL     1      47.738   4.865  15.850  0.00  0.00    +0.000 C 
BRANCH  18  19
ATOM     19  N   UNL     1      48.108   6.138  16.416  0.00  0.00    +0.000 N 
ATOM     20  C   UNL     1      49.398   6.382  16.815  0.00  0.00    +0.000 C 
ATOM     21  O   UNL     1      50.292   5.552  16.663  0.00  0.00    +0.000 OA
ATOM     22  H   UNL     1      47.358   6.734  16.751  0.00  0.00    +0.000 HD
BRANCH  20  23
ATOM     23  C   UNL     1      49.678   7.709  17.377  0.00  0.00    +0.000 A 
ATOM     24  C   UNL     1      50.761   8.439  16.904  0.00  0.00    +0.000 A 
ATOM     25  S   UNL     1      50.914   9.979  17.618  0.00  0.00    +0.000 S 
ATOM     26  C   UNL     1      49.572   9.705  18.626  0.00  0.00    +0.000 A 
ATOM     27  N   UNL     1      49.168  10.643  19.524  0.00  0.00    +0.000 NA
ATOM     28  C   UNL     1      48.158  10.291  20.246  0.00  0.00    +0.000 A 
ATOM     29  N   UNL     1      47.510   9.086  20.149  0.00  0.00    +0.000 N 
ATOM     30  C   UNL     1      47.864   8.119  19.239  0.00  0.00    +0.000 A 
ATOM     31  O   UNL     1      47.240   7.067  19.152  0.00  0.00    +0.000 OA
ATOM     32  C   UNL     1      49.003   8.462  18.407  0.00  0.00    +0.000 A 
ATOM     33  H   UNL     1      46.722   8.875  20.742  0.00  0.00    +0.000 HD
ENDBRANCH  20  23
ENDBRANCH  18  19
ENDBRANCH   4  18
TORSDOF 6
ENDMDL
MODEL 9
REMARK VINA RESULT:    -5.929      5.716      7.254
REMARK INTER + INTRA:          -9.074
REMARK INTER:                  -8.113
REMARK INTRA:                  -0.961
REMARK UNBOUND:                -1.066
REMARK  Name = 
REMARK  6 active torsions:
REMARK  status: ('A' for Active; 'I' for Inactive)
REMARK    1  A    between atoms: C_2  and  C_25
REMARK    2  A    between atoms: N_3  and  C_4
REMARK    3  A    between atoms: C_4  and  C_5
REMARK    4  A    between atoms: C_8  and  C_9
REMARK    5  A    between atoms: C_9  and  N_10
REMARK    6  A    between atoms: C_11  and  C_13
REMARK                            x       y       z     vdW  Elec       q    Type
REMARK                         _______ _______ _______ _____ _____    ______ ____
ROOT
ATOM      1  C   UNL     1      47.607   8.419  12.488  0.00  0.00    +0.000 A 
ATOM      2  C   UNL     1      48.555   7.405  12.299  0.00  0.00    +0.000 A 
ATOM      3  C   UNL     1      49.808   7.696  11.746  0.00  0.00    +0.000 A 
ATOM      4  C   UNL     1      50.145   9.008  11.392  0.00  0.00    +0.000 A 
ATOM      5  C   UNL     1      49.192  10.020  11.575  0.00  0.00    +0.000 A 
ATOM      6  C   UNL     1      47.942   9.731  12.128  0.00  0.00    +0.000 A 
ENDROOT
BRANCH   1   7
ATOM      7  C   UNL     1      46.265   8.114  13.101  0.00  0.00    +0.000 C 
BRANCH   7  10
ATOM      8  O   UNL     1      44.175   7.591  11.341  0.00  0.00    +0.000 OA
ATOM      9  C   UNL     1      44.762   6.631  11.834  0.00  0.00    +0.000 C 
ATOM     10  N   UNL     1      45.803   6.804  12.718  0.00  0.00    +0.000 N 
ATOM     11  H   UNL     1      46.277   5.987  13.083  0.00  0.00    +0.000 HD
BRANCH   9  12
ATOM     12  C   UNL     1      44.410   5.250  11.524  0.00  0.00    +0.000 A 
ATOM     13  C   UNL     1      44.806   4.519  10.416  0.00  0.00    +0.000 A 
ATOM     14  C   UNL     1      44.294   3.194  10.423  0.00  0.00    +0.000 A 
ATOM     15 CL   UNL     1      44.625   2.062   9.187  0.00  0.00    +0.000 Cl
ATOM     16  C   UNL     1      43.517   2.943  11.528  0.00  0.00    +0.000 A 
ATOM     17  S   UNL     1      43.411   4.305  12.555  0.00  0.00    +0.000 S 
ENDBRANCH   9  12
ENDBRANCH   7  10
ENDBRANCH   1   7
BRANCH   4  18
ATOM     18  C   UNL     1      51.490   9.329  10.795  0.00  0.00    +0.000 C 
BRANCH  18  19
ATOM     19  N   UNL     1      52.191   8.135  10.397  0.00  0.00    +0.000 N 
ATOM     20  C   UNL     1      53.555   8.047  10.517  0.00  0.00    +0.000 C 
ATOM     21  O   UNL     1      54.223   8.953  11.009  0.00  0.00    +0.000 OA
ATOM     22  H   UNL     1      51.698   7.486   9.792  0.00  0.00    +0.000 HD
BRANCH  20  23
ATOM     23  C   UNL     1      54.178   6.788  10.086  0.00  0.00    +0.000 A 
ATOM     24  C   UNL     1      55.001   6.095  10.964  0.00  0.00    +0.000 A 
ATOM     25  S   UNL     1      55.599   4.629  10.331  0.00  0.00    +0.000 S 
ATOM     26  C   UNL     1      54.824   4.895   8.840  0.00  0.00    +0.000 A 
ATOM     27  N   UNL     1      54.951   4.006   7.819  0.00  0.00    +0.000 NA
ATOM     28  C   UNL     1      54.340   4.348   6.735  0.00  0.00    +0.000 A 
ATOM     29  N   UNL     1      53.607   5.497   6.580  0.00  0.00    +0.000 N 
ATOM     30  C   UNL     1      53.427   6.410   7.592  0.00  0.00    +0.000 A 
ATOM     31  O   UNL     1      52.735   7.409   7.433  0.00  0.00    +0.000 OA
ATOM     32  C   UNL     1      54.105   6.077   8.831  0.00  0.00    +0.000 A 
ATOM     33  H   UNL     1      53.149   5.703   5.706  0.00  0.00    +0.000 HD
ENDBRANCH  20  23
ENDBRANCH  18  19
ENDBRANCH   4  18
TORSDOF 6
ENDMDL
