MODEL 1
REMARK VINA RESULT:    -8.035      0.000      0.000
REMARK INTER + INTRA:         -12.867
REMARK INTER:                 -11.323
REMARK INTRA:                  -1.544
REMARK UNBOUND:                -1.544
REMARK  Name = 
REMARK  9 active torsions:
REMARK  status: ('A' for Active; 'I' for Inactive)
REMARK    1  A    between atoms: C_1  and  C_2
REMARK    2  A    between atoms: C_2  and  C_3
REMARK    3  A    between atoms: C_3  and  N_4
REMARK    4  A    between atoms: C_3  and  C_18
REMARK    5  A    between atoms: C_5  and  C_7
REMARK    6  A    between atoms: N_13  and  C_14
REMARK    7  A    between atoms: C_21  and  O_22
REMARK    8  A    between atoms: O_22  and  C_23
REMARK    9  A    between atoms: C_23  and  C_24
REMARK                            x       y       z     vdW  Elec       q    Type
REMARK                         _______ _______ _______ _____ _____    ______ ____
ROOT
ATOM      1  C   UNL     1      47.131   7.447  13.213  0.00  0.00    +0.000 C 
ENDROOT
BRANCH   1   2
ATOM      2  C   UNL     1      46.375   6.246  12.662  0.00  0.00    +0.000 A 
ATOM      3  C   UNL     1      45.697   6.326  11.439  0.00  0.00    +0.000 A 
ATOM      4  C   UNL     1      45.155   5.176  10.856  0.00  0.00    +0.000 A 
ATOM      5  C   UNL     1      45.287   3.940  11.491  0.00  0.00    +0.000 A 
ATOM      6  C   UNL     1      45.857   3.872  12.757  0.00  0.00    +0.000 A 
ATOM      7  C   UNL     1      46.403   5.013  13.336  0.00  0.00    +0.000 A 
BRANCH   5   8
ATOM      8  O   UNL     1      44.845   2.848  10.790  0.00  0.00    +0.000 OA
BRANCH   8   9
ATOM      9  C   UNL     1      44.460   3.148   9.439  0.00  0.00    +0.000 C 
BRANCH   9  10
ATOM     10  C   UNL     1      45.470   2.646   8.434  0.00  0.00    +0.000 A 
ATOM     11  C   UNL     1      46.053   3.505   7.508  0.00  0.00    +0.000 A 
ATOM     12  C   UNL     1      47.032   3.010   6.653  0.00  0.00    +0.000 A 
ATOM     13  C   UNL     1      47.416   1.679   6.753  0.00  0.00    +0.000 A 
ATOM     14  C   UNL     1      46.803   0.893   7.716  0.00  0.00    +0.000 A 
ATOM     15  N   UNL     1      45.847   1.346   8.556  0.00  0.00    +0.000 NA
ENDBRANCH   9  10
ENDBRANCH   8   9
ENDBRANCH   5   8
ENDBRANCH   1   2
BRANCH   1  16
ATOM     16  N   UNL     1      48.235   6.969  14.021  0.00  0.00    +0.000 N 
ATOM     17  C   UNL     1      48.800   7.663  15.055  0.00  0.00    +0.000 C 
ATOM     18  O   UNL     1      48.326   8.701  15.502  0.00  0.00    +0.000 OA
ATOM     19  H   UNL     1      48.785   6.240  13.587  0.00  0.00    +0.000 HD
BRANCH  17  20
ATOM     20  C   UNL     1      49.983   7.023  15.651  0.00  0.00    +0.000 A 
ATOM     21  C   UNL     1      51.254   7.522  15.425  0.00  0.00    +0.000 A 
ATOM     22  S   UNL     1      52.465   6.725  16.331  0.00  0.00    +0.000 S 
ATOM     23  C   UNL     1      51.330   5.653  17.014  0.00  0.00    +0.000 A 
ATOM     24  N   UNL     1      51.696   4.723  17.932  0.00  0.00    +0.000 NA
ATOM     25  C   UNL     1      50.728   3.974  18.354  0.00  0.00    +0.000 A 
ATOM     26  N   UNL     1      49.420   4.039  17.923  0.00  0.00    +0.000 N 
ATOM     27  C   UNL     1      48.411   3.142  18.446  0.00  0.00    +0.000 C 
ATOM     28  C   UNL     1      49.021   4.959  16.964  0.00  0.00    +0.000 A 
ATOM     29  O   UNL     1      47.869   5.017  16.540  0.00  0.00    +0.000 OA
ATOM     30  C   UNL     1      50.061   5.871  16.521  0.00  0.00    +0.000 A 
ENDBRANCH  17  20
ENDBRANCH   1  16
BRANCH   1  32
ATOM     31  C   UNL     1      48.963   7.848  11.464  0.00  0.00    +0.000 C 
ATOM     32  C   UNL     1      47.648   8.340  12.061  0.00  0.00    +0.000 C 
ENDBRANCH   1  32
TORSDOF 7
ENDMDL
MODEL 2
REMARK VINA RESULT:    -7.841      1.859      2.206
REMARK INTER + INTRA:         -12.593
REMARK INTER:                 -11.199
REMARK INTRA:                  -1.394
REMARK UNBOUND:                -1.544
REMARK  Name = 
REMARK  9 active torsions:
REMARK  status: ('A' for Active; 'I' for Inactive)
REMARK    1  A    between atoms: C_1  and  C_2
REMARK    2  A    between atoms: C_2  and  C_3
REMARK    3  A    between atoms: C_3  and  N_4
REMARK    4  A    between atoms: C_3  and  C_18
REMARK    5  A    between atoms: C_5  and  C_7
REMARK    6  A    between atoms: N_13  and  C_14
REMARK    7  A    between atoms: C_21  and  O_22
REMARK    8  A    between atoms: O_22  and  C_23
REMARK    9  A    between atoms: C_23  and  C_24
REMARK                            x       y       z     vdW  Elec       q    Type
REMARK                         _______ _______ _______ _____ _____    ______ ____
ROOT
ATOM      1  C   UNL     1      47.881   7.524  13.177  0.00  0.00    +0.000 C 
ENDROOT
BRANCH   1   2
ATOM      2  C   UNL     1      46.801   6.564  12.697  0.00  0.00    +0.000 A 
ATOM      3  C   UNL     1      45.991   6.888  11.601  0.00  0.00    +0.000 A 
ATOM      4  C   UNL     1      45.124   5.934  11.058  0.00  0.00    +0.000 A 
ATOM      5  C   UNL     1      45.061   4.651  11.606  0.00  0.00    +0.000 A 
ATOM      6  C   UNL     1      45.777   4.359  12.762  0.00  0.00    +0.000 A 
ATOM      7  C   UNL     1      46.644   5.304  13.300  0.00  0.00    +0.000 A 
BRANCH   5   8
ATOM      8  O   UNL     1      44.287   3.742  10.934  0.00  0.00    +0.000 OA
BRANCH   8   9
ATOM      9  C   UNL     1      44.143   4.031   9.534  0.00  0.00    +0.000 C 
BRANCH   9  10
ATOM     10  C   UNL     1      45.209   3.360   8.700  0.00  0.00    +0.000 A 
ATOM     11  C   UNL     1      45.457   1.995   8.809  0.00  0.00    +0.000 A 
ATOM     12  C   UNL     1      46.397   1.412   7.966  0.00  0.00    +0.000 A 
ATOM     13  C   UNL     1      47.053   2.198   7.027  0.00  0.00    +0.000 A 
ATOM     14  C   UNL     1      46.734   3.546   6.967  0.00  0.00    +0.000 A 
ATOM     15  N   UNL     1      45.830   4.139   7.775  0.00  0.00    +0.000 NA
ENDBRANCH   9  10
ENDBRANCH   8   9
ENDBRANCH   5   8
ENDBRANCH   1   2
BRANCH   1  16
ATOM     16  N   UNL     1      47.835   7.587  14.624  0.00  0.00    +0.000 N 
ATOM     17  C   UNL     1      48.504   8.505  15.384  0.00  0.00    +0.000 C 
ATOM     18  O   UNL     1      49.094   9.468  14.906  0.00  0.00    +0.000 OA
ATOM     19  H   UNL     1      47.545   6.727  15.070  0.00  0.00    +0.000 HD
BRANCH  17  20
ATOM     20  C   UNL     1      48.395   8.298  16.837  0.00  0.00    +0.000 A 
ATOM     21  C   UNL     1      48.022   9.331  17.679  0.00  0.00    +0.000 A 
ATOM     22  S   UNL     1      47.810   8.837  19.302  0.00  0.00    +0.000 S 
ATOM     23  C   UNL     1      48.263   7.237  18.935  0.00  0.00    +0.000 A 
ATOM     24  N   UNL     1      48.252   6.262  19.880  0.00  0.00    +0.000 NA
ATOM     25  C   UNL     1      48.630   5.099  19.457  0.00  0.00    +0.000 A 
ATOM     26  N   UNL     1      49.055   4.812  18.176  0.00  0.00    +0.000 N 
ATOM     27  C   UNL     1      49.475   3.477  17.805  0.00  0.00    +0.000 C 
ATOM     28  C   UNL     1      49.105   5.793  17.197  0.00  0.00    +0.000 A 
ATOM     29  O   UNL     1      49.509   5.571  16.057  0.00  0.00    +0.000 OA
ATOM     30  C   UNL     1      48.616   7.096  17.610  0.00  0.00    +0.000 A 
ENDBRANCH  17  20
ENDBRANCH   1  16
BRANCH   1  32
ATOM     31  C   UNL     1      49.830   7.903  11.555  0.00  0.00    +0.000 C 
ATOM     32  C   UNL     1      49.276   7.058  12.698  0.00  0.00    +0.000 C 
ENDBRANCH   1  32
TORSDOF 7
ENDMDL
MODEL 3
REMARK VINA RESULT:    -7.812      1.528      2.232
REMARK INTER + INTRA:         -12.553
REMARK INTER:                 -11.380
REMARK INTRA:                  -1.173
REMARK UNBOUND:                -1.544
REMARK  Name = 
REMARK  9 active torsions:
REMARK  status: ('A' for Active; 'I' for Inactive)
REMARK    1  A    between atoms: C_1  and  C_2
REMARK    2  A    between atoms: C_2  and  C_3
REMARK    3  A    between atoms: C_3  and  N_4
REMARK    4  A    between atoms: C_3  and  C_18
REMARK    5  A    between atoms: C_5  and  C_7
REMARK    6  A    between atoms: N_13  and  C_14
REMARK    7  A    between atoms: C_21  and  O_22
REMARK    8  A    between atoms: O_22  and  C_23
REMARK    9  A    between atoms: C_23  and  C_24
REMARK                            x       y       z     vdW  Elec       q    Type
REMARK                         _______ _______ _______ _____ _____    ______ ____
ROOT
ATOM      1  C   UNL     1      47.546   6.815  13.332  0.00  0.00    +0.000 C 
ENDROOT
BRANCH   1   2
ATOM      2  C   UNL     1      46.489   6.036  12.560  0.00  0.00    +0.000 A 
ATOM      3  C   UNL     1      45.924   6.562  11.391  0.00  0.00    +0.000 A 
ATOM      4  C   UNL     1      45.088   5.773  10.595  0.00  0.00    +0.000 A 
ATOM      5  C   UNL     1      44.814   4.453  10.960  0.00  0.00    +0.000 A 
ATOM      6  C   UNL     1      45.279   3.962  12.175  0.00  0.00    +0.000 A 
ATOM      7  C   UNL     1      46.115   4.744  12.965  0.00  0.00    +0.000 A 
BRANCH   5   8
ATOM      8  O   UNL     1      44.097   3.711  10.057  0.00  0.00    +0.000 OA
BRANCH   8   9
ATOM      9  C   UNL     1      44.643   2.404   9.822  0.00  0.00    +0.000 C 
BRANCH   9  10
ATOM     10  C   UNL     1      45.491   2.357   8.573  0.00  0.00    +0.000 A 
ATOM     11  C   UNL     1      45.584   3.454   7.722  0.00  0.00    +0.000 A 
ATOM     12  C   UNL     1      46.436   3.385   6.625  0.00  0.00    +0.000 A 
ATOM     13  C   UNL     1      47.186   2.236   6.414  0.00  0.00    +0.000 A 
ATOM     14  C   UNL     1      47.055   1.194   7.319  0.00  0.00    +0.000 A 
ATOM     15  N   UNL     1      46.231   1.231   8.389  0.00  0.00    +0.000 NA
ENDBRANCH   9  10
ENDBRANCH   8   9
ENDBRANCH   5   8
ENDBRANCH   1   2
BRANCH   1  16
ATOM     16  N   UNL     1      47.922   6.049  14.503  0.00  0.00    +0.000 N 
ATOM     17  C   UNL     1      48.514   6.574  15.618  0.00  0.00    +0.000 C 
ATOM     18  O   UNL     1      48.648   7.779  15.800  0.00  0.00    +0.000 OA
ATOM     19  H   UNL     1      48.024   5.057  14.337  0.00  0.00    +0.000 HD
BRANCH  17  20
ATOM     20  C   UNL     1      48.908   5.581  16.630  0.00  0.00    +0.000 A 
ATOM     21  C   UNL     1      47.961   4.803  17.273  0.00  0.00    +0.000 A 
ATOM     22  S   UNL     1      48.644   3.614  18.295  0.00  0.00    +0.000 S 
ATOM     23  C   UNL     1      50.226   4.140  17.947  0.00  0.00    +0.000 A 
ATOM     24  N   UNL     1      51.312   3.511  18.464  0.00  0.00    +0.000 NA
ATOM     25  C   UNL     1      52.448   4.029  18.119  0.00  0.00    +0.000 A 
ATOM     26  N   UNL     1      52.610   5.145  17.325  0.00  0.00    +0.000 N 
ATOM     27  C   UNL     1      53.928   5.657  17.011  0.00  0.00    +0.000 C 
ATOM     28  C   UNL     1      51.519   5.826  16.807  0.00  0.00    +0.000 A 
ATOM     29  O   UNL     1      51.635   6.840  16.123  0.00  0.00    +0.000 OA
ATOM     30  C   UNL     1      50.228   5.233  17.106  0.00  0.00    +0.000 A 
ENDBRANCH  17  20
ENDBRANCH   1  16
BRANCH   1  32
ATOM     31  C   UNL     1      48.954   8.563  12.095  0.00  0.00    +0.000 C 
ATOM     32  C   UNL     1      48.780   7.088  12.441  0.00  0.00    +0.000 C 
ENDBRANCH   1  32
TORSDOF 7
ENDMDL
MODEL 4
REMARK VINA RESULT:    -6.767      1.869      3.011
REMARK INTER + INTRA:         -11.080
REMARK INTER:                  -9.410
REMARK INTRA:                  -1.670
REMARK UNBOUND:                -1.544
REMARK  Name = 
REMARK  9 active torsions:
REMARK  status: ('A' for Active; 'I' for Inactive)
REMARK    1  A    between atoms: C_1  and  C_2
REMARK    2  A    between atoms: C_2  and  C_3
REMARK    3  A    between atoms: C_3  and  N_4
REMARK    4  A    between atoms: C_3  and  C_18
REMARK    5  A    between atoms: C_5  and  C_7
REMARK    6  A    between atoms: N_13  and  C_14
REMARK    7  A    between atoms: C_21  and  O_22
REMARK    8  A    between atoms: O_22  and  C_23
REMARK    9  A    between atoms: C_23  and  C_24
REMARK                            x       y       z     vdW  Elec       q    Type
REMARK                         _______ _______ _______ _____ _____    ______ ____
ROOT
ATOM      1  C   UNL     1      48.166   7.812  13.547  0.00  0.00    +0.000 C 
ENDROOT
BRANCH   1   2
ATOM      2  C   UNL     1      47.028   6.838  13.276  0.00  0.00    +0.000 A 
ATOM      3  C   UNL     1      45.852   7.268  12.647  0.00  0.00    +0.000 A 
ATOM      4  C   UNL     1      44.888   6.339  12.244  0.00  0.00    +0.000 A 
ATOM      5  C   UNL     1      45.092   4.975  12.465  0.00  0.00    +0.000 A 
ATOM      6  C   UNL     1      46.201   4.553  13.189  0.00  0.00    +0.000 A 
ATOM      7  C   UNL     1      47.164   5.475  13.586  0.00  0.00    +0.000 A 
BRANCH   5   8
ATOM      8  O   UNL     1      44.163   4.127  11.922  0.00  0.00    +0.000 OA
BRANCH   8   9
ATOM      9  C   UNL     1      43.780   4.473  10.581  0.00  0.00    +0.000 C 
BRANCH   9  10
ATOM     10  C   UNL     1      44.608   3.749   9.546  0.00  0.00    +0.000 A 
ATOM     11  C   UNL     1      45.397   4.446   8.637  0.00  0.00    +0.000 A 
ATOM     12  C   UNL     1      46.198   3.731   7.753  0.00  0.00    +0.000 A 
ATOM     13  C   UNL     1      46.204   2.343   7.808  0.00  0.00    +0.000 A 
ATOM     14  C   UNL     1      45.407   1.723   8.756  0.00  0.00    +0.000 A 
ATOM     15  N   UNL     1      44.616   2.392   9.624  0.00  0.00    +0.000 NA
ENDBRANCH   9  10
ENDBRANCH   8   9
ENDBRANCH   5   8
ENDBRANCH   1   2
BRANCH   1  16
ATOM     16  N   UNL     1      49.144   7.158  14.393  0.00  0.00    +0.000 N 
ATOM     17  C   UNL     1      49.307   7.405  15.728  0.00  0.00    +0.000 C 
ATOM     18  O   UNL     1      48.535   8.098  16.380  0.00  0.00    +0.000 OA
ATOM     19  H   UNL     1      49.919   6.746  13.891  0.00  0.00    +0.000 HD
BRANCH  17  20
ATOM     20  C   UNL     1      50.442   6.703  16.348  0.00  0.00    +0.000 A 
ATOM     21  C   UNL     1      50.242   5.771  17.351  0.00  0.00    +0.000 A 
ATOM     22  S   UNL     1      51.676   4.968  17.823  0.00  0.00    +0.000 S 
ATOM     23  C   UNL     1      52.615   5.882  16.735  0.00  0.00    +0.000 A 
ATOM     24  N   UNL     1      53.948   5.665  16.592  0.00  0.00    +0.000 NA
ATOM     25  C   UNL     1      54.531   6.442  15.736  0.00  0.00    +0.000 A 
ATOM     26  N   UNL     1      53.916   7.449  15.022  0.00  0.00    +0.000 N 
ATOM     27  C   UNL     1      54.662   8.278  14.098  0.00  0.00    +0.000 C 
ATOM     28  C   UNL     1      52.562   7.715  15.168  0.00  0.00    +0.000 A 
ATOM     29  O   UNL     1      51.997   8.625  14.568  0.00  0.00    +0.000 OA
ATOM     30  C   UNL     1      51.855   6.815  16.062  0.00  0.00    +0.000 A 
ENDBRANCH  17  20
ENDBRANCH   1  16
BRANCH   1  32
ATOM     31  C   UNL     1      50.046   7.459  11.841  0.00  0.00    +0.000 C 
ATOM     32  C   UNL     1      48.815   8.275  12.222  0.00  0.00    +0.000 C 
ENDBRANCH   1  32
TORSDOF 7
ENDMDL
MODEL 5
REMARK VINA RESULT:    -6.575      2.718      8.273
REMARK INTER + INTRA:         -10.810
REMARK INTER:                 -10.172
REMARK INTRA:                  -0.638
REMARK UNBOUND:                -1.544
REMARK  Name = 
REMARK  9 active torsions:
REMARK  status: ('A' for Active; 'I' for Inactive)
REMARK    1  A    between atoms: C_1  and  C_2
REMARK    2  A    between atoms: C_2  and  C_3
REMARK    3  A    between atoms: C_3  and  N_4
REMARK    4  A    between atoms: C_3  and  C_18
REMARK    5  A    between atoms: C_5  and  C_7
REMARK    6  A    between atoms: N_13  and  C_14
REMARK    7  A    between atoms: C_21  and  O_22
REMARK    8  A    between atoms: O_22  and  C_23
REMARK    9  A    between atoms: C_23  and  C_24
REMARK                            x       y       z     vdW  Elec       q    Type
REMARK                         _______ _______ _______ _____ _____    ______ ____
ROOT
ATOM      1  C   UNL     1      46.718   8.264  12.170  0.00  0.00    +0.000 C 
ENDROOT
BRANCH   1   2
ATOM      2  C   UNL     1      47.726   8.149  13.305  0.00  0.00    +0.000 A 
ATOM      3  C   UNL     1      47.568   8.896  14.480  0.00  0.00    +0.000 A 
ATOM      4  C   UNL     1      48.394   8.657  15.583  0.00  0.00    +0.000 A 
ATOM      5  C   UNL     1      49.381   7.672  15.520  0.00  0.00    +0.000 A 
ATOM      6  C   UNL     1      49.617   7.009  14.321  0.00  0.00    +0.000 A 
ATOM      7  C   UNL     1      48.793   7.240  13.225  0.00  0.00    +0.000 A 
BRANCH   5   8
ATOM      8  O   UNL     1      50.055   7.413  16.685  0.00  0.00    +0.000 OA
BRANCH   8   9
ATOM      9  C   UNL     1      49.275   6.697  17.655  0.00  0.00    +0.000 C 
BRANCH   9  10
ATOM     10  C   UNL     1      49.181   5.223  17.336  0.00  0.00    +0.000 A 
ATOM     11  C   UNL     1      50.242   4.360  17.592  0.00  0.00    +0.000 A 
ATOM     12  C   UNL     1      50.078   3.001  17.349  0.00  0.00    +0.000 A 
ATOM     13  C   UNL     1      48.859   2.534  16.875  0.00  0.00    +0.000 A 
ATOM     14  C   UNL     1      47.844   3.454  16.665  0.00  0.00    +0.000 A 
ATOM     15  N   UNL     1      47.977   4.780  16.887  0.00  0.00    +0.000 NA
ENDBRANCH   9  10
ENDBRANCH   8   9
ENDBRANCH   5   8
ENDBRANCH   1   2
BRANCH   1  16
ATOM     16  N   UNL     1      46.179   6.948  11.894  0.00  0.00    +0.000 N 
ATOM     17  C   UNL     1      44.902   6.703  11.472  0.00  0.00    +0.000 C 
ATOM     18  O   UNL     1      44.126   7.591  11.137  0.00  0.00    +0.000 OA
ATOM     19  H   UNL     1      46.683   6.190  12.334  0.00  0.00    +0.000 HD
BRANCH  17  20
ATOM     20  C   UNL     1      44.550   5.278  11.371  0.00  0.00    +0.000 A 
ATOM     21  C   UNL     1      43.854   4.641  12.383  0.00  0.00    +0.000 A 
ATOM     22  S   UNL     1      43.418   3.034  11.997  0.00  0.00    +0.000 S 
ATOM     23  C   UNL     1      44.193   3.125  10.483  0.00  0.00    +0.000 A 
ATOM     24  N   UNL     1      44.162   2.090   9.606  0.00  0.00    +0.000 NA
ATOM     25  C   UNL     1      44.803   2.301   8.501  0.00  0.00    +0.000 A 
ATOM     26  N   UNL     1      45.509   3.445   8.192  0.00  0.00    +0.000 N 
ATOM     27  C   UNL     1      46.210   3.577   6.932  0.00  0.00    +0.000 C 
ATOM     28  C   UNL     1      45.584   4.508   9.080  0.00  0.00    +0.000 A 
ATOM     29  O   UNL     1      46.231   5.525   8.842  0.00  0.00    +0.000 OA
ATOM     30  C   UNL     1      44.814   4.343  10.300  0.00  0.00    +0.000 A 
ENDBRANCH  17  20
ENDBRANCH   1  16
BRANCH   1  32
ATOM     31  C   UNL     1      45.672  10.575  11.798  0.00  0.00    +0.000 C 
ATOM     32  C   UNL     1      45.585   9.248  12.545  0.00  0.00    +0.000 C 
ENDBRANCH   1  32
TORSDOF 7
ENDMDL
MODEL 6
REMARK VINA RESULT:    -6.238      2.471      4.333
REMARK INTER + INTRA:         -10.334
REMARK INTER:                  -8.983
REMARK INTRA:                  -1.351
REMARK UNBOUND:                -1.544
REMARK  Name = 
REMARK  9 active torsions:
REMARK  status: ('A' for Active; 'I' for Inactive)
REMARK    1  A    between atoms: C_1  and  C_2
REMARK    2  A    between atoms: C_2  and  C_3
REMARK    3  A    between atoms: C_3  and  N_4
REMARK    4  A    between atoms: C_3  and  C_18
REMARK    5  A    between atoms: C_5  and  C_7
REMARK    6  A    between atoms: N_13  and  C_14
REMARK    7  A    between atoms: C_21  and  O_22
REMARK    8  A    between atoms: O_22  and  C_23
REMARK    9  A    between atoms: C_23  and  C_24
REMARK                            x       y       z     vdW  Elec       q    Type
REMARK                         _______ _______ _______ _____ _____    ______ ____
ROOT
ATOM      1  C   UNL     1      48.349   5.327  16.966  0.00  0.00    +0.000 C 
ENDROOT
BRANCH   1   2
ATOM      2  C   UNL     1      47.913   5.404  15.509  0.00  0.00    +0.000 A 
ATOM      3  C   UNL     1      47.040   4.449  14.972  0.00  0.00    +0.000 A 
ATOM      4  C   UNL     1      46.508   4.622  13.690  0.00  0.00    +0.000 A 
ATOM      5  C   UNL     1      46.844   5.749  12.938  0.00  0.00    +0.000 A 
ATOM      6  C   UNL     1      47.797   6.640  13.419  0.00  0.00    +0.000 A 
ATOM      7  C   UNL     1      48.323   6.473  14.695  0.00  0.00    +0.000 A 
BRANCH   5   8
ATOM      8  O   UNL     1      46.176   5.907  11.752  0.00  0.00    +0.000 OA
BRANCH   8   9
ATOM      9  C   UNL     1      45.018   5.068  11.625  0.00  0.00    +0.000 C 
BRANCH   9  10
ATOM     10  C   UNL     1      45.028   4.271  10.342  0.00  0.00    +0.000 A 
ATOM     11  C   UNL     1      45.528   4.812   9.161  0.00  0.00    +0.000 A 
ATOM     12  C   UNL     1      45.583   4.012   8.025  0.00  0.00    +0.000 A 
ATOM     13  C   UNL     1      45.157   2.693   8.097  0.00  0.00    +0.000 A 
ATOM     14  C   UNL     1      44.692   2.222   9.315  0.00  0.00    +0.000 A 
ATOM     15  N   UNL     1      44.622   2.977  10.432  0.00  0.00    +0.000 NA
ENDBRANCH   9  10
ENDBRANCH   8   9
ENDBRANCH   5   8
ENDBRANCH   1   2
BRANCH   1  16
ATOM     16  N   UNL     1      49.543   4.510  17.050  0.00  0.00    +0.000 N 
ATOM     17  C   UNL     1      49.636   3.339  17.750  0.00  0.00    +0.000 C 
ATOM     18  O   UNL     1      48.668   2.782  18.254  0.00  0.00    +0.000 OA
ATOM     19  H   UNL     1      50.400   5.002  16.837  0.00  0.00    +0.000 HD
BRANCH  17  20
ATOM     20  C   UNL     1      50.983   2.749  17.783  0.00  0.00    +0.000 A 
ATOM     21  C   UNL     1      51.191   1.425  17.436  0.00  0.00    +0.000 A 
ATOM     22  S   UNL     1      52.843   0.988  17.397  0.00  0.00    +0.000 S 
ATOM     23  C   UNL     1      53.327   2.543  17.895  0.00  0.00    +0.000 A 
ATOM     24  N   UNL     1      54.638   2.873  18.018  0.00  0.00    +0.000 NA
ATOM     25  C   UNL     1      54.852   4.087  18.414  0.00  0.00    +0.000 A 
ATOM     26  N   UNL     1      53.877   5.008  18.734  0.00  0.00    +0.000 N 
ATOM     27  C   UNL     1      54.221   6.340  19.185  0.00  0.00    +0.000 C 
ATOM     28  C   UNL     1      52.529   4.691  18.647  0.00  0.00    +0.000 A 
ATOM     29  O   UNL     1      51.641   5.482  18.956  0.00  0.00    +0.000 OA
ATOM     30  C   UNL     1      52.244   3.363  18.132  0.00  0.00    +0.000 A 
ENDBRANCH  17  20
ENDBRANCH   1  16
BRANCH   1  32
ATOM     31  C   UNL     1      47.925   6.997  18.865  0.00  0.00    +0.000 C 
ATOM     32  C   UNL     1      48.617   6.742  17.529  0.00  0.00    +0.000 C 
ENDBRANCH   1  32
TORSDOF 7
ENDMDL
MODEL 7
REMARK VINA RESULT:    -5.987      2.513      3.470
REMARK INTER + INTRA:          -9.981
REMARK INTER:                  -8.309
REMARK INTRA:                  -1.673
REMARK UNBOUND:                -1.544
REMARK  Name = 
REMARK  9 active torsions:
REMARK  status: ('A' for Active; 'I' for Inactive)
REMARK    1  A    between atoms: C_1  and  C_2
REMARK    2  A    between atoms: C_2  and  C_3
REMARK    3  A    between atoms: C_3  and  N_4
REMARK    4  A    between atoms: C_3  and  C_18
REMARK    5  A    between atoms: C_5  and  C_7
REMARK    6  A    between atoms: N_13  and  C_14
REMARK    7  A    between atoms: C_21  and  O_22
REMARK    8  A    between atoms: O_22  and  C_23
REMARK    9  A    between atoms: C_23  and  C_24
REMARK                            x       y       z     vdW  Elec       q    Type
REMARK                         _______ _______ _______ _____ _____    ______ ____
ROOT
ATOM      1  C   UNL     1      50.493   8.530  13.020  0.00  0.00    +0.000 C 
ENDROOT
BRANCH   1   2
ATOM      2  C   UNL     1      49.024   8.348  12.661  0.00  0.00    +0.000 A 
ATOM      3  C   UNL     1      48.626   7.358  11.754  0.00  0.00    +0.000 A 
ATOM      4  C   UNL     1      47.269   7.081  11.563  0.00  0.00    +0.000 A 
ATOM      5  C   UNL     1      46.301   7.790  12.277  0.00  0.00    +0.000 A 
ATOM      6  C   UNL     1      46.684   8.850  13.091  0.00  0.00    +0.000 A 
ATOM      7  C   UNL     1      48.034   9.123  13.288  0.00  0.00    +0.000 A 
BRANCH   5   8
ATOM      8  O   UNL     1      45.007   7.366  12.129  0.00  0.00    +0.000 OA
BRANCH   8   9
ATOM      9  C   UNL     1      44.661   6.260  12.979  0.00  0.00    +0.000 C 
BRANCH   9  10
ATOM     10  C   UNL     1      44.298   5.026  12.188  0.00  0.00    +0.000 A 
ATOM     11  C   UNL     1      44.410   4.998  10.801  0.00  0.00    +0.000 A 
ATOM     12  C   UNL     1      44.133   3.814  10.127  0.00  0.00    +0.000 A 
ATOM     13  C   UNL     1      43.770   2.685  10.850  0.00  0.00    +0.000 A 
ATOM     14  C   UNL     1      43.701   2.787  12.231  0.00  0.00    +0.000 A 
ATOM     15  N   UNL     1      43.959   3.925  12.911  0.00  0.00    +0.000 NA
ENDBRANCH   9  10
ENDBRANCH   8   9
ENDBRANCH   5   8
ENDBRANCH   1   2
BRANCH   1  16
ATOM     16  N   UNL     1      50.822   7.621  14.099  0.00  0.00    +0.000 N 
ATOM     17  C   UNL     1      51.142   8.007  15.371  0.00  0.00    +0.000 C 
ATOM     18  O   UNL     1      51.032   9.161  15.768  0.00  0.00    +0.000 OA
ATOM     19  H   UNL     1      51.122   6.705  13.794  0.00  0.00    +0.000 HD
BRANCH  17  20
ATOM     20  C   UNL     1      51.552   6.910  16.261  0.00  0.00    +0.000 A 
ATOM     21  C   UNL     1      52.859   6.802  16.703  0.00  0.00    +0.000 A 
ATOM     22  S   UNL     1      53.085   5.549  17.845  0.00  0.00    +0.000 S 
ATOM     23  C   UNL     1      51.451   5.081  17.742  0.00  0.00    +0.000 A 
ATOM     24  N   UNL     1      50.949   4.080  18.510  0.00  0.00    +0.000 NA
ATOM     25  C   UNL     1      49.694   3.829  18.315  0.00  0.00    +0.000 A 
ATOM     26  N   UNL     1      48.885   4.464  17.396  0.00  0.00    +0.000 N 
ATOM     27  C   UNL     1      47.493   4.098  17.241  0.00  0.00    +0.000 C 
ATOM     28  C   UNL     1      49.376   5.470  16.576  0.00  0.00    +0.000 A 
ATOM     29  O   UNL     1      48.685   6.030  15.729  0.00  0.00    +0.000 OA
ATOM     30  C   UNL     1      50.761   5.835  16.817  0.00  0.00    +0.000 A 
ENDBRANCH  17  20
ENDBRANCH   1  16
BRANCH   1  32
ATOM     31  C   UNL     1      52.871   8.511  12.063  0.00  0.00    +0.000 C 
ATOM     32  C   UNL     1      51.391   8.263  11.790  0.00  0.00    +0.000 C 
ENDBRANCH   1  32
TORSDOF 7
ENDMDL
MODEL 8
REMARK VINA RESULT:    -5.666      2.692      4.258
REMARK INTER + INTRA:          -9.528
REMARK INTER:                  -8.444
REMARK INTRA:                  -1.085
REMARK UNBOUND:                -1.544
REMARK  Name = 
REMARK  9 active torsions:
REMARK  status: ('A' for Active; 'I' for Inactive)
REMARK    1  A    between atoms: C_1  and  C_2
REMARK    2  A    between atoms: C_2  and  C_3
REMARK    3  A    between atoms: C_3  and  N_4
REMARK    4  A    between atoms: C_3  and  C_18
REMARK    5  A    between atoms: C_5  and  C_7
REMARK    6  A    between atoms: N_13  and  C_14
REMARK    7  A    between atoms: C_21  and  O_22
REMARK    8  A    between atoms: O_22  and  C_23
REMARK    9  A    between atoms: C_23  and  C_24
REMARK                            x       y       z     vdW  Elec       q    Type
REMARK                         _______ _______ _______ _____ _____    ______ ____
ROOT
ATOM      1  C   UNL     1      48.702   5.607  17.109  0.00  0.00    +0.000 C 
ENDROOT
BRANCH   1   2
ATOM      2  C   UNL     1      48.184   5.600  15.677  0.00  0.00    +0.000 A 
ATOM      3  C   UNL     1      47.243   4.650  15.261  0.00  0.00    +0.000 A 
ATOM      4  C   UNL     1      46.643   4.756  14.002  0.00  0.00    +0.000 A 
ATOM      5  C   UNL     1      46.979   5.812  13.152  0.00  0.00    +0.000 A 
ATOM      6  C   UNL     1      47.994   6.691  13.513  0.00  0.00    +0.000 A 
ATOM      7  C   UNL     1      48.587   6.591  14.767  0.00  0.00    +0.000 A 
BRANCH   5   8
ATOM      8  O   UNL     1      46.249   5.915  11.997  0.00  0.00    +0.000 OA
BRANCH   8   9
ATOM      9  C   UNL     1      45.122   5.027  11.945  0.00  0.00    +0.000 C 
BRANCH   9  10
ATOM     10  C   UNL     1      45.027   4.303  10.623  0.00  0.00    +0.000 A 
ATOM     11  C   UNL     1      45.445   4.903   9.439  0.00  0.00    +0.000 A 
ATOM     12  C   UNL     1      45.406   4.168   8.260  0.00  0.00    +0.000 A 
ATOM     13  C   UNL     1      44.969   2.850   8.292  0.00  0.00    +0.000 A 
ATOM     14  C   UNL     1      44.590   2.316   9.513  0.00  0.00    +0.000 A 
ATOM     15  N   UNL     1      44.613   3.009  10.673  0.00  0.00    +0.000 NA
ENDBRANCH   9  10
ENDBRANCH   8   9
ENDBRANCH   5   8
ENDBRANCH   1   2
BRANCH   1  16
ATOM     16  N   UNL     1      50.131   5.371  17.086  0.00  0.00    +0.000 N 
ATOM     17  C   UNL     1      50.851   4.854  18.127  0.00  0.00    +0.000 C 
ATOM     18  O   UNL     1      50.330   4.394  19.138  0.00  0.00    +0.000 OA
ATOM     19  H   UNL     1      50.630   5.902  16.386  0.00  0.00    +0.000 HD
BRANCH  17  20
ATOM     20  C   UNL     1      52.305   4.815  17.910  0.00  0.00    +0.000 A 
ATOM     21  C   UNL     1      53.036   5.981  17.761  0.00  0.00    +0.000 A 
ATOM     22  S   UNL     1      54.723   5.715  17.672  0.00  0.00    +0.000 S 
ATOM     23  C   UNL     1      54.521   4.028  17.778  0.00  0.00    +0.000 A 
ATOM     24  N   UNL     1      55.586   3.186  17.808  0.00  0.00    +0.000 NA
ATOM     25  C   UNL     1      55.279   1.931  17.880  0.00  0.00    +0.000 A 
ATOM     26  N   UNL     1      53.997   1.421  17.894  0.00  0.00    +0.000 N 
ATOM     27  C   UNL     1      53.757  -0.006  17.960  0.00  0.00    +0.000 C 
ATOM     28  C   UNL     1      52.889   2.253  17.835  0.00  0.00    +0.000 A 
ATOM     29  O   UNL     1      51.738   1.823  17.814  0.00  0.00    +0.000 OA
ATOM     30  C   UNL     1      53.190   3.674  17.831  0.00  0.00    +0.000 A 
ENDBRANCH  17  20
ENDBRANCH   1  16
BRANCH   1  32
ATOM     31  C   UNL     1      47.605   6.795  19.098  0.00  0.00    +0.000 C 
ATOM     32  C   UNL     1      48.384   6.955  17.797  0.00  0.00    +0.000 C 
ENDBRANCH   1  32
TORSDOF 7
ENDMDL
MODEL 9
REMARK VINA RESULT:    -5.417      4.953      7.029
REMARK INTER + INTRA:          -9.178
REMARK INTER:                  -7.930
REMARK INTRA:                  -1.248
REMARK UNBOUND:                -1.544
REMARK  Name = 
REMARK  9 active torsions:
REMARK  status: ('A' for Active; 'I' for Inactive)
REMARK    1  A    between atoms: C_1  and  C_2
REMARK    2  A    between atoms: C_2  and  C_3
REMARK    3  A    between atoms: C_3  and  N_4
REMARK    4  A    between atoms: C_3  and  C_18
REMARK    5  A    between atoms: C_5  and  C_7
REMARK    6  A    between atoms: N_13  and  C_14
REMARK    7  A    between atoms: C_21  and  O_22
REMARK    8  A    between atoms: O_22  and  C_23
REMARK    9  A    between atoms: C_23  and  C_24
REMARK                            x       y       z     vdW  Elec       q    Type
REMARK                         _______ _______ _______ _____ _____    ______ ____
ROOT
ATOM      1  C   UNL     1      50.969   8.895  12.544  0.00  0.00    +0.000 C 
ENDROOT
BRANCH   1   2
ATOM      2  C   UNL     1      49.675   8.101  12.651  0.00  0.00    +0.000 A 
ATOM      3  C   UNL     1      48.820   7.972  11.549  0.00  0.00    +0.000 A 
ATOM      4  C   UNL     1      47.727   7.102  11.601  0.00  0.00    +0.000 A 
ATOM      5  C   UNL     1      47.481   6.354  12.755  0.00  0.00    +0.000 A 
ATOM      6  C   UNL     1      48.257   6.562  13.890  0.00  0.00    +0.000 A 
ATOM      7  C   UNL     1      49.348   7.423  13.837  0.00  0.00    +0.000 A 
BRANCH   5   8
ATOM      8  O   UNL     1      46.472   5.430  12.675  0.00  0.00    +0.000 OA
BRANCH   8   9
ATOM      9  C   UNL     1      45.373   5.847  11.849  0.00  0.00    +0.000 C 
BRANCH   9  10
ATOM     10  C   UNL     1      45.069   4.848  10.758  0.00  0.00    +0.000 A 
ATOM     11  C   UNL     1      45.516   5.045   9.455  0.00  0.00    +0.000 A 
ATOM     12  C   UNL     1      45.273   4.060   8.503  0.00  0.00    +0.000 A 
ATOM     13  C   UNL     1      44.608   2.900   8.876  0.00  0.00    +0.000 A 
ATOM     14  C   UNL     1      44.213   2.769  10.199  0.00  0.00    +0.000 A 
ATOM     15  N   UNL     1      44.431   3.711  11.142  0.00  0.00    +0.000 NA
ENDBRANCH   9  10
ENDBRANCH   8   9
ENDBRANCH   5   8
ENDBRANCH   1   2
BRANCH   1  16
ATOM     16  N   UNL     1      51.373   8.937  11.152  0.00  0.00    +0.000 N 
ATOM     17  C   UNL     1      52.653   8.756  10.708  0.00  0.00    +0.000 C 
ATOM     18  O   UNL     1      53.569   8.388  11.436  0.00  0.00    +0.000 OA
ATOM     19  H   UNL     1      50.727   9.424  10.546  0.00  0.00    +0.000 HD
BRANCH  17  20
ATOM     20  C   UNL     1      52.837   8.959   9.263  0.00  0.00    +0.000 A 
ATOM     21  C   UNL     1      52.686  10.212   8.694  0.00  0.00    +0.000 A 
ATOM     22  S   UNL     1      53.092  10.254   7.033  0.00  0.00    +0.000 S 
ATOM     23  C   UNL     1      53.432   8.585   7.015  0.00  0.00    +0.000 A 
ATOM     24  N   UNL     1      53.887   7.966   5.896  0.00  0.00    +0.000 NA
ATOM     25  C   UNL     1      54.092   6.695   6.029  0.00  0.00    +0.000 A 
ATOM     26  N   UNL     1      53.855   5.963   7.174  0.00  0.00    +0.000 N 
ATOM     27  C   UNL     1      54.102   4.536   7.218  0.00  0.00    +0.000 C 
ATOM     28  C   UNL     1      53.363   6.561   8.325  0.00  0.00    +0.000 A 
ATOM     29  O   UNL     1      53.114   5.927   9.347  0.00  0.00    +0.000 OA
ATOM     30  C   UNL     1      53.192   8.001   8.241  0.00  0.00    +0.000 A 
ENDBRANCH  17  20
ENDBRANCH   1  16
BRANCH   1  32
ATOM     31  C   UNL     1      50.476  11.353  12.011  0.00  0.00    +0.000 C 
ATOM     32  C   UNL     1      50.778  10.326  13.097  0.00  0.00    +0.000 C 
ENDBRANCH   1  32
TORSDOF 7
ENDMDL
