MODEL 1
REMARK VINA RESULT:    -8.556      0.000      0.000
REMARK INTER + INTRA:         -13.514
REMARK INTER:                 -12.057
REMARK INTRA:                  -1.457
REMARK UNBOUND:                -1.457
REMARK  Name = 
REMARK  8 active torsions:
REMARK  status: ('A' for Active; 'I' for Inactive)
REMARK    1  A    between atoms: C_1  and  C_2
REMARK    2  A    between atoms: C_2  and  N_3
REMARK    3  A    between atoms: C_2  and  C_25
REMARK    4  A    between atoms: N_3  and  C_4
REMARK    5  A    between atoms: C_4  and  C_5
REMARK    6  A    between atoms: C_8  and  C_9
REMARK    7  A    between atoms: C_9  and  N_10
REMARK    8  A    between atoms: C_11  and  C_13
REMARK                            x       y       z     vdW  Elec       q    Type
REMARK                         _______ _______ _______ _____ _____    ______ ____
ROOT
ATOM      1  C   UNL     1      44.657   5.837  10.865  0.00  0.00    +0.000 A 
ATOM      2  C   UNL     1      46.046   5.845  10.668  0.00  0.00    +0.000 A 
ATOM      3  C   UNL     1      46.878   6.619  11.481  0.00  0.00    +0.000 A 
ATOM      4  C   UNL     1      46.338   7.407  12.504  0.00  0.00    +0.000 A 
ATOM      5  C   UNL     1      44.946   7.445  12.663  0.00  0.00    +0.000 A 
ATOM      6  C   UNL     1      44.115   6.661  11.860  0.00  0.00    +0.000 A 
ENDROOT
BRANCH   1   7
ATOM      7  C   UNL     1      43.761   4.948  10.027  0.00  0.00    +0.000 C 
BRANCH   7   8
ATOM      8  N   UNL     1      44.486   4.437   8.865  0.00  0.00    +0.000 NA
ATOM      9  H   UNL     1      44.048   4.805   8.021  0.00  0.00    +0.000 HD
BRANCH   8  11
ATOM     10  C   UNL     1      44.463   2.278  10.118  0.00  0.00    +0.000 C 
ATOM     11  C   UNL     1      44.511   2.974   8.753  0.00  0.00    +0.000 C 
BRANCH  11  12
ATOM     12  C   UNL     1      45.766   2.519   8.016  0.00  0.00    +0.000 A 
ATOM     13  C   UNL     1      46.170   1.180   8.070  0.00  0.00    +0.000 A 
ATOM     14  C   UNL     1      47.343   0.807   7.429  0.00  0.00    +0.000 A 
ATOM     15  N   UNL     1      48.131   1.659   6.742  0.00  0.00    +0.000 NA
ATOM     16  C   UNL     1      47.730   2.948   6.701  0.00  0.00    +0.000 A 
ATOM     17  C   UNL     1      46.580   3.419   7.315  0.00  0.00    +0.000 A 
ENDBRANCH  11  12
ENDBRANCH   8  11
ENDBRANCH   7   8
ENDBRANCH   1   7
BRANCH   4  18
ATOM     18  C   UNL     1      47.227   8.224  13.403  0.00  0.00    +0.000 C 
BRANCH  18  19
ATOM     19  N   UNL     1      47.578   7.495  14.594  0.00  0.00    +0.000 N 
ATOM     20  C   UNL     1      48.804   6.894  14.720  0.00  0.00    +0.000 C 
ATOM     21  O   UNL     1      49.664   6.975  13.846  0.00  0.00    +0.000 OA
ATOM     22  H   UNL     1      46.816   7.210  15.201  0.00  0.00    +0.000 HD
BRANCH  20  23
ATOM     23  C   UNL     1      49.062   6.199  15.984  0.00  0.00    +0.000 A 
ATOM     24  C   UNL     1      50.089   6.632  16.811  0.00  0.00    +0.000 A 
ATOM     25  S   UNL     1      50.228   5.734  18.254  0.00  0.00    +0.000 S 
ATOM     26  C   UNL     1      48.952   4.704  17.800  0.00  0.00    +0.000 A 
ATOM     27  N   UNL     1      48.574   3.670  18.597  0.00  0.00    +0.000 NA
ATOM     28  C   UNL     1      47.613   2.952  18.120  0.00  0.00    +0.000 A 
ATOM     29  N   UNL     1      46.989   3.182  16.919  0.00  0.00    +0.000 N 
ATOM     30  C   UNL     1      47.316   4.234  16.097  0.00  0.00    +0.000 A 
ATOM     31  O   UNL     1      46.700   4.442  15.056  0.00  0.00    +0.000 OA
ATOM     32  C   UNL     1      48.407   5.060  16.581  0.00  0.00    +0.000 A 
ATOM     33  H   UNL     1      46.236   2.587  16.608  0.00  0.00    +0.000 HD
ENDBRANCH  20  23
ENDBRANCH  18  19
ENDBRANCH   4  18
TORSDOF 7
ENDMDL
MODEL 2
REMARK VINA RESULT:    -7.923      1.778      2.299
REMARK INTER + INTRA:         -12.623
REMARK INTER:                 -11.432
REMARK INTRA:                  -1.191
REMARK UNBOUND:                -1.457
REMARK  Name = 
REMARK  8 active torsions:
REMARK  status: ('A' for Active; 'I' for Inactive)
REMARK    1  A    between atoms: C_1  and  C_2
REMARK    2  A    between atoms: C_2  and  N_3
REMARK    3  A    between atoms: C_2  and  C_25
REMARK    4  A    between atoms: N_3  and  C_4
REMARK    5  A    between atoms: C_4  and  C_5
REMARK    6  A    between atoms: C_8  and  C_9
REMARK    7  A    between atoms: C_9  and  N_10
REMARK    8  A    between atoms: C_11  and  C_13
REMARK                            x       y       z     vdW  Elec       q    Type
REMARK                         _______ _______ _______ _____ _____    ______ ____
ROOT
ATOM      1  C   UNL     1      45.625   5.545  11.468  0.00  0.00    +0.000 A 
ATOM      2  C   UNL     1      45.920   4.906  12.682  0.00  0.00    +0.000 A 
ATOM      3  C   UNL     1      46.968   5.355  13.489  0.00  0.00    +0.000 A 
ATOM      4  C   UNL     1      47.749   6.448  13.097  0.00  0.00    +0.000 A 
ATOM      5  C   UNL     1      47.493   7.051  11.858  0.00  0.00    +0.000 A 
ATOM      6  C   UNL     1      46.436   6.611  11.056  0.00  0.00    +0.000 A 
ENDROOT
BRANCH   1   7
ATOM      7  C   UNL     1      44.448   5.101  10.624  0.00  0.00    +0.000 C 
BRANCH   7   8
ATOM      8  N   UNL     1      44.887   4.747   9.275  0.00  0.00    +0.000 NA
ATOM      9  H   UNL     1      44.425   5.367   8.611  0.00  0.00    +0.000 HD
BRANCH   8  11
ATOM     10  C   UNL     1      44.239   2.472  10.071  0.00  0.00    +0.000 C 
ATOM     11  C   UNL     1      44.592   3.366   8.877  0.00  0.00    +0.000 C 
BRANCH  11  12
ATOM     12  C   UNL     1      45.783   2.757   8.147  0.00  0.00    +0.000 A 
ATOM     13  C   UNL     1      46.587   3.552   7.321  0.00  0.00    +0.000 A 
ATOM     14  C   UNL     1      47.635   2.959   6.631  0.00  0.00    +0.000 A 
ATOM     15  N   UNL     1      47.940   1.647   6.707  0.00  0.00    +0.000 NA
ATOM     16  C   UNL     1      47.155   0.892   7.504  0.00  0.00    +0.000 A 
ATOM     17  C   UNL     1      46.081   1.390   8.226  0.00  0.00    +0.000 A 
ENDBRANCH  11  12
ENDBRANCH   8  11
ENDBRANCH   7   8
ENDBRANCH   1   7
BRANCH   4  18
ATOM     18  C   UNL     1      48.863   6.958  13.972  0.00  0.00    +0.000 C 
BRANCH  18  19
ATOM     19  N   UNL     1      48.571   6.750  15.366  0.00  0.00    +0.000 N 
ATOM     20  C   UNL     1      49.062   7.597  16.325  0.00  0.00    +0.000 C 
ATOM     21  O   UNL     1      49.740   8.582  16.042  0.00  0.00    +0.000 OA
ATOM     22  H   UNL     1      48.237   5.829  15.634  0.00  0.00    +0.000 HD
BRANCH  20  23
ATOM     23  C   UNL     1      48.682   7.304  17.710  0.00  0.00    +0.000 A 
ATOM     24  C   UNL     1      48.091   8.290  18.486  0.00  0.00    +0.000 A 
ATOM     25  S   UNL     1      47.683   7.770  20.058  0.00  0.00    +0.000 S 
ATOM     26  C   UNL     1      48.329   6.222  19.771  0.00  0.00    +0.000 A 
ATOM     27  N   UNL     1      48.330   5.276  20.748  0.00  0.00    +0.000 NA
ATOM     28  C   UNL     1      48.876   4.157  20.406  0.00  0.00    +0.000 A 
ATOM     29  N   UNL     1      49.413   3.896  19.170  0.00  0.00    +0.000 N 
ATOM     30  C   UNL     1      49.404   4.811  18.144  0.00  0.00    +0.000 A 
ATOM     31  O   UNL     1      49.844   4.525  17.034  0.00  0.00    +0.000 OA
ATOM     32  C   UNL     1      48.819   6.094  18.486  0.00  0.00    +0.000 A 
ATOM     33  H   UNL     1      49.817   2.995  18.964  0.00  0.00    +0.000 HD
ENDBRANCH  20  23
ENDBRANCH  18  19
ENDBRANCH   4  18
TORSDOF 7
ENDMDL
MODEL 3
REMARK VINA RESULT:    -7.770      2.172      2.655
REMARK INTER + INTRA:         -12.407
REMARK INTER:                 -11.254
REMARK INTRA:                  -1.153
REMARK UNBOUND:                -1.457
REMARK  Name = 
REMARK  8 active torsions:
REMARK  status: ('A' for Active; 'I' for Inactive)
REMARK    1  A    between atoms: C_1  and  C_2
REMARK    2  A    between atoms: C_2  and  N_3
REMARK    3  A    between atoms: C_2  and  C_25
REMARK    4  A    between atoms: N_3  and  C_4
REMARK    5  A    between atoms: C_4  and  C_5
REMARK    6  A    between atoms: C_8  and  C_9
REMARK    7  A    between atoms: C_9  and  N_10
REMARK    8  A    between atoms: C_11  and  C_13
REMARK                            x       y       z     vdW  Elec       q    Type
REMARK                         _______ _______ _______ _____ _____    ______ ____
ROOT
ATOM      1  C   UNL     1      45.509   5.462  11.463  0.00  0.00    +0.000 A 
ATOM      2  C   UNL     1      45.688   4.931  12.749  0.00  0.00    +0.000 A 
ATOM      3  C   UNL     1      46.661   5.452  13.607  0.00  0.00    +0.000 A 
ATOM      4  C   UNL     1      47.479   6.509  13.196  0.00  0.00    +0.000 A 
ATOM      5  C   UNL     1      47.340   7.002  11.891  0.00  0.00    +0.000 A 
ATOM      6  C   UNL     1      46.359   6.491  11.037  0.00  0.00    +0.000 A 
ENDROOT
BRANCH   1   7
ATOM      7  C   UNL     1      44.412   4.943  10.556  0.00  0.00    +0.000 C 
BRANCH   7   8
ATOM      8  N   UNL     1      44.940   4.655   9.224  0.00  0.00    +0.000 NA
ATOM      9  H   UNL     1      44.571   5.346   8.572  0.00  0.00    +0.000 HD
BRANCH   8  11
ATOM     10  C   UNL     1      44.294   2.318   9.818  0.00  0.00    +0.000 C 
ATOM     11  C   UNL     1      44.600   3.325   8.704  0.00  0.00    +0.000 C 
BRANCH  11  12
ATOM     12  C   UNL     1      45.741   2.779   7.852  0.00  0.00    +0.000 A 
ATOM     13  C   UNL     1      46.180   1.461   8.020  0.00  0.00    +0.000 A 
ATOM     14  C   UNL     1      47.253   1.010   7.264  0.00  0.00    +0.000 A 
ATOM     15  N   UNL     1      47.908   1.766   6.359  0.00  0.00    +0.000 NA
ATOM     16  C   UNL     1      47.476   3.036   6.210  0.00  0.00    +0.000 A 
ATOM     17  C   UNL     1      46.419   3.580   6.924  0.00  0.00    +0.000 A 
ENDBRANCH  11  12
ENDBRANCH   8  11
ENDBRANCH   7   8
ENDBRANCH   1   7
BRANCH   4  18
ATOM     18  C   UNL     1      48.510   7.096  14.122  0.00  0.00    +0.000 C 
BRANCH  18  19
ATOM     19  N   UNL     1      48.275   6.701  15.485  0.00  0.00    +0.000 N 
ATOM     20  C   UNL     1      49.305   6.287  16.290  0.00  0.00    +0.000 C 
ATOM     21  O   UNL     1      50.469   6.264  15.901  0.00  0.00    +0.000 OA
ATOM     22  H   UNL     1      47.318   6.475  15.741  0.00  0.00    +0.000 HD
BRANCH  20  23
ATOM     23  C   UNL     1      48.953   5.930  17.668  0.00  0.00    +0.000 A 
ATOM     24  C   UNL     1      49.114   4.623  18.103  0.00  0.00    +0.000 A 
ATOM     25  S   UNL     1      48.690   4.390  19.739  0.00  0.00    +0.000 S 
ATOM     26  C   UNL     1      48.230   6.020  19.906  0.00  0.00    +0.000 A 
ATOM     27  N   UNL     1      47.730   6.486  21.082  0.00  0.00    +0.000 NA
ATOM     28  C   UNL     1      47.394   7.732  21.063  0.00  0.00    +0.000 A 
ATOM     29  N   UNL     1      47.523   8.559  19.975  0.00  0.00    +0.000 N 
ATOM     30  C   UNL     1      48.053   8.139  18.778  0.00  0.00    +0.000 A 
ATOM     31  O   UNL     1      48.204   8.919  17.842  0.00  0.00    +0.000 OA
ATOM     32  C   UNL     1      48.426   6.738  18.742  0.00  0.00    +0.000 A 
ATOM     33  H   UNL     1      47.250   9.528  20.030  0.00  0.00    +0.000 HD
ENDBRANCH  20  23
ENDBRANCH  18  19
ENDBRANCH   4  18
TORSDOF 7
ENDMDL
MODEL 4
REMARK VINA RESULT:    -7.065      3.287      7.856
REMARK INTER + INTRA:         -11.414
REMARK INTER:                  -9.934
REMARK INTRA:                  -1.480
REMARK UNBOUND:                -1.457
REMARK  Name = 
REMARK  8 active torsions:
REMARK  status: ('A' for Active; 'I' for Inactive)
REMARK    1  A    between atoms: C_1  and  C_2
REMARK    2  A    between atoms: C_2  and  N_3
REMARK    3  A    between atoms: C_2  and  C_25
REMARK    4  A    between atoms: N_3  and  C_4
REMARK    5  A    between atoms: C_4  and  C_5
REMARK    6  A    between atoms: C_8  and  C_9
REMARK    7  A    between atoms: C_9  and  N_10
REMARK    8  A    between atoms: C_11  and  C_13
REMARK                            x       y       z     vdW  Elec       q    Type
REMARK                         _______ _______ _______ _____ _____    ______ ____
ROOT
ATOM      1  C   UNL     1      48.896   7.759  16.287  0.00  0.00    +0.000 A 
ATOM      2  C   UNL     1      49.135   6.702  15.396  0.00  0.00    +0.000 A 
ATOM      3  C   UNL     1      48.866   6.843  14.032  0.00  0.00    +0.000 A 
ATOM      4  C   UNL     1      48.346   8.041  13.531  0.00  0.00    +0.000 A 
ATOM      5  C   UNL     1      48.051   9.077  14.428  0.00  0.00    +0.000 A 
ATOM      6  C   UNL     1      48.333   8.941  15.790  0.00  0.00    +0.000 A 
ENDROOT
BRANCH   1   7
ATOM      7  C   UNL     1      49.248   7.630  17.755  0.00  0.00    +0.000 C 
BRANCH   7   8
ATOM      8  N   UNL     1      48.735   6.374  18.298  0.00  0.00    +0.000 NA
ATOM      9  H   UNL     1      48.181   6.581  19.128  0.00  0.00    +0.000 HD
BRANCH   8  11
ATOM     10  C   UNL     1      51.188   5.946  18.480  0.00  0.00    +0.000 C 
ATOM     11  C   UNL     1      49.769   5.405  18.682  0.00  0.00    +0.000 C 
BRANCH  11  12
ATOM     12  C   UNL     1      49.617   4.119  17.877  0.00  0.00    +0.000 A 
ATOM     13  C   UNL     1      50.697   3.241  17.737  0.00  0.00    +0.000 A 
ATOM     14  C   UNL     1      50.541   2.103  16.957  0.00  0.00    +0.000 A 
ATOM     15  N   UNL     1      49.398   1.778  16.318  0.00  0.00    +0.000 NA
ATOM     16  C   UNL     1      48.366   2.636  16.459  0.00  0.00    +0.000 A 
ATOM     17  C   UNL     1      48.426   3.800  17.209  0.00  0.00    +0.000 A 
ENDBRANCH  11  12
ENDBRANCH   8  11
ENDBRANCH   7   8
ENDBRANCH   1   7
BRANCH   4  18
ATOM     18  C   UNL     1      48.078   8.213  12.060  0.00  0.00    +0.000 C 
BRANCH  18  19
ATOM     19  N   UNL     1      47.445   7.047  11.503  0.00  0.00    +0.000 N 
ATOM     20  C   UNL     1      46.083   6.980  11.362  0.00  0.00    +0.000 C 
ATOM     21  O   UNL     1      45.348   7.915  11.671  0.00  0.00    +0.000 OA
ATOM     22  H   UNL     1      47.993   6.192  11.479  0.00  0.00    +0.000 HD
BRANCH  20  23
ATOM     23  C   UNL     1      45.548   5.755  10.762  0.00  0.00    +0.000 A 
ATOM     24  C   UNL     1      45.744   5.507   9.412  0.00  0.00    +0.000 A 
ATOM     25  S   UNL     1      45.088   4.023   8.887  0.00  0.00    +0.000 S 
ATOM     26  C   UNL     1      44.475   3.684  10.438  0.00  0.00    +0.000 A 
ATOM     27  N   UNL     1      43.760   2.552  10.673  0.00  0.00    +0.000 NA
ATOM     28  C   UNL     1      43.331   2.433  11.884  0.00  0.00    +0.000 A 
ATOM     29  N   UNL     1      43.562   3.342  12.887  0.00  0.00    +0.000 N 
ATOM     30  C   UNL     1      44.307   4.483  12.703  0.00  0.00    +0.000 A 
ATOM     31  O   UNL     1      44.540   5.247  13.635  0.00  0.00    +0.000 OA
ATOM     32  C   UNL     1      44.794   4.673  11.349  0.00  0.00    +0.000 A 
ATOM     33  H   UNL     1      43.206   3.184  13.817  0.00  0.00    +0.000 HD
ENDBRANCH  20  23
ENDBRANCH  18  19
ENDBRANCH   4  18
TORSDOF 7
ENDMDL
MODEL 5
REMARK VINA RESULT:    -7.027      2.808      8.053
REMARK INTER + INTRA:         -11.360
REMARK INTER:                  -9.764
REMARK INTRA:                  -1.596
REMARK UNBOUND:                -1.457
REMARK  Name = 
REMARK  8 active torsions:
REMARK  status: ('A' for Active; 'I' for Inactive)
REMARK    1  A    between atoms: C_1  and  C_2
REMARK    2  A    between atoms: C_2  and  N_3
REMARK    3  A    between atoms: C_2  and  C_25
REMARK    4  A    between atoms: N_3  and  C_4
REMARK    5  A    between atoms: C_4  and  C_5
REMARK    6  A    between atoms: C_8  and  C_9
REMARK    7  A    between atoms: C_9  and  N_10
REMARK    8  A    between atoms: C_11  and  C_13
REMARK                            x       y       z     vdW  Elec       q    Type
REMARK                         _______ _______ _______ _____ _____    ______ ____
ROOT
ATOM      1  C   UNL     1      49.363   8.200  15.872  0.00  0.00    +0.000 A 
ATOM      2  C   UNL     1      50.016   7.414  14.911  0.00  0.00    +0.000 A 
ATOM      3  C   UNL     1      49.492   7.278  13.623  0.00  0.00    +0.000 A 
ATOM      4  C   UNL     1      48.300   7.920  13.270  0.00  0.00    +0.000 A 
ATOM      5  C   UNL     1      47.616   8.658  14.246  0.00  0.00    +0.000 A 
ATOM      6  C   UNL     1      48.147   8.806  15.530  0.00  0.00    +0.000 A 
ENDROOT
BRANCH   1   7
ATOM      7  C   UNL     1      49.964   8.402  17.248  0.00  0.00    +0.000 C 
BRANCH   7   8
ATOM      8  N   UNL     1      49.851   7.180  18.042  0.00  0.00    +0.000 NA
ATOM      9  H   UNL     1      50.559   6.519  17.724  0.00  0.00    +0.000 HD
BRANCH   8  11
ATOM     10  C   UNL     1      47.817   6.471  19.304  0.00  0.00    +0.000 C 
ATOM     11  C   UNL     1      48.546   6.513  17.957  0.00  0.00    +0.000 C 
BRANCH  11  12
ATOM     12  C   UNL     1      48.711   5.086  17.446  0.00  0.00    +0.000 A 
ATOM     13  C   UNL     1      47.714   4.499  16.658  0.00  0.00    +0.000 A 
ATOM     14  C   UNL     1      47.871   3.181  16.249  0.00  0.00    +0.000 A 
ATOM     15  N   UNL     1      48.939   2.418  16.560  0.00  0.00    +0.000 NA
ATOM     16  C   UNL     1      49.891   2.996  17.323  0.00  0.00    +0.000 A 
ATOM     17  C   UNL     1      49.821   4.301  17.786  0.00  0.00    +0.000 A 
ENDBRANCH  11  12
ENDBRANCH   8  11
ENDBRANCH   7   8
ENDBRANCH   1   7
BRANCH   4  18
ATOM     18  C   UNL     1      47.741   7.802  11.877  0.00  0.00    +0.000 C 
BRANCH  18  19
ATOM     19  N   UNL     1      47.015   6.572  11.707  0.00  0.00    +0.000 N 
ATOM     20  C   UNL     1      45.648   6.536  11.812  0.00  0.00    +0.000 C 
ATOM     21  O   UNL     1      44.983   7.547  12.022  0.00  0.00    +0.000 OA
ATOM     22  H   UNL     1      47.545   5.709  11.784  0.00  0.00    +0.000 HD
BRANCH  20  23
ATOM     23  C   UNL     1      45.011   5.234  11.597  0.00  0.00    +0.000 A 
ATOM     24  C   UNL     1      44.320   4.625  12.634  0.00  0.00    +0.000 A 
ATOM     25  S   UNL     1      43.613   3.134  12.202  0.00  0.00    +0.000 S 
ATOM     26  C   UNL     1      44.250   3.228  10.627  0.00  0.00    +0.000 A 
ATOM     27  N   UNL     1      44.040   2.228   9.730  0.00  0.00    +0.000 NA
ATOM     28  C   UNL     1      44.602   2.414   8.582  0.00  0.00    +0.000 A 
ATOM     29  N   UNL     1      45.348   3.516   8.248  0.00  0.00    +0.000 N 
ATOM     30  C   UNL     1      45.558   4.565   9.111  0.00  0.00    +0.000 A 
ATOM     31  O   UNL     1      46.185   5.561   8.761  0.00  0.00    +0.000 OA
ATOM     32  C   UNL     1      44.963   4.394  10.423  0.00  0.00    +0.000 A 
ATOM     33  H   UNL     1      45.753   3.604   7.328  0.00  0.00    +0.000 HD
ENDBRANCH  20  23
ENDBRANCH  18  19
ENDBRANCH   4  18
TORSDOF 7
ENDMDL
MODEL 6
REMARK VINA RESULT:    -6.963      2.235      3.056
REMARK INTER + INTRA:         -11.269
REMARK INTER:                 -10.339
REMARK INTRA:                  -0.931
REMARK UNBOUND:                -1.457
REMARK  Name = 
REMARK  8 active torsions:
REMARK  status: ('A' for Active; 'I' for Inactive)
REMARK    1  A    between atoms: C_1  and  C_2
REMARK    2  A    between atoms: C_2  and  N_3
REMARK    3  A    between atoms: C_2  and  C_25
REMARK    4  A    between atoms: N_3  and  C_4
REMARK    5  A    between atoms: C_4  and  C_5
REMARK    6  A    between atoms: C_8  and  C_9
REMARK    7  A    between atoms: C_9  and  N_10
REMARK    8  A    between atoms: C_11  and  C_13
REMARK                            x       y       z     vdW  Elec       q    Type
REMARK                         _______ _______ _______ _____ _____    ______ ____
ROOT
ATOM      1  C   UNL     1      45.425   5.706  11.501  0.00  0.00    +0.000 A 
ATOM      2  C   UNL     1      46.298   4.992  12.335  0.00  0.00    +0.000 A 
ATOM      3  C   UNL     1      47.153   5.662  13.214  0.00  0.00    +0.000 A 
ATOM      4  C   UNL     1      47.158   7.059  13.274  0.00  0.00    +0.000 A 
ATOM      5  C   UNL     1      46.328   7.775  12.401  0.00  0.00    +0.000 A 
ATOM      6  C   UNL     1      45.463   7.106  11.531  0.00  0.00    +0.000 A 
ENDROOT
BRANCH   1   7
ATOM      7  C   UNL     1      44.452   4.981  10.595  0.00  0.00    +0.000 C 
BRANCH   7   8
ATOM      8  N   UNL     1      45.085   4.649   9.320  0.00  0.00    +0.000 NA
ATOM      9  H   UNL     1      44.833   5.362   8.637  0.00  0.00    +0.000 HD
BRANCH   8  11
ATOM     10  C   UNL     1      44.240   2.360   9.846  0.00  0.00    +0.000 C 
ATOM     11  C   UNL     1      44.703   3.344   8.767  0.00  0.00    +0.000 C 
BRANCH  11  12
ATOM     12  C   UNL     1      45.873   2.725   8.010  0.00  0.00    +0.000 A 
ATOM     13  C   UNL     1      46.137   1.355   8.116  0.00  0.00    +0.000 A 
ATOM     14  C   UNL     1      47.238   0.830   7.453  0.00  0.00    +0.000 A 
ATOM     15  N   UNL     1      48.082   1.563   6.697  0.00  0.00    +0.000 NA
ATOM     16  C   UNL     1      47.817   2.883   6.607  0.00  0.00    +0.000 A 
ATOM     17  C   UNL     1      46.748   3.501   7.237  0.00  0.00    +0.000 A 
ENDBRANCH  11  12
ENDBRANCH   8  11
ENDBRANCH   7   8
ENDBRANCH   1   7
BRANCH   4  18
ATOM     18  C   UNL     1      48.055   7.790  14.238  0.00  0.00    +0.000 C 
BRANCH  18  19
ATOM     19  N   UNL     1      48.899   6.877  14.962  0.00  0.00    +0.000 N 
ATOM     20  C   UNL     1      49.515   7.255  16.127  0.00  0.00    +0.000 C 
ATOM     21  O   UNL     1      49.351   8.368  16.620  0.00  0.00    +0.000 OA
ATOM     22  H   UNL     1      49.241   6.065  14.456  0.00  0.00    +0.000 HD
BRANCH  20  23
ATOM     23  C   UNL     1      50.333   6.237  16.792  0.00  0.00    +0.000 A 
ATOM     24  C   UNL     1      49.730   5.302  17.620  0.00  0.00    +0.000 A 
ATOM     25  S   UNL     1      50.821   4.172  18.284  0.00  0.00    +0.000 S 
ATOM     26  C   UNL     1      52.146   4.927  17.528  0.00  0.00    +0.000 A 
ATOM     27  N   UNL     1      53.411   4.467  17.716  0.00  0.00    +0.000 NA
ATOM     28  C   UNL     1      54.323   5.148  17.107  0.00  0.00    +0.000 A 
ATOM     29  N   UNL     1      54.082   6.245  16.318  0.00  0.00    +0.000 N 
ATOM     30  C   UNL     1      52.817   6.725  16.074  0.00  0.00    +0.000 A 
ATOM     31  O   UNL     1      52.633   7.676  15.319  0.00  0.00    +0.000 OA
ATOM     32  C   UNL     1      51.757   6.004  16.754  0.00  0.00    +0.000 A 
ATOM     33  H   UNL     1      54.840   6.728  15.862  0.00  0.00    +0.000 HD
ENDBRANCH  20  23
ENDBRANCH  18  19
ENDBRANCH   4  18
TORSDOF 7
ENDMDL
MODEL 7
REMARK VINA RESULT:    -6.802      2.100      2.755
REMARK INTER + INTRA:         -11.043
REMARK INTER:                 -10.100
REMARK INTRA:                  -0.944
REMARK UNBOUND:                -1.457
REMARK  Name = 
REMARK  8 active torsions:
REMARK  status: ('A' for Active; 'I' for Inactive)
REMARK    1  A    between atoms: C_1  and  C_2
REMARK    2  A    between atoms: C_2  and  N_3
REMARK    3  A    between atoms: C_2  and  C_25
REMARK    4  A    between atoms: N_3  and  C_4
REMARK    5  A    between atoms: C_4  and  C_5
REMARK    6  A    between atoms: C_8  and  C_9
REMARK    7  A    between atoms: C_9  and  N_10
REMARK    8  A    between atoms: C_11  and  C_13
REMARK                            x       y       z     vdW  Elec       q    Type
REMARK                         _______ _______ _______ _____ _____    ______ ____
ROOT
ATOM      1  C   UNL     1      44.801   4.616  11.721  0.00  0.00    +0.000 A 
ATOM      2  C   UNL     1      45.922   4.500  12.557  0.00  0.00    +0.000 A 
ATOM      3  C   UNL     1      46.571   5.638  13.043  0.00  0.00    +0.000 A 
ATOM      4  C   UNL     1      46.117   6.916  12.700  0.00  0.00    +0.000 A 
ATOM      5  C   UNL     1      45.033   7.033  11.819  0.00  0.00    +0.000 A 
ATOM      6  C   UNL     1      44.375   5.895  11.343  0.00  0.00    +0.000 A 
ENDROOT
BRANCH   1   7
ATOM      7  C   UNL     1      44.058   3.384  11.247  0.00  0.00    +0.000 C 
BRANCH   7   8
ATOM      8  N   UNL     1      44.849   2.656  10.256  0.00  0.00    +0.000 NA
ATOM      9  H   UNL     1      45.685   2.294  10.710  0.00  0.00    +0.000 HD
BRANCH   8  11
ATOM     10  C   UNL     1      44.100   3.972   8.271  0.00  0.00    +0.000 C 
ATOM     11  C   UNL     1      45.279   3.460   9.105  0.00  0.00    +0.000 C 
BRANCH  11  12
ATOM     12  C   UNL     1      46.199   2.647   8.203  0.00  0.00    +0.000 A 
ATOM     13  C   UNL     1      47.041   3.290   7.288  0.00  0.00    +0.000 A 
ATOM     14  C   UNL     1      47.832   2.520   6.447  0.00  0.00    +0.000 A 
ATOM     15  N   UNL     1      47.848   1.171   6.454  0.00  0.00    +0.000 NA
ATOM     16  C   UNL     1      47.030   0.564   7.339  0.00  0.00    +0.000 A 
ATOM     17  C   UNL     1      46.198   1.245   8.214  0.00  0.00    +0.000 A 
ENDBRANCH  11  12
ENDBRANCH   8  11
ENDBRANCH   7   8
ENDBRANCH   1   7
BRANCH   4  18
ATOM     18  C   UNL     1      46.791   8.148  13.240  0.00  0.00    +0.000 C 
BRANCH  18  19
ATOM     19  N   UNL     1      48.158   7.881  13.602  0.00  0.00    +0.000 N 
ATOM     20  C   UNL     1      48.679   8.339  14.785  0.00  0.00    +0.000 C 
ATOM     21  O   UNL     1      48.003   8.964  15.598  0.00  0.00    +0.000 OA
ATOM     22  H   UNL     1      48.785   7.597  12.856  0.00  0.00    +0.000 HD
BRANCH  20  23
ATOM     23  C   UNL     1      50.075   7.988  15.061  0.00  0.00    +0.000 A 
ATOM     24  C   UNL     1      51.097   8.682  14.430  0.00  0.00    +0.000 A 
ATOM     25  S   UNL     1      52.657   8.170  14.891  0.00  0.00    +0.000 S 
ATOM     26  C   UNL     1      52.019   6.969  15.913  0.00  0.00    +0.000 A 
ATOM     27  N   UNL     1      52.839   6.130  16.601  0.00  0.00    +0.000 NA
ATOM     28  C   UNL     1      52.224   5.249  17.316  0.00  0.00    +0.000 A 
ATOM     29  N   UNL     1      50.860   5.137  17.413  0.00  0.00    +0.000 N 
ATOM     30  C   UNL     1      49.993   5.983  16.763  0.00  0.00    +0.000 A 
ATOM     31  O   UNL     1      48.778   5.889  16.915  0.00  0.00    +0.000 OA
ATOM     32  C   UNL     1      50.637   6.980  15.927  0.00  0.00    +0.000 A 
ATOM     33  H   UNL     1      50.441   4.431  17.999  0.00  0.00    +0.000 HD
ENDBRANCH  20  23
ENDBRANCH  18  19
ENDBRANCH   4  18
TORSDOF 7
ENDMDL
MODEL 8
REMARK VINA RESULT:    -6.646      3.519      7.786
REMARK INTER + INTRA:         -10.823
REMARK INTER:                  -8.930
REMARK INTRA:                  -1.892
REMARK UNBOUND:                -1.457
REMARK  Name = 
REMARK  8 active torsions:
REMARK  status: ('A' for Active; 'I' for Inactive)
REMARK    1  A    between atoms: C_1  and  C_2
REMARK    2  A    between atoms: C_2  and  N_3
REMARK    3  A    between atoms: C_2  and  C_25
REMARK    4  A    between atoms: N_3  and  C_4
REMARK    5  A    between atoms: C_4  and  C_5
REMARK    6  A    between atoms: C_8  and  C_9
REMARK    7  A    between atoms: C_9  and  N_10
REMARK    8  A    between atoms: C_11  and  C_13
REMARK                            x       y       z     vdW  Elec       q    Type
REMARK                         _______ _______ _______ _____ _____    ______ ____
ROOT
ATOM      1  C   UNL     1      50.124   7.557  17.298  0.00  0.00    +0.000 A 
ATOM      2  C   UNL     1      50.770   7.067  16.153  0.00  0.00    +0.000 A 
ATOM      3  C   UNL     1      50.301   7.387  14.876  0.00  0.00    +0.000 A 
ATOM      4  C   UNL     1      49.171   8.197  14.717  0.00  0.00    +0.000 A 
ATOM      5  C   UNL     1      48.491   8.639  15.860  0.00  0.00    +0.000 A 
ATOM      6  C   UNL     1      48.968   8.331  17.137  0.00  0.00    +0.000 A 
ENDROOT
BRANCH   1   7
ATOM      7  C   UNL     1      50.670   7.265  18.680  0.00  0.00    +0.000 C 
BRANCH   7   8
ATOM      8  N   UNL     1      50.662   5.827  18.943  0.00  0.00    +0.000 NA
ATOM      9  H   UNL     1      51.266   5.369  18.262  0.00  0.00    +0.000 HD
BRANCH   8  11
ATOM     10  C   UNL     1      48.836   4.709  20.225  0.00  0.00    +0.000 C 
ATOM     11  C   UNL     1      49.339   5.197  18.863  0.00  0.00    +0.000 C 
BRANCH  11  12
ATOM     12  C   UNL     1      49.371   4.015  17.901  0.00  0.00    +0.000 A 
ATOM     13  C   UNL     1      48.237   3.685  17.150  0.00  0.00    +0.000 A 
ATOM     14  C   UNL     1      48.282   2.574  16.319  0.00  0.00    +0.000 A 
ATOM     15  N   UNL     1      49.364   1.780  16.181  0.00  0.00    +0.000 NA
ATOM     16  C   UNL     1      50.449   2.108  16.913  0.00  0.00    +0.000 A 
ATOM     17  C   UNL     1      50.499   3.192  17.776  0.00  0.00    +0.000 A 
ENDBRANCH  11  12
ENDBRANCH   8  11
ENDBRANCH   7   8
ENDBRANCH   1   7
BRANCH   4  18
ATOM     18  C   UNL     1      48.674   8.570  13.346  0.00  0.00    +0.000 C 
BRANCH  18  19
ATOM     19  N   UNL     1      47.715   7.614  12.859  0.00  0.00    +0.000 N 
ATOM     20  C   UNL     1      46.371   7.885  12.883  0.00  0.00    +0.000 C 
ATOM     21  O   UNL     1      45.928   8.958  13.286  0.00  0.00    +0.000 OA
ATOM     22  H   UNL     1      48.030   6.654  12.762  0.00  0.00    +0.000 HD
BRANCH  20  23
ATOM     23  C   UNL     1      45.487   6.849  12.341  0.00  0.00    +0.000 A 
ATOM     24  C   UNL     1      44.397   7.212  11.564  0.00  0.00    +0.000 A 
ATOM     25  S   UNL     1      43.496   5.883  10.987  0.00  0.00    +0.000 S 
ATOM     26  C   UNL     1      44.506   4.779  11.798  0.00  0.00    +0.000 A 
ATOM     27  N   UNL     1      44.262   3.442  11.744  0.00  0.00    +0.000 NA
ATOM     28  C   UNL     1      45.088   2.721  12.426  0.00  0.00    +0.000 A 
ATOM     29  N   UNL     1      46.143   3.217  13.151  0.00  0.00    +0.000 N 
ATOM     30  C   UNL     1      46.446   4.557  13.206  0.00  0.00    +0.000 A 
ATOM     31  O   UNL     1      47.430   4.961  13.820  0.00  0.00    +0.000 OA
ATOM     32  C   UNL     1      45.533   5.412  12.472  0.00  0.00    +0.000 A 
ATOM     33  H   UNL     1      46.758   2.597  13.655  0.00  0.00    +0.000 HD
ENDBRANCH  20  23
ENDBRANCH  18  19
ENDBRANCH   4  18
TORSDOF 7
ENDMDL
MODEL 9
REMARK VINA RESULT:    -6.386      2.932      4.269
REMARK INTER + INTRA:         -10.456
REMARK INTER:                  -9.527
REMARK INTRA:                  -0.929
REMARK UNBOUND:                -1.457
REMARK  Name = 
REMARK  8 active torsions:
REMARK  status: ('A' for Active; 'I' for Inactive)
REMARK    1  A    between atoms: C_1  and  C_2
REMARK    2  A    between atoms: C_2  and  N_3
REMARK    3  A    between atoms: C_2  and  C_25
REMARK    4  A    between atoms: N_3  and  C_4
REMARK    5  A    between atoms: C_4  and  C_5
REMARK    6  A    between atoms: C_8  and  C_9
REMARK    7  A    between atoms: C_9  and  N_10
REMARK    8  A    between atoms: C_11  and  C_13
REMARK                            x       y       z     vdW  Elec       q    Type
REMARK                         _______ _______ _______ _____ _____    ______ ____
ROOT
ATOM      1  C   UNL     1      44.653   4.409  11.723  0.00  0.00    +0.000 A 
ATOM      2  C   UNL     1      45.761   4.302  12.577  0.00  0.00    +0.000 A 
ATOM      3  C   UNL     1      46.354   5.443  13.124  0.00  0.00    +0.000 A 
ATOM      4  C   UNL     1      45.857   6.715  12.822  0.00  0.00    +0.000 A 
ATOM      5  C   UNL     1      44.788   6.827  11.923  0.00  0.00    +0.000 A 
ATOM      6  C   UNL     1      44.185   5.686  11.387  0.00  0.00    +0.000 A 
ENDROOT
BRANCH   1   7
ATOM      7  C   UNL     1      43.969   3.170  11.183  0.00  0.00    +0.000 C 
BRANCH   7   8
ATOM      8  N   UNL     1      44.801   2.523  10.170  0.00  0.00    +0.000 NA
ATOM      9  H   UNL     1      45.630   2.143  10.626  0.00  0.00    +0.000 HD
BRANCH   8  11
ATOM     10  C   UNL     1      44.087   4.018   8.303  0.00  0.00    +0.000 C 
ATOM     11  C   UNL     1      45.252   3.409   9.090  0.00  0.00    +0.000 C 
BRANCH  11  12
ATOM     12  C   UNL     1      46.153   2.650   8.122  0.00  0.00    +0.000 A 
ATOM     13  C   UNL     1      46.249   1.256   8.192  0.00  0.00    +0.000 A 
ATOM     14  C   UNL     1      47.115   0.598   7.329  0.00  0.00    +0.000 A 
ATOM     15  N   UNL     1      47.879   1.222   6.408  0.00  0.00    +0.000 NA
ATOM     16  C   UNL     1      47.778   2.567   6.354  0.00  0.00    +0.000 A 
ATOM     17  C   UNL     1      46.949   3.313   7.178  0.00  0.00    +0.000 A 
ENDBRANCH  11  12
ENDBRANCH   8  11
ENDBRANCH   7   8
ENDBRANCH   1   7
BRANCH   4  18
ATOM     18  C   UNL     1      46.472   7.949  13.427  0.00  0.00    +0.000 C 
BRANCH  18  19
ATOM     19  N   UNL     1      47.909   7.886  13.400  0.00  0.00    +0.000 N 
ATOM     20  C   UNL     1      48.666   8.605  14.289  0.00  0.00    +0.000 C 
ATOM     21  O   UNL     1      48.159   9.305  15.162  0.00  0.00    +0.000 OA
ATOM     22  H   UNL     1      48.338   7.526  12.553  0.00  0.00    +0.000 HD
BRANCH  20  23
ATOM     23  C   UNL     1      50.119   8.447  14.185  0.00  0.00    +0.000 A 
ATOM     24  C   UNL     1      50.858   8.113  15.311  0.00  0.00    +0.000 A 
ATOM     25  S   UNL     1      52.526   7.935  15.006  0.00  0.00    +0.000 S 
ATOM     26  C   UNL     1      52.325   8.348  13.367  0.00  0.00    +0.000 A 
ATOM     27  N   UNL     1      53.394   8.418  12.530  0.00  0.00    +0.000 NA
ATOM     28  C   UNL     1      53.103   8.770  11.322  0.00  0.00    +0.000 A 
ATOM     29  N   UNL     1      51.837   9.048  10.873  0.00  0.00    +0.000 N 
ATOM     30  C   UNL     1      50.724   8.958  11.676  0.00  0.00    +0.000 A 
ATOM     31  O   UNL     1      49.599   9.161  11.228  0.00  0.00    +0.000 OA
ATOM     32  C   UNL     1      51.001   8.586  13.051  0.00  0.00    +0.000 A 
ATOM     33  H   UNL     1      51.676   9.308   9.912  0.00  0.00    +0.000 HD
ENDBRANCH  20  23
ENDBRANCH  18  19
ENDBRANCH   4  18
TORSDOF 7
ENDMDL
