MODEL 1
REMARK VINA RESULT:    -8.168      0.000      0.000
REMARK INTER + INTRA:         -10.657
REMARK INTER:                 -10.316
REMARK INTRA:                  -0.341
REMARK UNBOUND:                -0.341
REMARK  Name = 
REMARK  5 active torsions:
REMARK  status: ('A' for Active; 'I' for Inactive)
REMARK    1  A    between atoms: N_1  and  C_2
REMARK    2  A    between atoms: C_2  and  C_3
REMARK    3  A    between atoms: C_6  and  C_7
REMARK    4  A    between atoms: C_7  and  N_8
REMARK    5  A    between atoms: C_13  and  C_14
REMARK                            x       y       z     vdW  Elec       q    Type
REMARK                         _______ _______ _______ _____ _____    ______ ____
ROOT
ATOM      1  N   UNL     1      43.927   5.434  10.277  0.00  0.00    +0.000 N 
ATOM      2  C   UNL     1      44.742   5.855  11.346  0.00  0.00    +0.000 A 
ATOM      3  C   UNL     1      44.955   7.210  11.522  0.00  0.00    +0.000 A 
ATOM      4  C   UNL     1      45.780   7.584  12.562  0.00  0.00    +0.000 A 
ATOM      5  N   UNL     1      46.369   6.712  13.395  0.00  0.00    +0.000 NA
ATOM      6  C   UNL     1      46.106   5.412  13.129  0.00  0.00    +0.000 A 
ATOM      7  N   UNL     1      45.324   4.947  12.138  0.00  0.00    +0.000 NA
ATOM      8  H   UNL     1      43.031   5.911  10.318  0.00  0.00    +0.000 HD
ENDROOT
BRANCH   6   9
ATOM      9  C   UNL     1      46.730   4.387  14.049  0.00  0.00    +0.000 C 
ATOM     10  N   UNL     1      47.090   4.841  15.296  0.00  0.00    +0.000 N 
ATOM     11  O   UNL     1      46.913   3.215  13.739  0.00  0.00    +0.000 OA
ATOM     12  H   UNL     1      46.930   5.809  15.554  0.00  0.00    +0.000 HD
ATOM     13  H   UNL     1      47.501   4.194  15.952  0.00  0.00    +0.000 HD
ENDBRANCH   6   9
BRANCH   1  14
ATOM     14  C   UNL     1      43.772   3.982  10.199  0.00  0.00    +0.000 C 
BRANCH  14  18
ATOM     15  C   UNL     1      46.641   2.249   7.562  0.00  0.00    +0.000 A 
ATOM     16  C   UNL     1      46.422   3.623   7.491  0.00  0.00    +0.000 A 
ATOM     17  C   UNL     1      45.477   4.202   8.335  0.00  0.00    +0.000 A 
ATOM     18  C   UNL     1      44.778   3.404   9.242  0.00  0.00    +0.000 A 
ATOM     19  C   UNL     1      45.055   2.042   9.236  0.00  0.00    +0.000 A 
ATOM     20  N   UNL     1      45.963   1.450   8.425  0.00  0.00    +0.000 NA
BRANCH  15  21
ATOM     21  C   UNL     1      47.674   1.589   6.674  0.00  0.00    +0.000 C 
BRANCH  21  22
ATOM     22  N   UNL     1      48.709   2.519   6.211  0.00  0.00    +0.000 NA
ATOM     23  H   UNL     1      49.015   2.225   5.284  0.00  0.00    +0.000 HD
ATOM     24  H   UNL     1      49.521   2.408   6.818  0.00  0.00    +0.000 HD
ENDBRANCH  21  22
ENDBRANCH  15  21
ENDBRANCH  14  18
ENDBRANCH   1  14
TORSDOF 5
ENDMDL
MODEL 2
REMARK VINA RESULT:    -7.898      1.899      2.906
REMARK INTER + INTRA:         -10.317
REMARK INTER:                  -9.898
REMARK INTRA:                  -0.418
REMARK UNBOUND:                -0.341
REMARK  Name = 
REMARK  5 active torsions:
REMARK  status: ('A' for Active; 'I' for Inactive)
REMARK    1  A    between atoms: N_1  and  C_2
REMARK    2  A    between atoms: C_2  and  C_3
REMARK    3  A    between atoms: C_6  and  C_7
REMARK    4  A    between atoms: C_7  and  N_8
REMARK    5  A    between atoms: C_13  and  C_14
REMARK                            x       y       z     vdW  Elec       q    Type
REMARK                         _______ _______ _______ _____ _____    ______ ____
ROOT
ATOM      1  N   UNL     1      44.949   2.844  11.531  0.00  0.00    +0.000 N 
ATOM      2  C   UNL     1      45.338   4.050  12.148  0.00  0.00    +0.000 A 
ATOM      3  C   UNL     1      46.097   3.988  13.302  0.00  0.00    +0.000 A 
ATOM      4  C   UNL     1      46.438   5.186  13.893  0.00  0.00    +0.000 A 
ATOM      5  N   UNL     1      46.075   6.384  13.408  0.00  0.00    +0.000 NA
ATOM      6  C   UNL     1      45.324   6.334  12.284  0.00  0.00    +0.000 A 
ATOM      7  N   UNL     1      44.936   5.220  11.638  0.00  0.00    +0.000 NA
ATOM      8  H   UNL     1      45.766   2.264  11.364  0.00  0.00    +0.000 HD
ENDROOT
BRANCH   6   9
ATOM      9  C   UNL     1      44.904   7.656  11.684  0.00  0.00    +0.000 C 
ATOM     10  N   UNL     1      43.654   7.685  11.109  0.00  0.00    +0.000 N 
ATOM     11  O   UNL     1      45.604   8.663  11.695  0.00  0.00    +0.000 OA
ATOM     12  H   UNL     1      43.073   6.853  11.108  0.00  0.00    +0.000 HD
ATOM     13  H   UNL     1      43.322   8.547  10.705  0.00  0.00    +0.000 HD
ENDBRANCH   6   9
BRANCH   1  14
ATOM     14  C   UNL     1      44.157   3.040  10.318  0.00  0.00    +0.000 C 
BRANCH  14  18
ATOM     15  C   UNL     1      46.571   2.734   6.815  0.00  0.00    +0.000 A 
ATOM     16  C   UNL     1      46.429   1.606   7.621  0.00  0.00    +0.000 A 
ATOM     17  C   UNL     1      45.656   1.694   8.777  0.00  0.00    +0.000 A 
ATOM     18  C   UNL     1      45.030   2.899   9.101  0.00  0.00    +0.000 A 
ATOM     19  C   UNL     1      45.236   3.974   8.244  0.00  0.00    +0.000 A 
ATOM     20  N   UNL     1      45.985   3.920   7.117  0.00  0.00    +0.000 NA
BRANCH  15  21
ATOM     21  C   UNL     1      47.387   2.669   5.542  0.00  0.00    +0.000 C 
BRANCH  21  22
ATOM     22  N   UNL     1      48.596   1.849   5.678  0.00  0.00    +0.000 NA
ATOM     23  H   UNL     1      48.741   1.342   4.806  0.00  0.00    +0.000 HD
ATOM     24  H   UNL     1      48.409   1.136   6.385  0.00  0.00    +0.000 HD
ENDBRANCH  21  22
ENDBRANCH  15  21
ENDBRANCH  14  18
ENDBRANCH   1  14
TORSDOF 5
ENDMDL
MODEL 3
REMARK VINA RESULT:    -6.808      2.701      3.683
REMARK INTER + INTRA:          -8.940
REMARK INTER:                  -8.581
REMARK INTRA:                  -0.359
REMARK UNBOUND:                -0.341
REMARK  Name = 
REMARK  5 active torsions:
REMARK  status: ('A' for Active; 'I' for Inactive)
REMARK    1  A    between atoms: N_1  and  C_2
REMARK    2  A    between atoms: C_2  and  C_3
REMARK    3  A    between atoms: C_6  and  C_7
REMARK    4  A    between atoms: C_7  and  N_8
REMARK    5  A    between atoms: C_13  and  C_14
REMARK                            x       y       z     vdW  Elec       q    Type
REMARK                         _______ _______ _______ _____ _____    ______ ____
ROOT
ATOM      1  N   UNL     1      45.151   5.320  11.582  0.00  0.00    +0.000 N 
ATOM      2  C   UNL     1      45.162   6.706  11.833  0.00  0.00    +0.000 A 
ATOM      3  C   UNL     1      45.967   7.189  12.848  0.00  0.00    +0.000 A 
ATOM      4  C   UNL     1      45.933   8.547  13.083  0.00  0.00    +0.000 A 
ATOM      5  N   UNL     1      45.170   9.403  12.384  0.00  0.00    +0.000 NA
ATOM      6  C   UNL     1      44.411   8.829  11.424  0.00  0.00    +0.000 A 
ATOM      7  N   UNL     1      44.370   7.519  11.123  0.00  0.00    +0.000 NA
ATOM      8  H   UNL     1      46.101   4.988  11.442  0.00  0.00    +0.000 HD
ENDROOT
BRANCH   6   9
ATOM      9  C   UNL     1      43.548   9.751  10.594  0.00  0.00    +0.000 C 
ATOM     10  N   UNL     1      42.195   9.684  10.834  0.00  0.00    +0.000 N 
ATOM     11  O   UNL     1      43.991  10.528   9.755  0.00  0.00    +0.000 OA
ATOM     12  H   UNL     1      41.830   9.047  11.534  0.00  0.00    +0.000 HD
ATOM     13  H   UNL     1      41.576  10.288  10.313  0.00  0.00    +0.000 HD
ENDBRANCH   6   9
BRANCH   1  14
ATOM     14  C   UNL     1      44.267   4.935  10.483  0.00  0.00    +0.000 C 
BRANCH  14  18
ATOM     15  C   UNL     1      46.270   2.127   7.974  0.00  0.00    +0.000 A 
ATOM     16  C   UNL     1      46.341   3.478   7.644  0.00  0.00    +0.000 A 
ATOM     17  C   UNL     1      45.680   4.407   8.444  0.00  0.00    +0.000 A 
ATOM     18  C   UNL     1      44.970   3.973   9.566  0.00  0.00    +0.000 A 
ATOM     19  C   UNL     1      44.946   2.605   9.812  0.00  0.00    +0.000 A 
ATOM     20  N   UNL     1      45.574   1.679   9.050  0.00  0.00    +0.000 NA
BRANCH  15  21
ATOM     21  C   UNL     1      46.992   1.092   7.138  0.00  0.00    +0.000 C 
BRANCH  21  22
ATOM     22  N   UNL     1      46.874  -0.265   7.681  0.00  0.00    +0.000 NA
ATOM     23  H   UNL     1      46.476  -0.204   8.617  0.00  0.00    +0.000 HD
ATOM     24  H   UNL     1      47.817  -0.634   7.804  0.00  0.00    +0.000 HD
ENDBRANCH  21  22
ENDBRANCH  15  21
ENDBRANCH  14  18
ENDBRANCH   1  14
TORSDOF 5
ENDMDL
MODEL 4
REMARK VINA RESULT:    -6.797      3.608      7.179
REMARK INTER + INTRA:          -8.925
REMARK INTER:                  -8.535
REMARK INTRA:                  -0.390
REMARK UNBOUND:                -0.341
REMARK  Name = 
REMARK  5 active torsions:
REMARK  status: ('A' for Active; 'I' for Inactive)
REMARK    1  A    between atoms: N_1  and  C_2
REMARK    2  A    between atoms: C_2  and  C_3
REMARK    3  A    between atoms: C_6  and  C_7
REMARK    4  A    between atoms: C_7  and  N_8
REMARK    5  A    between atoms: C_13  and  C_14
REMARK                            x       y       z     vdW  Elec       q    Type
REMARK                         _______ _______ _______ _____ _____    ______ ____
ROOT
ATOM      1  N   UNL     1      47.267   5.409  15.177  0.00  0.00    +0.000 N 
ATOM      2  C   UNL     1      46.651   5.319  13.914  0.00  0.00    +0.000 A 
ATOM      3  C   UNL     1      46.858   6.338  13.002  0.00  0.00    +0.000 A 
ATOM      4  C   UNL     1      46.218   6.230  11.785  0.00  0.00    +0.000 A 
ATOM      5  N   UNL     1      45.422   5.201  11.453  0.00  0.00    +0.000 NA
ATOM      6  C   UNL     1      45.276   4.266  12.419  0.00  0.00    +0.000 A 
ATOM      7  N   UNL     1      45.850   4.284  13.635  0.00  0.00    +0.000 NA
ATOM      8  H   UNL     1      48.266   5.559  15.064  0.00  0.00    +0.000 HD
ENDROOT
BRANCH   6   9
ATOM      9  C   UNL     1      44.405   3.075  12.089  0.00  0.00    +0.000 C 
ATOM     10  N   UNL     1      44.569   2.541  10.832  0.00  0.00    +0.000 N 
ATOM     11  O   UNL     1      43.596   2.585  12.870  0.00  0.00    +0.000 OA
ATOM     12  H   UNL     1      45.245   2.942  10.190  0.00  0.00    +0.000 HD
ATOM     13  H   UNL     1      44.019   1.738  10.566  0.00  0.00    +0.000 HD
ENDBRANCH   6   9
BRANCH   1  14
ATOM     14  C   UNL     1      46.978   4.271  16.048  0.00  0.00    +0.000 C 
BRANCH  14  18
ATOM     15  C   UNL     1      50.554   2.240  17.178  0.00  0.00    +0.000 A 
ATOM     16  C   UNL     1      50.302   3.493  17.732  0.00  0.00    +0.000 A 
ATOM     17  C   UNL     1      49.145   4.176  17.361  0.00  0.00    +0.000 A 
ATOM     18  C   UNL     1      48.257   3.593  16.456  0.00  0.00    +0.000 A 
ATOM     19  C   UNL     1      48.596   2.344  15.948  0.00  0.00    +0.000 A 
ATOM     20  N   UNL     1      49.713   1.659  16.284  0.00  0.00    +0.000 NA
BRANCH  15  21
ATOM     21  C   UNL     1      51.791   1.461  17.572  0.00  0.00    +0.000 C 
BRANCH  21  22
ATOM     22  N   UNL     1      51.479   0.163  18.181  0.00  0.00    +0.000 NA
ATOM     23  H   UNL     1      50.509  -0.067  17.970  0.00  0.00    +0.000 HD
ATOM     24  H   UNL     1      51.523   0.277  19.194  0.00  0.00    +0.000 HD
ENDBRANCH  21  22
ENDBRANCH  15  21
ENDBRANCH  14  18
ENDBRANCH   1  14
TORSDOF 5
ENDMDL
MODEL 5
REMARK VINA RESULT:    -6.792      1.950      2.628
REMARK INTER + INTRA:          -8.920
REMARK INTER:                  -8.500
REMARK INTRA:                  -0.420
REMARK UNBOUND:                -0.341
REMARK  Name = 
REMARK  5 active torsions:
REMARK  status: ('A' for Active; 'I' for Inactive)
REMARK    1  A    between atoms: N_1  and  C_2
REMARK    2  A    between atoms: C_2  and  C_3
REMARK    3  A    between atoms: C_6  and  C_7
REMARK    4  A    between atoms: C_7  and  N_8
REMARK    5  A    between atoms: C_13  and  C_14
REMARK                            x       y       z     vdW  Elec       q    Type
REMARK                         _______ _______ _______ _____ _____    ______ ____
ROOT
ATOM      1  N   UNL     1      44.582   4.403  11.749  0.00  0.00    +0.000 N 
ATOM      2  C   UNL     1      45.683   4.804  12.531  0.00  0.00    +0.000 A 
ATOM      3  C   UNL     1      45.825   4.270  13.798  0.00  0.00    +0.000 A 
ATOM      4  C   UNL     1      46.900   4.705  14.545  0.00  0.00    +0.000 A 
ATOM      5  N   UNL     1      47.796   5.602  14.105  0.00  0.00    +0.000 NA
ATOM      6  C   UNL     1      47.560   6.071  12.859  0.00  0.00    +0.000 A 
ATOM      7  N   UNL     1      46.540   5.716  12.057  0.00  0.00    +0.000 NA
ATOM      8  H   UNL     1      44.551   3.389  11.691  0.00  0.00    +0.000 HD
ENDROOT
BRANCH   6   9
ATOM      9  C   UNL     1      48.551   7.070  12.306  0.00  0.00    +0.000 C 
ATOM     10  N   UNL     1      49.778   7.104  12.927  0.00  0.00    +0.000 N 
ATOM     11  O   UNL     1      48.313   7.815  11.362  0.00  0.00    +0.000 OA
ATOM     12  H   UNL     1      49.976   6.481  13.703  0.00  0.00    +0.000 HD
ATOM     13  H   UNL     1      50.479   7.746  12.589  0.00  0.00    +0.000 HD
ENDBRANCH   6   9
BRANCH   1  14
ATOM     14  C   UNL     1      44.545   5.030  10.429  0.00  0.00    +0.000 C 
BRANCH  14  18
ATOM     15  C   UNL     1      46.493   2.635   7.486  0.00  0.00    +0.000 A 
ATOM     16  C   UNL     1      45.788   1.993   8.501  0.00  0.00    +0.000 A 
ATOM     17  C   UNL     1      45.158   2.761   9.479  0.00  0.00    +0.000 A 
ATOM     18  C   UNL     1      45.234   4.154   9.420  0.00  0.00    +0.000 A 
ATOM     19  C   UNL     1      45.968   4.707   8.377  0.00  0.00    +0.000 A 
ATOM     20  N   UNL     1      46.594   3.988   7.416  0.00  0.00    +0.000 NA
BRANCH  15  21
ATOM     21  C   UNL     1      47.173   1.834   6.397  0.00  0.00    +0.000 C 
BRANCH  21  22
ATOM     22  N   UNL     1      48.414   2.453   5.921  0.00  0.00    +0.000 NA
ATOM     23  H   UNL     1      48.454   3.408   6.276  0.00  0.00    +0.000 HD
ATOM     24  H   UNL     1      48.351   2.538   4.906  0.00  0.00    +0.000 HD
ENDBRANCH  21  22
ENDBRANCH  15  21
ENDBRANCH  14  18
ENDBRANCH   1  14
TORSDOF 5
ENDMDL
MODEL 6
REMARK VINA RESULT:    -6.423      2.122      3.470
REMARK INTER + INTRA:          -8.453
REMARK INTER:                  -8.066
REMARK INTRA:                  -0.387
REMARK UNBOUND:                -0.341
REMARK  Name = 
REMARK  5 active torsions:
REMARK  status: ('A' for Active; 'I' for Inactive)
REMARK    1  A    between atoms: N_1  and  C_2
REMARK    2  A    between atoms: C_2  and  C_3
REMARK    3  A    between atoms: C_6  and  C_7
REMARK    4  A    between atoms: C_7  and  N_8
REMARK    5  A    between atoms: C_13  and  C_14
REMARK                            x       y       z     vdW  Elec       q    Type
REMARK                         _______ _______ _______ _____ _____    ______ ____
ROOT
ATOM      1  N   UNL     1      46.317   6.284  13.149  0.00  0.00    +0.000 N 
ATOM      2  C   UNL     1      47.160   5.981  14.236  0.00  0.00    +0.000 A 
ATOM      3  C   UNL     1      48.197   6.846  14.530  0.00  0.00    +0.000 A 
ATOM      4  C   UNL     1      49.019   6.505  15.584  0.00  0.00    +0.000 A 
ATOM      5  N   UNL     1      48.859   5.395  16.322  0.00  0.00    +0.000 NA
ATOM      6  C   UNL     1      47.824   4.611  15.944  0.00  0.00    +0.000 A 
ATOM      7  N   UNL     1      46.973   4.852  14.931  0.00  0.00    +0.000 NA
ATOM      8  H   UNL     1      45.948   7.225  13.251  0.00  0.00    +0.000 HD
ENDROOT
BRANCH   6   9
ATOM      9  C   UNL     1      47.586   3.357  16.755  0.00  0.00    +0.000 C 
ATOM     10  N   UNL     1      48.666   2.515  16.888  0.00  0.00    +0.000 N 
ATOM     11  O   UNL     1      46.514   3.078  17.280  0.00  0.00    +0.000 OA
ATOM     12  H   UNL     1      49.555   2.752  16.460  0.00  0.00    +0.000 HD
ATOM     13  H   UNL     1      48.563   1.670  17.430  0.00  0.00    +0.000 HD
ENDBRANCH   6   9
BRANCH   1  14
ATOM     14  C   UNL     1      45.256   5.299  12.943  0.00  0.00    +0.000 C 
BRANCH  14  18
ATOM     15  C   UNL     1      45.364   3.938   8.903  0.00  0.00    +0.000 A 
ATOM     16  C   UNL     1      44.958   3.044   9.891  0.00  0.00    +0.000 A 
ATOM     17  C   UNL     1      44.932   3.468  11.218  0.00  0.00    +0.000 A 
ATOM     18  C   UNL     1      45.299   4.778  11.533  0.00  0.00    +0.000 A 
ATOM     19  C   UNL     1      45.699   5.596  10.483  0.00  0.00    +0.000 A 
ATOM     20  N   UNL     1      45.740   5.211   9.186  0.00  0.00    +0.000 NA
BRANCH  15  21
ATOM     21  C   UNL     1      45.386   3.517   7.449  0.00  0.00    +0.000 C 
BRANCH  21  22
ATOM     22  N   UNL     1      46.559   4.021   6.726  0.00  0.00    +0.000 NA
ATOM     23  H   UNL     1      47.278   3.298   6.735  0.00  0.00    +0.000 HD
ATOM     24  H   UNL     1      46.943   4.800   7.261  0.00  0.00    +0.000 HD
ENDBRANCH  21  22
ENDBRANCH  15  21
ENDBRANCH  14  18
ENDBRANCH   1  14
TORSDOF 5
ENDMDL
MODEL 7
REMARK VINA RESULT:    -6.291      3.855      6.058
REMARK INTER + INTRA:          -8.287
REMARK INTER:                  -7.875
REMARK INTRA:                  -0.412
REMARK UNBOUND:                -0.341
REMARK  Name = 
REMARK  5 active torsions:
REMARK  status: ('A' for Active; 'I' for Inactive)
REMARK    1  A    between atoms: N_1  and  C_2
REMARK    2  A    between atoms: C_2  and  C_3
REMARK    3  A    between atoms: C_6  and  C_7
REMARK    4  A    between atoms: C_7  and  N_8
REMARK    5  A    between atoms: C_13  and  C_14
REMARK                            x       y       z     vdW  Elec       q    Type
REMARK                         _______ _______ _______ _____ _____    ______ ____
ROOT
ATOM      1  N   UNL     1      47.906   6.383  15.598  0.00  0.00    +0.000 N 
ATOM      2  C   UNL     1      48.299   5.498  16.621  0.00  0.00    +0.000 A 
ATOM      3  C   UNL     1      48.117   5.884  17.937  0.00  0.00    +0.000 A 
ATOM      4  C   UNL     1      48.538   5.004  18.912  0.00  0.00    +0.000 A 
ATOM      5  N   UNL     1      49.100   3.815  18.647  0.00  0.00    +0.000 NA
ATOM      6  C   UNL     1      49.244   3.538  17.331  0.00  0.00    +0.000 A 
ATOM      7  N   UNL     1      48.874   4.330  16.309  0.00  0.00    +0.000 NA
ATOM      8  H   UNL     1      46.938   6.660  15.735  0.00  0.00    +0.000 HD
ENDROOT
BRANCH   6   9
ATOM      9  C   UNL     1      49.855   2.202  16.977  0.00  0.00    +0.000 C 
ATOM     10  N   UNL     1      50.835   1.746  17.828  0.00  0.00    +0.000 N 
ATOM     11  O   UNL     1      49.519   1.535  16.004  0.00  0.00    +0.000 OA
ATOM     12  H   UNL     1      51.105   2.294  18.637  0.00  0.00    +0.000 HD
ATOM     13  H   UNL     1      51.266   0.853  17.642  0.00  0.00    +0.000 HD
ENDBRANCH   6   9
BRANCH   1  14
ATOM     14  C   UNL     1      48.142   5.859  14.253  0.00  0.00    +0.000 C 
BRANCH  14  18
ATOM     15  C   UNL     1      44.431   5.058  12.310  0.00  0.00    +0.000 A 
ATOM     16  C   UNL     1      45.219   6.101  11.828  0.00  0.00    +0.000 A 
ATOM     17  C   UNL     1      46.427   6.385  12.461  0.00  0.00    +0.000 A 
ATOM     18  C   UNL     1      46.833   5.618  13.555  0.00  0.00    +0.000 A 
ATOM     19  C   UNL     1      45.978   4.605  13.972  0.00  0.00    +0.000 A 
ATOM     20  N   UNL     1      44.796   4.308  13.381  0.00  0.00    +0.000 NA
BRANCH  15  21
ATOM     21  C   UNL     1      43.122   4.709  11.635  0.00  0.00    +0.000 C 
BRANCH  21  22
ATOM     22  N   UNL     1      42.945   3.265  11.444  0.00  0.00    +0.000 NA
ATOM     23  H   UNL     1      43.682   2.780  11.954  0.00  0.00    +0.000 HD
ATOM     24  H   UNL     1      43.109   3.060  10.458  0.00  0.00    +0.000 HD
ENDBRANCH  21  22
ENDBRANCH  15  21
ENDBRANCH  14  18
ENDBRANCH   1  14
TORSDOF 5
ENDMDL
MODEL 8
REMARK VINA RESULT:    -6.283      3.258      7.719
REMARK INTER + INTRA:          -8.277
REMARK INTER:                  -7.962
REMARK INTRA:                  -0.315
REMARK UNBOUND:                -0.341
REMARK  Name = 
REMARK  5 active torsions:
REMARK  status: ('A' for Active; 'I' for Inactive)
REMARK    1  A    between atoms: N_1  and  C_2
REMARK    2  A    between atoms: C_2  and  C_3
REMARK    3  A    between atoms: C_6  and  C_7
REMARK    4  A    between atoms: C_7  and  N_8
REMARK    5  A    between atoms: C_13  and  C_14
REMARK                            x       y       z     vdW  Elec       q    Type
REMARK                         _______ _______ _______ _____ _____    ______ ____
ROOT
ATOM      1  N   UNL     1      46.725   5.573  14.134  0.00  0.00    +0.000 N 
ATOM      2  C   UNL     1      45.826   5.559  13.050  0.00  0.00    +0.000 A 
ATOM      3  C   UNL     1      45.433   6.765  12.500  0.00  0.00    +0.000 A 
ATOM      4  C   UNL     1      44.531   6.715  11.459  0.00  0.00    +0.000 A 
ATOM      5  N   UNL     1      44.030   5.572  10.964  0.00  0.00    +0.000 NA
ATOM      6  C   UNL     1      44.468   4.451  11.580  0.00  0.00    +0.000 A 
ATOM      7  N   UNL     1      45.337   4.396  12.604  0.00  0.00    +0.000 NA
ATOM      8  H   UNL     1      47.550   6.114  13.890  0.00  0.00    +0.000 HD
ENDROOT
BRANCH   6   9
ATOM      9  C   UNL     1      43.949   3.134  11.049  0.00  0.00    +0.000 C 
ATOM     10  N   UNL     1      43.526   2.230  11.995  0.00  0.00    +0.000 N 
ATOM     11  O   UNL     1      43.888   2.856   9.856  0.00  0.00    +0.000 OA
ATOM     12  H   UNL     1      43.568   2.464  12.982  0.00  0.00    +0.000 HD
ATOM     13  H   UNL     1      43.160   1.340  11.692  0.00  0.00    +0.000 HD
ENDBRANCH   6   9
BRANCH   1  14
ATOM     14  C   UNL     1      47.069   4.238  14.623  0.00  0.00    +0.000 C 
BRANCH  14  18
ATOM     15  C   UNL     1      48.621   4.557  18.582  0.00  0.00    +0.000 A 
ATOM     16  C   UNL     1      48.011   3.363  18.205  0.00  0.00    +0.000 A 
ATOM     17  C   UNL     1      47.485   3.248  16.920  0.00  0.00    +0.000 A 
ATOM     18  C   UNL     1      47.588   4.320  16.031  0.00  0.00    +0.000 A 
ATOM     19  C   UNL     1      48.204   5.476  16.498  0.00  0.00    +0.000 A 
ATOM     20  N   UNL     1      48.719   5.619  17.742  0.00  0.00    +0.000 NA
BRANCH  15  21
ATOM     21  C   UNL     1      49.220   4.711  19.964  0.00  0.00    +0.000 C 
BRANCH  21  22
ATOM     22  N   UNL     1      48.469   3.988  20.996  0.00  0.00    +0.000 NA
ATOM     23  H   UNL     1      47.538   3.785  20.634  0.00  0.00    +0.000 HD
ATOM     24  H   UNL     1      48.329   4.624  21.781  0.00  0.00    +0.000 HD
ENDBRANCH  21  22
ENDBRANCH  15  21
ENDBRANCH  14  18
ENDBRANCH   1  14
TORSDOF 5
ENDMDL
MODEL 9
REMARK VINA RESULT:    -6.220      2.723      6.589
REMARK INTER + INTRA:          -8.197
REMARK INTER:                  -7.785
REMARK INTRA:                  -0.412
REMARK UNBOUND:                -0.341
REMARK  Name = 
REMARK  5 active torsions:
REMARK  status: ('A' for Active; 'I' for Inactive)
REMARK    1  A    between atoms: N_1  and  C_2
REMARK    2  A    between atoms: C_2  and  C_3
REMARK    3  A    between atoms: C_6  and  C_7
REMARK    4  A    between atoms: C_7  and  N_8
REMARK    5  A    between atoms: C_13  and  C_14
REMARK                            x       y       z     vdW  Elec       q    Type
REMARK                         _______ _______ _______ _____ _____    ______ ____
ROOT
ATOM      1  N   UNL     1      44.532   6.325  12.977  0.00  0.00    +0.000 N 
ATOM      2  C   UNL     1      44.255   5.256  12.102  0.00  0.00    +0.000 A 
ATOM      3  C   UNL     1      43.484   4.206  12.564  0.00  0.00    +0.000 A 
ATOM      4  C   UNL     1      43.255   3.164  11.689  0.00  0.00    +0.000 A 
ATOM      5  N   UNL     1      43.735   3.127  10.436  0.00  0.00    +0.000 NA
ATOM      6  C   UNL     1      44.486   4.196  10.088  0.00  0.00    +0.000 A 
ATOM      7  N   UNL     1      44.772   5.254  10.868  0.00  0.00    +0.000 NA
ATOM      8  H   UNL     1      43.664   6.690  13.361  0.00  0.00    +0.000 HD
ENDROOT
BRANCH   6   9
ATOM      9  C   UNL     1      45.036   4.214   8.680  0.00  0.00    +0.000 C 
ATOM     10  N   UNL     1      44.430   3.360   7.788  0.00  0.00    +0.000 N 
ATOM     11  O   UNL     1      45.958   4.936   8.317  0.00  0.00    +0.000 OA
ATOM     12  H   UNL     1      43.661   2.769   8.087  0.00  0.00    +0.000 HD
ATOM     13  H   UNL     1      44.753   3.342   6.832  0.00  0.00    +0.000 HD
ENDBRANCH   6   9
BRANCH   1  14
ATOM     14  C   UNL     1      45.349   7.376  12.372  0.00  0.00    +0.000 C 
BRANCH  14  18
ATOM     15  C   UNL     1      49.016   7.669  14.529  0.00  0.00    +0.000 A 
ATOM     16  C   UNL     1      48.262   8.826  14.345  0.00  0.00    +0.000 A 
ATOM     17  C   UNL     1      47.069   8.750  13.629  0.00  0.00    +0.000 A 
ATOM     18  C   UNL     1      46.644   7.521  13.122  0.00  0.00    +0.000 A 
ATOM     19  C   UNL     1      47.465   6.422  13.346  0.00  0.00    +0.000 A 
ATOM     20  N   UNL     1      48.631   6.466  14.032  0.00  0.00    +0.000 NA
BRANCH  15  21
ATOM     21  C   UNL     1      50.308   7.711  15.317  0.00  0.00    +0.000 C 
BRANCH  21  22
ATOM     22  N   UNL     1      50.740   6.387  15.777  0.00  0.00    +0.000 NA
ATOM     23  H   UNL     1      51.602   6.497  16.311  0.00  0.00    +0.000 HD
ATOM     24  H   UNL     1      50.992   5.839  14.954  0.00  0.00    +0.000 HD
ENDBRANCH  21  22
ENDBRANCH  15  21
ENDBRANCH  14  18
ENDBRANCH   1  14
TORSDOF 5
ENDMDL
