MODEL 1
REMARK VINA RESULT:    -7.530      0.000      0.000
REMARK INTER + INTRA:         -10.873
REMARK INTER:                 -10.172
REMARK INTRA:                  -0.701
REMARK UNBOUND:                -0.701
REMARK  Name = 
REMARK  6 active torsions:
REMARK  status: ('A' for Active; 'I' for Inactive)
REMARK    1  A    between atoms: C_4  and  N_5
REMARK    2  A    between atoms: N_5  and  C_6
REMARK    3  A    between atoms: C_6  and  C_7
REMARK    4  A    between atoms: C_7  and  C_8
REMARK    5  A    between atoms: C_12  and  O_13
REMARK    6  A    between atoms: O_13  and  C_14
REMARK                            x       y       z     vdW  Elec       q    Type
REMARK                         _______ _______ _______ _____ _____    ______ ____
ROOT
ATOM      1  C   UNL     1      45.443   4.415  12.206  0.00  0.00    +0.000 A 
ATOM      2  C   UNL     1      45.687   5.572  11.446  0.00  0.00    +0.000 A 
ATOM      3  C   UNL     1      46.644   6.508  11.836  0.00  0.00    +0.000 A 
ATOM      4  C   UNL     1      47.392   6.304  12.990  0.00  0.00    +0.000 A 
ATOM      5  C   UNL     1      47.187   5.151  13.748  0.00  0.00    +0.000 A 
ATOM      6  C   UNL     1      46.212   4.222  13.364  0.00  0.00    +0.000 A 
ENDROOT
BRANCH   1   7
ATOM      7  C   UNL     1      44.380   3.388  11.837  0.00  0.00    +0.000 C 
BRANCH   7   8
ATOM      8  C   UNL     1      44.203   3.224  10.324  0.00  0.00    +0.000 C 
BRANCH   8   9
ATOM      9  N   UNL     1      44.788   2.008   9.772  0.00  0.00    +0.000 N 
ATOM     10  H   UNL     1      45.257   1.416  10.454  0.00  0.00    +0.000 HD
BRANCH   9  14
ATOM     11  C   UNL     1      47.245   2.623   6.378  0.00  0.00    +0.000 A 
ATOM     12  C   UNL     1      47.168   1.354   6.940  0.00  0.00    +0.000 A 
ATOM     13  C   UNL     1      46.356   1.136   8.055  0.00  0.00    +0.000 A 
ATOM     14  C   UNL     1      45.580   2.164   8.615  0.00  0.00    +0.000 A 
ATOM     15  C   UNL     1      45.686   3.437   8.042  0.00  0.00    +0.000 A 
ATOM     16  C   UNL     1      46.510   3.666   6.933  0.00  0.00    +0.000 A 
ENDBRANCH   9  14
ENDBRANCH   8   9
ENDBRANCH   7   8
ENDBRANCH   1   7
BRANCH   5  17
ATOM     17  O   UNL     1      47.875   4.856  14.900  0.00  0.00    +0.000 OA
BRANCH  17  18
ATOM     18  C   UNL     1      47.261   3.959  15.854  0.00  0.00    +0.000 C 
ATOM     19  C   UNL     1      47.152   4.426  17.313  0.00  0.00    +0.000 C 
ATOM     20  O   UNL     1      47.836   3.243  17.793  0.00  0.00    +0.000 OA
ATOM     21  C   UNL     1      48.184   2.881  16.436  0.00  0.00    +0.000 C 
ENDBRANCH  17  18
ENDBRANCH   5  17
TORSDOF 6
ENDMDL
MODEL 2
REMARK VINA RESULT:    -6.736      2.399      3.927
REMARK INTER + INTRA:          -9.800
REMARK INTER:                  -9.221
REMARK INTRA:                  -0.580
REMARK UNBOUND:                -0.701
REMARK  Name = 
REMARK  6 active torsions:
REMARK  status: ('A' for Active; 'I' for Inactive)
REMARK    1  A    between atoms: C_4  and  N_5
REMARK    2  A    between atoms: N_5  and  C_6
REMARK    3  A    between atoms: C_6  and  C_7
REMARK    4  A    between atoms: C_7  and  C_8
REMARK    5  A    between atoms: C_12  and  O_13
REMARK    6  A    between atoms: O_13  and  C_14
REMARK                            x       y       z     vdW  Elec       q    Type
REMARK                         _______ _______ _______ _____ _____    ______ ____
ROOT
ATOM      1  C   UNL     1      44.882   4.742  11.800  0.00  0.00    +0.000 A 
ATOM      2  C   UNL     1      45.427   4.024  12.878  0.00  0.00    +0.000 A 
ATOM      3  C   UNL     1      46.510   4.517  13.606  0.00  0.00    +0.000 A 
ATOM      4  C   UNL     1      47.066   5.750  13.282  0.00  0.00    +0.000 A 
ATOM      5  C   UNL     1      46.527   6.495  12.232  0.00  0.00    +0.000 A 
ATOM      6  C   UNL     1      45.451   5.988  11.492  0.00  0.00    +0.000 A 
ENDROOT
BRANCH   1   7
ATOM      7  C   UNL     1      43.726   4.222  10.956  0.00  0.00    +0.000 C 
BRANCH   7   8
ATOM      8  C   UNL     1      44.143   3.844   9.532  0.00  0.00    +0.000 C 
BRANCH   8   9
ATOM      9  N   UNL     1      44.838   2.566   9.421  0.00  0.00    +0.000 N 
ATOM     10  H   UNL     1      45.298   2.259  10.275  0.00  0.00    +0.000 HD
BRANCH   9  14
ATOM     11  C   UNL     1      47.486   2.264   6.130  0.00  0.00    +0.000 A 
ATOM     12  C   UNL     1      47.313   1.168   6.966  0.00  0.00    +0.000 A 
ATOM     13  C   UNL     1      46.438   1.252   8.050  0.00  0.00    +0.000 A 
ATOM     14  C   UNL     1      45.692   2.414   8.308  0.00  0.00    +0.000 A 
ATOM     15  C   UNL     1      45.894   3.511   7.463  0.00  0.00    +0.000 A 
ATOM     16  C   UNL     1      46.782   3.438   6.382  0.00  0.00    +0.000 A 
ENDBRANCH   9  14
ENDBRANCH   8   9
ENDBRANCH   7   8
ENDBRANCH   1   7
BRANCH   5  17
ATOM     17  O   UNL     1      47.002   7.721  11.837  0.00  0.00    +0.000 OA
BRANCH  17  18
ATOM     18  C   UNL     1      46.570   8.891  12.568  0.00  0.00    +0.000 C 
ATOM     19  C   UNL     1      45.249   9.553  12.152  0.00  0.00    +0.000 C 
ATOM     20  O   UNL     1      45.891  10.838  11.977  0.00  0.00    +0.000 OA
ATOM     21  C   UNL     1      47.192  10.219  12.118  0.00  0.00    +0.000 C 
ENDBRANCH  17  18
ENDBRANCH   5  17
TORSDOF 6
ENDMDL
MODEL 3
REMARK VINA RESULT:    -6.569      4.068      7.390
REMARK INTER + INTRA:          -9.575
REMARK INTER:                  -9.040
REMARK INTRA:                  -0.534
REMARK UNBOUND:                -0.701
REMARK  Name = 
REMARK  6 active torsions:
REMARK  status: ('A' for Active; 'I' for Inactive)
REMARK    1  A    between atoms: C_4  and  N_5
REMARK    2  A    between atoms: N_5  and  C_6
REMARK    3  A    between atoms: C_6  and  C_7
REMARK    4  A    between atoms: C_7  and  C_8
REMARK    5  A    between atoms: C_12  and  O_13
REMARK    6  A    between atoms: O_13  and  C_14
REMARK                            x       y       z     vdW  Elec       q    Type
REMARK                         _______ _______ _______ _____ _____    ______ ____
ROOT
ATOM      1  C   UNL     1      45.202   4.951  10.352  0.00  0.00    +0.000 A 
ATOM      2  C   UNL     1      44.467   3.937  10.990  0.00  0.00    +0.000 A 
ATOM      3  C   UNL     1      44.124   2.761  10.323  0.00  0.00    +0.000 A 
ATOM      4  C   UNL     1      44.520   2.563   9.005  0.00  0.00    +0.000 A 
ATOM      5  C   UNL     1      45.272   3.544   8.358  0.00  0.00    +0.000 A 
ATOM      6  C   UNL     1      45.599   4.732   9.024  0.00  0.00    +0.000 A 
ENDROOT
BRANCH   1   7
ATOM      7  C   UNL     1      45.563   6.266  11.031  0.00  0.00    +0.000 C 
BRANCH   7   8
ATOM      8  C   UNL     1      45.698   6.140  12.551  0.00  0.00    +0.000 C 
BRANCH   8   9
ATOM      9  N   UNL     1      46.299   7.297  13.206  0.00  0.00    +0.000 N 
ATOM     10  H   UNL     1      45.645   8.043  13.432  0.00  0.00    +0.000 HD
BRANCH   9  14
ATOM     11  C   UNL     1      49.794   9.003  11.528  0.00  0.00    +0.000 A 
ATOM     12  C   UNL     1      49.810   7.670  11.922  0.00  0.00    +0.000 A 
ATOM     13  C   UNL     1      48.662   7.093  12.469  0.00  0.00    +0.000 A 
ATOM     14  C   UNL     1      47.467   7.817  12.608  0.00  0.00    +0.000 A 
ATOM     15  C   UNL     1      47.479   9.162  12.220  0.00  0.00    +0.000 A 
ATOM     16  C   UNL     1      48.631   9.751  11.684  0.00  0.00    +0.000 A 
ENDBRANCH   9  14
ENDBRANCH   8   9
ENDBRANCH   7   8
ENDBRANCH   1   7
BRANCH   5  17
ATOM     17  O   UNL     1      45.713   3.444   7.061  0.00  0.00    +0.000 OA
BRANCH  17  18
ATOM     18  C   UNL     1      47.103   3.114   6.833  0.00  0.00    +0.000 C 
ATOM     19  C   UNL     1      47.514   2.673   5.421  0.00  0.00    +0.000 C 
ATOM     20  O   UNL     1      48.097   1.446   5.922  0.00  0.00    +0.000 OA
ATOM     21  C   UNL     1      47.517   1.691   7.226  0.00  0.00    +0.000 C 
ENDBRANCH  17  18
ENDBRANCH   5  17
TORSDOF 6
ENDMDL
MODEL 4
REMARK VINA RESULT:    -6.561      2.423      3.809
REMARK INTER + INTRA:          -9.564
REMARK INTER:                  -8.955
REMARK INTRA:                  -0.609
REMARK UNBOUND:                -0.701
REMARK  Name = 
REMARK  6 active torsions:
REMARK  status: ('A' for Active; 'I' for Inactive)
REMARK    1  A    between atoms: C_4  and  N_5
REMARK    2  A    between atoms: N_5  and  C_6
REMARK    3  A    between atoms: C_6  and  C_7
REMARK    4  A    between atoms: C_7  and  C_8
REMARK    5  A    between atoms: C_12  and  O_13
REMARK    6  A    between atoms: O_13  and  C_14
REMARK                            x       y       z     vdW  Elec       q    Type
REMARK                         _______ _______ _______ _____ _____    ______ ____
ROOT
ATOM      1  C   UNL     1      45.195   4.870  11.566  0.00  0.00    +0.000 A 
ATOM      2  C   UNL     1      45.608   4.138  12.693  0.00  0.00    +0.000 A 
ATOM      3  C   UNL     1      46.583   4.630  13.560  0.00  0.00    +0.000 A 
ATOM      4  C   UNL     1      47.159   5.875  13.330  0.00  0.00    +0.000 A 
ATOM      5  C   UNL     1      46.747   6.632  12.233  0.00  0.00    +0.000 A 
ATOM      6  C   UNL     1      45.781   6.127  11.353  0.00  0.00    +0.000 A 
ENDROOT
BRANCH   1   7
ATOM      7  C   UNL     1      44.162   4.351  10.574  0.00  0.00    +0.000 C 
BRANCH   7   8
ATOM      8  C   UNL     1      44.281   2.847  10.313  0.00  0.00    +0.000 C 
BRANCH   8   9
ATOM      9  N   UNL     1      44.232   2.468   8.906  0.00  0.00    +0.000 N 
ATOM     10  H   UNL     1      43.695   1.625   8.712  0.00  0.00    +0.000 HD
BRANCH   9  14
ATOM     11  C   UNL     1      47.874   2.253   6.755  0.00  0.00    +0.000 A 
ATOM     12  C   UNL     1      47.210   3.470   6.847  0.00  0.00    +0.000 A 
ATOM     13  C   UNL     1      46.012   3.556   7.560  0.00  0.00    +0.000 A 
ATOM     14  C   UNL     1      45.466   2.445   8.221  0.00  0.00    +0.000 A 
ATOM     15  C   UNL     1      46.143   1.226   8.101  0.00  0.00    +0.000 A 
ATOM     16  C   UNL     1      47.337   1.129   7.376  0.00  0.00    +0.000 A 
ENDBRANCH   9  14
ENDBRANCH   8   9
ENDBRANCH   7   8
ENDBRANCH   1   7
BRANCH   5  17
ATOM     17  O   UNL     1      47.251   7.871  11.921  0.00  0.00    +0.000 OA
BRANCH  17  18
ATOM     18  C   UNL     1      48.593   8.193  12.354  0.00  0.00    +0.000 C 
ATOM     19  C   UNL     1      49.190   9.535  11.905  0.00  0.00    +0.000 C 
ATOM     20  O   UNL     1      50.350   8.883  11.334  0.00  0.00    +0.000 OA
ATOM     21  C   UNL     1      49.723   7.590  11.508  0.00  0.00    +0.000 C 
ENDBRANCH  17  18
ENDBRANCH   5  17
TORSDOF 6
ENDMDL
MODEL 5
REMARK VINA RESULT:    -6.149      3.138      7.797
REMARK INTER + INTRA:          -9.008
REMARK INTER:                  -8.602
REMARK INTRA:                  -0.406
REMARK UNBOUND:                -0.701
REMARK  Name = 
REMARK  6 active torsions:
REMARK  status: ('A' for Active; 'I' for Inactive)
REMARK    1  A    between atoms: C_4  and  N_5
REMARK    2  A    between atoms: N_5  and  C_6
REMARK    3  A    between atoms: C_6  and  C_7
REMARK    4  A    between atoms: C_7  and  C_8
REMARK    5  A    between atoms: C_12  and  O_13
REMARK    6  A    between atoms: O_13  and  C_14
REMARK                            x       y       z     vdW  Elec       q    Type
REMARK                         _______ _______ _______ _____ _____    ______ ____
ROOT
ATOM      1  C   UNL     1      45.295   5.458  12.137  0.00  0.00    +0.000 A 
ATOM      2  C   UNL     1      43.996   4.978  12.377  0.00  0.00    +0.000 A 
ATOM      3  C   UNL     1      43.216   4.450  11.349  0.00  0.00    +0.000 A 
ATOM      4  C   UNL     1      43.723   4.374  10.056  0.00  0.00    +0.000 A 
ATOM      5  C   UNL     1      45.019   4.820   9.797  0.00  0.00    +0.000 A 
ATOM      6  C   UNL     1      45.793   5.367  10.828  0.00  0.00    +0.000 A 
ENDROOT
BRANCH   1   7
ATOM      7  C   UNL     1      46.164   6.078  13.224  0.00  0.00    +0.000 C 
BRANCH   7   8
ATOM      8  C   UNL     1      47.120   5.074  13.876  0.00  0.00    +0.000 C 
BRANCH   8   9
ATOM      9  N   UNL     1      46.591   4.417  15.066  0.00  0.00    +0.000 N 
ATOM     10  H   UNL     1      45.649   4.701  15.323  0.00  0.00    +0.000 HD
BRANCH   9  14
ATOM     11  C   UNL     1      49.175   4.188  18.414  0.00  0.00    +0.000 A 
ATOM     12  C   UNL     1      49.262   5.282  17.562  0.00  0.00    +0.000 A 
ATOM     13  C   UNL     1      48.411   5.374  16.459  0.00  0.00    +0.000 A 
ATOM     14  C   UNL     1      47.436   4.398  16.197  0.00  0.00    +0.000 A 
ATOM     15  C   UNL     1      47.377   3.297  17.059  0.00  0.00    +0.000 A 
ATOM     16  C   UNL     1      48.237   3.191  18.158  0.00  0.00    +0.000 A 
ENDBRANCH   9  14
ENDBRANCH   8   9
ENDBRANCH   7   8
ENDBRANCH   1   7
BRANCH   5  17
ATOM     17  O   UNL     1      45.611   4.786   8.558  0.00  0.00    +0.000 OA
BRANCH  17  18
ATOM     18  C   UNL     1      45.473   3.584   7.765  0.00  0.00    +0.000 C 
ATOM     19  C   UNL     1      45.949   2.260   8.380  0.00  0.00    +0.000 C 
ATOM     20  O   UNL     1      46.814   1.991   7.250  0.00  0.00    +0.000 OA
ATOM     21  C   UNL     1      46.593   3.330   6.748  0.00  0.00    +0.000 C 
ENDBRANCH  17  18
ENDBRANCH   5  17
TORSDOF 6
ENDMDL
MODEL 6
REMARK VINA RESULT:    -6.033      3.475      7.021
REMARK INTER + INTRA:          -8.851
REMARK INTER:                  -8.058
REMARK INTRA:                  -0.793
REMARK UNBOUND:                -0.701
REMARK  Name = 
REMARK  6 active torsions:
REMARK  status: ('A' for Active; 'I' for Inactive)
REMARK    1  A    between atoms: C_4  and  N_5
REMARK    2  A    between atoms: N_5  and  C_6
REMARK    3  A    between atoms: C_6  and  C_7
REMARK    4  A    between atoms: C_7  and  C_8
REMARK    5  A    between atoms: C_12  and  O_13
REMARK    6  A    between atoms: O_13  and  C_14
REMARK                            x       y       z     vdW  Elec       q    Type
REMARK                         _______ _______ _______ _____ _____    ______ ____
ROOT
ATOM      1  C   UNL     1      45.273   4.959  12.669  0.00  0.00    +0.000 A 
ATOM      2  C   UNL     1      43.901   5.038  12.964  0.00  0.00    +0.000 A 
ATOM      3  C   UNL     1      42.939   4.999  11.955  0.00  0.00    +0.000 A 
ATOM      4  C   UNL     1      43.325   4.866  10.626  0.00  0.00    +0.000 A 
ATOM      5  C   UNL     1      44.679   4.759  10.310  0.00  0.00    +0.000 A 
ATOM      6  C   UNL     1      45.644   4.818  11.323  0.00  0.00    +0.000 A 
ENDROOT
BRANCH   1   7
ATOM      7  C   UNL     1      46.357   5.036  13.737  0.00  0.00    +0.000 C 
BRANCH   7   8
ATOM      8  C   UNL     1      47.453   6.054  13.409  0.00  0.00    +0.000 C 
BRANCH   8   9
ATOM      9  N   UNL     1      47.321   7.333  14.098  0.00  0.00    +0.000 N 
ATOM     10  H   UNL     1      46.841   7.283  14.994  0.00  0.00    +0.000 HD
BRANCH   9  14
ATOM     11  C   UNL     1      46.000  10.536  11.663  0.00  0.00    +0.000 A 
ATOM     12  C   UNL     1      45.078   9.598  12.113  0.00  0.00    +0.000 A 
ATOM     13  C   UNL     1      45.499   8.542  12.922  0.00  0.00    +0.000 A 
ATOM     14  C   UNL     1      46.837   8.411  13.328  0.00  0.00    +0.000 A 
ATOM     15  C   UNL     1      47.751   9.358  12.850  0.00  0.00    +0.000 A 
ATOM     16  C   UNL     1      47.337  10.411  12.025  0.00  0.00    +0.000 A 
ENDBRANCH   9  14
ENDBRANCH   8   9
ENDBRANCH   7   8
ENDBRANCH   1   7
BRANCH   5  17
ATOM     17  O   UNL     1      45.161   4.623   9.031  0.00  0.00    +0.000 OA
BRANCH  17  18
ATOM     18  C   UNL     1      44.937   3.370   8.344  0.00  0.00    +0.000 C 
ATOM     19  C   UNL     1      44.913   2.085   9.184  0.00  0.00    +0.000 C 
ATOM     20  O   UNL     1      45.938   1.473   8.365  0.00  0.00    +0.000 OA
ATOM     21  C   UNL     1      46.178   2.737   7.702  0.00  0.00    +0.000 C 
ENDBRANCH  17  18
ENDBRANCH   5  17
TORSDOF 6
ENDMDL
MODEL 7
REMARK VINA RESULT:    -5.982      1.565      2.169
REMARK INTER + INTRA:          -8.781
REMARK INTER:                  -8.368
REMARK INTRA:                  -0.413
REMARK UNBOUND:                -0.701
REMARK  Name = 
REMARK  6 active torsions:
REMARK  status: ('A' for Active; 'I' for Inactive)
REMARK    1  A    between atoms: C_4  and  N_5
REMARK    2  A    between atoms: N_5  and  C_6
REMARK    3  A    between atoms: C_6  and  C_7
REMARK    4  A    between atoms: C_7  and  C_8
REMARK    5  A    between atoms: C_12  and  O_13
REMARK    6  A    between atoms: O_13  and  C_14
REMARK                            x       y       z     vdW  Elec       q    Type
REMARK                         _______ _______ _______ _____ _____    ______ ____
ROOT
ATOM      1  C   UNL     1      46.050   7.015  12.250  0.00  0.00    +0.000 A 
ATOM      2  C   UNL     1      46.220   8.407  12.348  0.00  0.00    +0.000 A 
ATOM      3  C   UNL     1      47.149   8.964  13.226  0.00  0.00    +0.000 A 
ATOM      4  C   UNL     1      47.942   8.142  14.019  0.00  0.00    +0.000 A 
ATOM      5  C   UNL     1      47.811   6.757  13.922  0.00  0.00    +0.000 A 
ATOM      6  C   UNL     1      46.864   6.200  13.052  0.00  0.00    +0.000 A 
ENDROOT
BRANCH   1   7
ATOM      7  C   UNL     1      45.021   6.367  11.332  0.00  0.00    +0.000 C 
BRANCH   7   8
ATOM      8  C   UNL     1      45.647   5.697  10.105  0.00  0.00    +0.000 C 
BRANCH   8   9
ATOM      9  N   UNL     1      44.758   4.788   9.390  0.00  0.00    +0.000 N 
ATOM     10  H   UNL     1      43.980   4.435   9.942  0.00  0.00    +0.000 HD
BRANCH   9  14
ATOM     11  C   UNL     1      46.778   1.745   7.247  0.00  0.00    +0.000 A 
ATOM     12  C   UNL     1      45.954   1.396   8.310  0.00  0.00    +0.000 A 
ATOM     13  C   UNL     1      45.276   2.388   9.020  0.00  0.00    +0.000 A 
ATOM     14  C   UNL     1      45.377   3.745   8.670  0.00  0.00    +0.000 A 
ATOM     15  C   UNL     1      46.225   4.075   7.606  0.00  0.00    +0.000 A 
ATOM     16  C   UNL     1      46.919   3.085   6.900  0.00  0.00    +0.000 A 
ENDBRANCH   9  14
ENDBRANCH   8   9
ENDBRANCH   7   8
ENDBRANCH   1   7
BRANCH   5  17
ATOM     17  O   UNL     1      48.547   5.861  14.658  0.00  0.00    +0.000 OA
BRANCH  17  18
ATOM     18  C   UNL     1      48.363   5.839  16.093  0.00  0.00    +0.000 C 
ATOM     19  C   UNL     1      49.587   5.541  16.970  0.00  0.00    +0.000 C 
ATOM     20  O   UNL     1      48.907   4.447  17.632  0.00  0.00    +0.000 OA
ATOM     21  C   UNL     1      47.828   4.521  16.670  0.00  0.00    +0.000 C 
ENDBRANCH  17  18
ENDBRANCH   5  17
TORSDOF 6
ENDMDL
MODEL 8
REMARK VINA RESULT:    -5.642      3.279      6.795
REMARK INTER + INTRA:          -8.321
REMARK INTER:                  -7.598
REMARK INTRA:                  -0.724
REMARK UNBOUND:                -0.701
REMARK  Name = 
REMARK  6 active torsions:
REMARK  status: ('A' for Active; 'I' for Inactive)
REMARK    1  A    between atoms: C_4  and  N_5
REMARK    2  A    between atoms: N_5  and  C_6
REMARK    3  A    between atoms: C_6  and  C_7
REMARK    4  A    between atoms: C_7  and  C_8
REMARK    5  A    between atoms: C_12  and  O_13
REMARK    6  A    between atoms: O_13  and  C_14
REMARK                            x       y       z     vdW  Elec       q    Type
REMARK                         _______ _______ _______ _____ _____    ______ ____
ROOT
ATOM      1  C   UNL     1      44.902   4.625  12.838  0.00  0.00    +0.000 A 
ATOM      2  C   UNL     1      43.520   4.875  12.892  0.00  0.00    +0.000 A 
ATOM      3  C   UNL     1      42.779   5.114  11.734  0.00  0.00    +0.000 A 
ATOM      4  C   UNL     1      43.401   5.094  10.491  0.00  0.00    +0.000 A 
ATOM      5  C   UNL     1      44.767   4.823  10.408  0.00  0.00    +0.000 A 
ATOM      6  C   UNL     1      45.512   4.602  11.574  0.00  0.00    +0.000 A 
ENDROOT
BRANCH   1   7
ATOM      7  C   UNL     1      45.754   4.398  14.080  0.00  0.00    +0.000 C 
BRANCH   7   8
ATOM      8  C   UNL     1      47.159   4.996  13.964  0.00  0.00    +0.000 C 
BRANCH   8   9
ATOM      9  N   UNL     1      47.222   6.441  14.147  0.00  0.00    +0.000 N 
ATOM     10  H   UNL     1      46.328   6.919  14.055  0.00  0.00    +0.000 HD
BRANCH   9  14
ATOM     11  C   UNL     1      50.370   8.360  12.063  0.00  0.00    +0.000 A 
ATOM     12  C   UNL     1      49.230   7.975  11.368  0.00  0.00    +0.000 A 
ATOM     13  C   UNL     1      48.182   7.348  12.044  0.00  0.00    +0.000 A 
ATOM     14  C   UNL     1      48.229   7.120  13.429  0.00  0.00    +0.000 A 
ATOM     15  C   UNL     1      49.394   7.501  14.106  0.00  0.00    +0.000 A 
ATOM     16  C   UNL     1      50.455   8.116  13.430  0.00  0.00    +0.000 A 
ENDBRANCH   9  14
ENDBRANCH   8   9
ENDBRANCH   7   8
ENDBRANCH   1   7
BRANCH   5  17
ATOM     17  O   UNL     1      45.472   4.778   9.230  0.00  0.00    +0.000 OA
BRANCH  17  18
ATOM     18  C   UNL     1      45.209   3.690   8.315  0.00  0.00    +0.000 C 
ATOM     19  C   UNL     1      45.596   2.271   8.756  0.00  0.00    +0.000 C 
ATOM     20  O   UNL     1      46.396   2.068   7.566  0.00  0.00    +0.000 OA
ATOM     21  C   UNL     1      46.268   3.469   7.228  0.00  0.00    +0.000 C 
ENDBRANCH  17  18
ENDBRANCH   5  17
TORSDOF 6
ENDMDL
MODEL 9
REMARK VINA RESULT:    -5.543      4.001      6.990
REMARK INTER + INTRA:          -8.188
REMARK INTER:                  -7.686
REMARK INTRA:                  -0.502
REMARK UNBOUND:                -0.701
REMARK  Name = 
REMARK  6 active torsions:
REMARK  status: ('A' for Active; 'I' for Inactive)
REMARK    1  A    between atoms: C_4  and  N_5
REMARK    2  A    between atoms: N_5  and  C_6
REMARK    3  A    between atoms: C_6  and  C_7
REMARK    4  A    between atoms: C_7  and  C_8
REMARK    5  A    between atoms: C_12  and  O_13
REMARK    6  A    between atoms: O_13  and  C_14
REMARK                            x       y       z     vdW  Elec       q    Type
REMARK                         _______ _______ _______ _____ _____    ______ ____
ROOT
ATOM      1  C   UNL     1      47.182   7.010  12.484  0.00  0.00    +0.000 A 
ATOM      2  C   UNL     1      46.648   8.295  12.679  0.00  0.00    +0.000 A 
ATOM      3  C   UNL     1      45.377   8.631  12.214  0.00  0.00    +0.000 A 
ATOM      4  C   UNL     1      44.602   7.684  11.554  0.00  0.00    +0.000 A 
ATOM      5  C   UNL     1      45.099   6.393  11.370  0.00  0.00    +0.000 A 
ATOM      6  C   UNL     1      46.383   6.064  11.822  0.00  0.00    +0.000 A 
ENDROOT
BRANCH   1   7
ATOM      7  C   UNL     1      48.580   6.614  12.942  0.00  0.00    +0.000 C 
BRANCH   7   8
ATOM      8  C   UNL     1      48.903   7.084  14.364  0.00  0.00    +0.000 C 
BRANCH   8   9
ATOM      9  N   UNL     1      47.946   6.654  15.377  0.00  0.00    +0.000 N 
ATOM     10  H   UNL     1      47.668   7.381  16.032  0.00  0.00    +0.000 HD
BRANCH   9  14
ATOM     11  C   UNL     1      48.869   3.154  17.576  0.00  0.00    +0.000 A 
ATOM     12  C   UNL     1      47.786   3.144  16.705  0.00  0.00    +0.000 A 
ATOM     13  C   UNL     1      47.475   4.289  15.969  0.00  0.00    +0.000 A 
ATOM     14  C   UNL     1      48.251   5.456  16.057  0.00  0.00    +0.000 A 
ATOM     15  C   UNL     1      49.327   5.449  16.953  0.00  0.00    +0.000 A 
ATOM     16  C   UNL     1      49.635   4.309  17.706  0.00  0.00    +0.000 A 
ENDBRANCH   9  14
ENDBRANCH   8   9
ENDBRANCH   7   8
ENDBRANCH   1   7
BRANCH   5  17
ATOM     17  O   UNL     1      44.412   5.388  10.735  0.00  0.00    +0.000 OA
BRANCH  17  18
ATOM     18  C   UNL     1      43.385   4.687  11.473  0.00  0.00    +0.000 C 
ATOM     19  C   UNL     1      43.311   4.911  12.990  0.00  0.00    +0.000 C 
ATOM     20  O   UNL     1      43.400   3.490  13.254  0.00  0.00    +0.000 OA
ATOM     21  C   UNL     1      43.722   3.242  11.865  0.00  0.00    +0.000 C 
ENDBRANCH  17  18
ENDBRANCH   5  17
TORSDOF 6
ENDMDL
