MODEL 1
REMARK VINA RESULT:    -7.961      0.000      0.000
REMARK INTER + INTRA:         -11.057
REMARK INTER:                 -10.288
REMARK INTRA:                  -0.769
REMARK UNBOUND:                -0.769
REMARK  Name = 
REMARK  6 active torsions:
REMARK  status: ('A' for Active; 'I' for Inactive)
REMARK    1  A    between atoms: C_1  and  C_2
REMARK    2  A    between atoms: C_2  and  C_3
REMARK    3  A    between atoms: C_7  and  C_8
REMARK    4  A    between atoms: C_8  and  C_9
REMARK    5  A    between atoms: C_9  and  N_10
REMARK    6  A    between atoms: C_14  and  C_15
REMARK                            x       y       z     vdW  Elec       q    Type
REMARK                         _______ _______ _______ _____ _____    ______ ____
ROOT
ATOM      1  C   UNL     1      43.716   5.477  10.401  0.00  0.00    +0.000 C 
ENDROOT
BRANCH   1   2
ATOM      2  N   UNL     1      43.806   4.013  10.311  0.00  0.00    +0.000 N 
ATOM      3  C   UNL     1      44.751   3.595   9.350  0.00  0.00    +0.000 A 
ATOM      4  C   UNL     1      44.952   2.232   9.148  0.00  0.00    +0.000 A 
ATOM      5  C   UNL     1      45.902   1.809   8.210  0.00  0.00    +0.000 A 
ATOM      6  C   UNL     1      46.634   2.755   7.488  0.00  0.00    +0.000 A 
ATOM      7  C   UNL     1      46.374   4.086   7.761  0.00  0.00    +0.000 A 
ATOM      8  N   UNL     1      45.464   4.513   8.670  0.00  0.00    +0.000 NA
ATOM      9  H   UNL     1      42.911   3.582  10.095  0.00  0.00    +0.000 HD
BRANCH   6  10
ATOM     10  C   UNL     1      47.633   2.314   6.486  0.00  0.00    +0.000 C 
ATOM     11  N   UNL     1      47.745   3.002   5.310  0.00  0.00    +0.000 N 
ATOM     12  O   UNL     1      48.350   1.342   6.700  0.00  0.00    +0.000 OA
ATOM     13  H   UNL     1      47.205   3.806   5.034  0.00  0.00    +0.000 HD
ATOM     14  H   UNL     1      48.439   2.663   4.654  0.00  0.00    +0.000 HD
ENDBRANCH   6  10
ENDBRANCH   1   2
BRANCH   1  15
ATOM     15  C   UNL     1      43.697   5.954  11.859  0.00  0.00    +0.000 C 
BRANCH  15  20
ATOM     16  C   UNL     1      47.307   6.583  12.991  0.00  0.00    +0.000 A 
ATOM     17  C   UNL     1      47.486   5.476  13.844  0.00  0.00    +0.000 A 
ATOM     18  C   UNL     1      46.480   4.525  14.027  0.00  0.00    +0.000 A 
ATOM     19  C   UNL     1      45.262   4.659  13.368  0.00  0.00    +0.000 A 
ATOM     20  C   UNL     1      45.052   5.736  12.502  0.00  0.00    +0.000 A 
ATOM     21  C   UNL     1      46.082   6.677  12.310  0.00  0.00    +0.000 A 
BRANCH  16  23
ATOM     22  C   UNL     1      48.920   7.734  11.472  0.00  0.00    +0.000 C 
ATOM     23  C   UNL     1      48.395   7.669  12.919  0.00  0.00    +0.000 C 
ATOM     24  C   UNL     1      47.867   9.026  13.399  0.00  0.00    +0.000 C 
ATOM     25  C   UNL     1      48.262   9.102  14.866  0.00  0.00    +0.000 C 
ATOM     26  O   UNL     1      49.179   8.037  15.134  0.00  0.00    +0.000 OA
ATOM     27  C   UNL     1      49.591   7.504  13.870  0.00  0.00    +0.000 C 
ENDBRANCH  16  23
ENDBRANCH  15  20
ENDBRANCH   1  15
TORSDOF 5
ENDMDL
MODEL 2
REMARK VINA RESULT:    -7.321      1.357      2.335
REMARK INTER + INTRA:         -10.230
REMARK INTER:                  -9.471
REMARK INTRA:                  -0.758
REMARK UNBOUND:                -0.769
REMARK  Name = 
REMARK  6 active torsions:
REMARK  status: ('A' for Active; 'I' for Inactive)
REMARK    1  A    between atoms: C_1  and  C_2
REMARK    2  A    between atoms: C_2  and  C_3
REMARK    3  A    between atoms: C_7  and  C_8
REMARK    4  A    between atoms: C_8  and  C_9
REMARK    5  A    between atoms: C_9  and  N_10
REMARK    6  A    between atoms: C_14  and  C_15
REMARK                            x       y       z     vdW  Elec       q    Type
REMARK                         _______ _______ _______ _____ _____    ______ ____
ROOT
ATOM      1  C   UNL     1      43.691   5.237  10.851  0.00  0.00    +0.000 C 
ENDROOT
BRANCH   1   2
ATOM      2  N   UNL     1      43.777   3.784  10.654  0.00  0.00    +0.000 N 
ATOM      3  C   UNL     1      44.663   3.437   9.613  0.00  0.00    +0.000 A 
ATOM      4  C   UNL     1      44.853   2.093   9.305  0.00  0.00    +0.000 A 
ATOM      5  C   UNL     1      45.746   1.741   8.285  0.00  0.00    +0.000 A 
ATOM      6  C   UNL     1      46.433   2.738   7.589  0.00  0.00    +0.000 A 
ATOM      7  C   UNL     1      46.189   4.045   7.968  0.00  0.00    +0.000 A 
ATOM      8  N   UNL     1      45.333   4.404   8.957  0.00  0.00    +0.000 NA
ATOM      9  H   UNL     1      42.871   3.364  10.463  0.00  0.00    +0.000 HD
BRANCH   6  10
ATOM     10  C   UNL     1      47.371   2.372   6.502  0.00  0.00    +0.000 C 
ATOM     11  N   UNL     1      47.277   3.012   5.297  0.00  0.00    +0.000 N 
ATOM     12  O   UNL     1      48.221   1.503   6.671  0.00  0.00    +0.000 OA
ATOM     13  H   UNL     1      46.616   3.732   5.053  0.00  0.00    +0.000 HD
ATOM     14  H   UNL     1      47.936   2.728   4.582  0.00  0.00    +0.000 HD
ENDBRANCH   6  10
ENDBRANCH   1   2
BRANCH   1  15
ATOM     15  C   UNL     1      44.140   5.645  12.260  0.00  0.00    +0.000 C 
BRANCH  15  20
ATOM     16  C   UNL     1      46.773   8.394  12.729  0.00  0.00    +0.000 A 
ATOM     17  C   UNL     1      46.163   9.436  12.001  0.00  0.00    +0.000 A 
ATOM     18  C   UNL     1      44.914   9.271  11.399  0.00  0.00    +0.000 A 
ATOM     19  C   UNL     1      44.242   8.057  11.501  0.00  0.00    +0.000 A 
ATOM     20  C   UNL     1      44.808   7.005  12.227  0.00  0.00    +0.000 A 
ATOM     21  C   UNL     1      46.059   7.190  12.847  0.00  0.00    +0.000 A 
BRANCH  16  23
ATOM     22  C   UNL     1      48.118   8.899  14.771  0.00  0.00    +0.000 C 
ATOM     23  C   UNL     1      48.203   8.580  13.267  0.00  0.00    +0.000 C 
ATOM     24  C   UNL     1      49.071   7.348  12.990  0.00  0.00    +0.000 C 
ATOM     25  C   UNL     1      49.802   7.667  11.695  0.00  0.00    +0.000 C 
ATOM     26  O   UNL     1      49.605   9.055  11.405  0.00  0.00    +0.000 OA
ATOM     27  C   UNL     1      49.056   9.660  12.581  0.00  0.00    +0.000 C 
ENDBRANCH  16  23
ENDBRANCH  15  20
ENDBRANCH   1  15
TORSDOF 5
ENDMDL
MODEL 3
REMARK VINA RESULT:    -6.732      4.020      7.499
REMARK INTER + INTRA:          -9.468
REMARK INTER:                  -8.481
REMARK INTRA:                  -0.987
REMARK UNBOUND:                -0.769
REMARK  Name = 
REMARK  6 active torsions:
REMARK  status: ('A' for Active; 'I' for Inactive)
REMARK    1  A    between atoms: C_1  and  C_2
REMARK    2  A    between atoms: C_2  and  C_3
REMARK    3  A    between atoms: C_7  and  C_8
REMARK    4  A    between atoms: C_8  and  C_9
REMARK    5  A    between atoms: C_9  and  N_10
REMARK    6  A    between atoms: C_14  and  C_15
REMARK                            x       y       z     vdW  Elec       q    Type
REMARK                         _______ _______ _______ _____ _____    ______ ____
ROOT
ATOM      1  C   UNL     1      48.967   7.534  13.027  0.00  0.00    +0.000 C 
ENDROOT
BRANCH   1   2
ATOM      2  N   UNL     1      49.578   7.533  14.363  0.00  0.00    +0.000 N 
ATOM      3  C   UNL     1      49.036   6.534  15.198  0.00  0.00    +0.000 A 
ATOM      4  C   UNL     1      49.515   6.405  16.499  0.00  0.00    +0.000 A 
ATOM      5  C   UNL     1      48.995   5.402  17.327  0.00  0.00    +0.000 A 
ATOM      6  C   UNL     1      48.003   4.546  16.841  0.00  0.00    +0.000 A 
ATOM      7  C   UNL     1      47.596   4.741  15.535  0.00  0.00    +0.000 A 
ATOM      8  N   UNL     1      48.092   5.702  14.717  0.00  0.00    +0.000 NA
ATOM      9  H   UNL     1      49.489   8.431  14.832  0.00  0.00    +0.000 HD
BRANCH   6  10
ATOM     10  C   UNL     1      47.442   3.490  17.716  0.00  0.00    +0.000 C 
ATOM     11  N   UNL     1      48.074   3.193  18.891  0.00  0.00    +0.000 N 
ATOM     12  O   UNL     1      46.425   2.883  17.395  0.00  0.00    +0.000 OA
ATOM     13  H   UNL     1      48.912   3.625  19.245  0.00  0.00    +0.000 HD
ATOM     14  H   UNL     1      47.657   2.462  19.456  0.00  0.00    +0.000 HD
ENDBRANCH   6  10
ENDBRANCH   1   2
BRANCH   1  15
ATOM     15  C   UNL     1      48.227   8.847  12.744  0.00  0.00    +0.000 C 
BRANCH  15  20
ATOM     16  C   UNL     1      45.197   6.925  11.390  0.00  0.00    +0.000 A 
ATOM     17  C   UNL     1      44.259   7.974  11.325  0.00  0.00    +0.000 A 
ATOM     18  C   UNL     1      44.600   9.282  11.676  0.00  0.00    +0.000 A 
ATOM     19  C   UNL     1      45.888   9.576  12.110  0.00  0.00    +0.000 A 
ATOM     20  C   UNL     1      46.852   8.565  12.175  0.00  0.00    +0.000 A 
ATOM     21  C   UNL     1      46.501   7.255  11.798  0.00  0.00    +0.000 A 
BRANCH  16  23
ATOM     22  C   UNL     1      45.372   5.019   9.787  0.00  0.00    +0.000 C 
ATOM     23  C   UNL     1      44.742   5.481  11.115  0.00  0.00    +0.000 C 
ATOM     24  C   UNL     1      45.102   4.548  12.276  0.00  0.00    +0.000 C 
ATOM     25  C   UNL     1      43.850   4.496  13.139  0.00  0.00    +0.000 C 
ATOM     26  O   UNL     1      42.780   5.097  12.403  0.00  0.00    +0.000 OA
ATOM     27  C   UNL     1      43.224   5.243  11.050  0.00  0.00    +0.000 C 
ENDBRANCH  16  23
ENDBRANCH  15  20
ENDBRANCH   1  15
TORSDOF 5
ENDMDL
MODEL 4
REMARK VINA RESULT:    -6.650      5.031      6.556
REMARK INTER + INTRA:          -9.363
REMARK INTER:                  -8.761
REMARK INTRA:                  -0.602
REMARK UNBOUND:                -0.769
REMARK  Name = 
REMARK  6 active torsions:
REMARK  status: ('A' for Active; 'I' for Inactive)
REMARK    1  A    between atoms: C_1  and  C_2
REMARK    2  A    between atoms: C_2  and  C_3
REMARK    3  A    between atoms: C_7  and  C_8
REMARK    4  A    between atoms: C_8  and  C_9
REMARK    5  A    between atoms: C_9  and  N_10
REMARK    6  A    between atoms: C_14  and  C_15
REMARK                            x       y       z     vdW  Elec       q    Type
REMARK                         _______ _______ _______ _____ _____    ______ ____
ROOT
ATOM      1  C   UNL     1      47.184   4.187  15.894  0.00  0.00    +0.000 C 
ENDROOT
BRANCH   1   2
ATOM      2  N   UNL     1      47.156   5.283  14.916  0.00  0.00    +0.000 N 
ATOM      3  C   UNL     1      46.471   4.928  13.735  0.00  0.00    +0.000 A 
ATOM      4  C   UNL     1      46.358   5.864  12.710  0.00  0.00    +0.000 A 
ATOM      5  C   UNL     1      45.662   5.525  11.544  0.00  0.00    +0.000 A 
ATOM      6  C   UNL     1      45.092   4.256  11.419  0.00  0.00    +0.000 A 
ATOM      7  C   UNL     1      45.247   3.395  12.490  0.00  0.00    +0.000 A 
ATOM      8  N   UNL     1      45.911   3.707  13.629  0.00  0.00    +0.000 NA
ATOM      9  H   UNL     1      48.088   5.605  14.666  0.00  0.00    +0.000 HD
BRANCH   6  10
ATOM     10  C   UNL     1      44.365   3.888  10.182  0.00  0.00    +0.000 C 
ATOM     11  N   UNL     1      44.363   4.756   9.126  0.00  0.00    +0.000 N 
ATOM     12  O   UNL     1      43.765   2.820  10.099  0.00  0.00    +0.000 OA
ATOM     13  H   UNL     1      44.816   5.655   9.091  0.00  0.00    +0.000 HD
ATOM     14  H   UNL     1      43.850   4.465   8.302  0.00  0.00    +0.000 HD
ENDBRANCH   6  10
ENDBRANCH   1   2
BRANCH   1  15
ATOM     15  C   UNL     1      47.965   4.574  17.156  0.00  0.00    +0.000 C 
BRANCH  15  20
ATOM     16  C   UNL     1      51.645   3.749  17.853  0.00  0.00    +0.000 A 
ATOM     17  C   UNL     1      51.638   2.369  17.570  0.00  0.00    +0.000 A 
ATOM     18  C   UNL     1      50.482   1.719  17.130  0.00  0.00    +0.000 A 
ATOM     19  C   UNL     1      49.298   2.432  16.969  0.00  0.00    +0.000 A 
ATOM     20  C   UNL     1      49.269   3.806  17.226  0.00  0.00    +0.000 A 
ATOM     21  C   UNL     1      50.446   4.453  17.648  0.00  0.00    +0.000 A 
BRANCH  16  23
ATOM     22  C   UNL     1      53.590   5.235  17.359  0.00  0.00    +0.000 C 
ATOM     23  C   UNL     1      52.906   4.394  18.453  0.00  0.00    +0.000 C 
ATOM     24  C   UNL     1      52.573   5.231  19.694  0.00  0.00    +0.000 C 
ATOM     25  C   UNL     1      52.813   4.297  20.871  0.00  0.00    +0.000 C 
ATOM     26  O   UNL     1      53.496   3.137  20.385  0.00  0.00    +0.000 OA
ATOM     27  C   UNL     1      53.944   3.434  19.058  0.00  0.00    +0.000 C 
ENDBRANCH  16  23
ENDBRANCH  15  20
ENDBRANCH   1  15
TORSDOF 5
ENDMDL
MODEL 5
REMARK VINA RESULT:    -6.571      3.512      5.918
REMARK INTER + INTRA:          -9.261
REMARK INTER:                  -8.412
REMARK INTRA:                  -0.849
REMARK UNBOUND:                -0.769
REMARK  Name = 
REMARK  6 active torsions:
REMARK  status: ('A' for Active; 'I' for Inactive)
REMARK    1  A    between atoms: C_1  and  C_2
REMARK    2  A    between atoms: C_2  and  C_3
REMARK    3  A    between atoms: C_7  and  C_8
REMARK    4  A    between atoms: C_8  and  C_9
REMARK    5  A    between atoms: C_9  and  N_10
REMARK    6  A    between atoms: C_14  and  C_15
REMARK                            x       y       z     vdW  Elec       q    Type
REMARK                         _______ _______ _______ _____ _____    ______ ____
ROOT
ATOM      1  C   UNL     1      47.957   7.685  13.995  0.00  0.00    +0.000 C 
ENDROOT
BRANCH   1   2
ATOM      2  N   UNL     1      47.552   7.605  12.586  0.00  0.00    +0.000 N 
ATOM      3  C   UNL     1      46.691   6.515  12.339  0.00  0.00    +0.000 A 
ATOM      4  C   UNL     1      46.218   6.304  11.047  0.00  0.00    +0.000 A 
ATOM      5  C   UNL     1      45.347   5.236  10.799  0.00  0.00    +0.000 A 
ATOM      6  C   UNL     1      44.965   4.394  11.846  0.00  0.00    +0.000 A 
ATOM      7  C   UNL     1      45.476   4.684  13.097  0.00  0.00    +0.000 A 
ATOM      8  N   UNL     1      46.314   5.717  13.358  0.00  0.00    +0.000 NA
ATOM      9  H   UNL     1      48.347   7.538  11.956  0.00  0.00    +0.000 HD
BRANCH   6  10
ATOM     10  C   UNL     1      44.053   3.256  11.587  0.00  0.00    +0.000 C 
ATOM     11  N   UNL     1      43.844   2.332  12.573  0.00  0.00    +0.000 N 
ATOM     12  O   UNL     1      43.491   3.134  10.503  0.00  0.00    +0.000 OA
ATOM     13  H   UNL     1      44.257   2.335  13.492  0.00  0.00    +0.000 HD
ATOM     14  H   UNL     1      43.215   1.569  12.352  0.00  0.00    +0.000 HD
ENDBRANCH   6  10
ENDBRANCH   1   2
BRANCH   1  15
ATOM     15  C   UNL     1      49.454   7.990  14.138  0.00  0.00    +0.000 C 
BRANCH  15  20
ATOM     16  C   UNL     1      49.766   5.500  17.039  0.00  0.00    +0.000 A 
ATOM     17  C   UNL     1      51.139   5.638  17.325  0.00  0.00    +0.000 A 
ATOM     18  C   UNL     1      51.944   6.538  16.623  0.00  0.00    +0.000 A 
ATOM     19  C   UNL     1      51.400   7.320  15.609  0.00  0.00    +0.000 A 
ATOM     20  C   UNL     1      50.039   7.223  15.306  0.00  0.00    +0.000 A 
ATOM     21  C   UNL     1      49.233   6.327  16.035  0.00  0.00    +0.000 A 
BRANCH  16  23
ATOM     22  C   UNL     1      48.999   4.675  19.267  0.00  0.00    +0.000 C 
ATOM     23  C   UNL     1      48.948   4.408  17.751  0.00  0.00    +0.000 C 
ATOM     24  C   UNL     1      47.508   4.354  17.226  0.00  0.00    +0.000 C 
ATOM     25  C   UNL     1      47.522   3.272  16.156  0.00  0.00    +0.000 C 
ATOM     26  O   UNL     1      48.765   2.569  16.254  0.00  0.00    +0.000 OA
ATOM     27  C   UNL     1      49.375   2.955  17.490  0.00  0.00    +0.000 C 
ENDBRANCH  16  23
ENDBRANCH  15  20
ENDBRANCH   1  15
TORSDOF 5
ENDMDL
MODEL 6
REMARK VINA RESULT:    -5.952      4.416      8.552
REMARK INTER + INTRA:          -8.461
REMARK INTER:                  -7.872
REMARK INTRA:                  -0.589
REMARK UNBOUND:                -0.769
REMARK  Name = 
REMARK  6 active torsions:
REMARK  status: ('A' for Active; 'I' for Inactive)
REMARK    1  A    between atoms: C_1  and  C_2
REMARK    2  A    between atoms: C_2  and  C_3
REMARK    3  A    between atoms: C_7  and  C_8
REMARK    4  A    between atoms: C_8  and  C_9
REMARK    5  A    between atoms: C_9  and  N_10
REMARK    6  A    between atoms: C_14  and  C_15
REMARK                            x       y       z     vdW  Elec       q    Type
REMARK                         _______ _______ _______ _____ _____    ______ ____
ROOT
ATOM      1  C   UNL     1      48.451   7.756  14.072  0.00  0.00    +0.000 C 
ENDROOT
BRANCH   1   2
ATOM      2  N   UNL     1      48.241   8.279  15.429  0.00  0.00    +0.000 N 
ATOM      3  C   UNL     1      48.784   7.433  16.418  0.00  0.00    +0.000 A 
ATOM      4  C   UNL     1      48.666   7.794  17.757  0.00  0.00    +0.000 A 
ATOM      5  C   UNL     1      49.220   6.968  18.743  0.00  0.00    +0.000 A 
ATOM      6  C   UNL     1      49.881   5.794  18.375  0.00  0.00    +0.000 A 
ATOM      7  C   UNL     1      49.958   5.520  17.022  0.00  0.00    +0.000 A 
ATOM      8  N   UNL     1      49.434   6.310  16.053  0.00  0.00    +0.000 NA
ATOM      9  H   UNL     1      47.258   8.433  15.637  0.00  0.00    +0.000 HD
BRANCH   6  10
ATOM     10  C   UNL     1      50.459   4.910  19.414  0.00  0.00    +0.000 C 
ATOM     11  N   UNL     1      51.354   3.944  19.045  0.00  0.00    +0.000 N 
ATOM     12  O   UNL     1      50.141   5.035  20.593  0.00  0.00    +0.000 OA
ATOM     13  H   UNL     1      51.677   3.755  18.110  0.00  0.00    +0.000 HD
ATOM     14  H   UNL     1      51.721   3.362  19.788  0.00  0.00    +0.000 HD
ENDBRANCH   6  10
ENDBRANCH   1   2
BRANCH   1  15
ATOM     15  C   UNL     1      47.149   7.746  13.261  0.00  0.00    +0.000 C 
BRANCH  15  20
ATOM     16  C   UNL     1      44.900   4.796  12.289  0.00  0.00    +0.000 A 
ATOM     17  C   UNL     1      45.618   3.741  12.885  0.00  0.00    +0.000 A 
ATOM     18  C   UNL     1      46.785   3.974  13.616  0.00  0.00    +0.000 A 
ATOM     19  C   UNL     1      47.271   5.269  13.763  0.00  0.00    +0.000 A 
ATOM     20  C   UNL     1      46.578   6.344  13.199  0.00  0.00    +0.000 A 
ATOM     21  C   UNL     1      45.391   6.098  12.482  0.00  0.00    +0.000 A 
BRANCH  16  23
ATOM     22  C   UNL     1      42.482   5.286  11.899  0.00  0.00    +0.000 C 
ATOM     23  C   UNL     1      43.691   4.479  11.390  0.00  0.00    +0.000 C 
ATOM     24  C   UNL     1      43.996   4.771   9.916  0.00  0.00    +0.000 C 
ATOM     25  C   UNL     1      44.441   3.437   9.336  0.00  0.00    +0.000 C 
ATOM     26  O   UNL     1      44.144   2.416  10.294  0.00  0.00    +0.000 OA
ATOM     27  C   UNL     1      43.288   2.999  11.283  0.00  0.00    +0.000 C 
ENDBRANCH  16  23
ENDBRANCH  15  20
ENDBRANCH   1  15
TORSDOF 5
ENDMDL
MODEL 7
REMARK VINA RESULT:    -5.889      4.552      8.338
REMARK INTER + INTRA:          -8.379
REMARK INTER:                  -7.780
REMARK INTRA:                  -0.599
REMARK UNBOUND:                -0.769
REMARK  Name = 
REMARK  6 active torsions:
REMARK  status: ('A' for Active; 'I' for Inactive)
REMARK    1  A    between atoms: C_1  and  C_2
REMARK    2  A    between atoms: C_2  and  C_3
REMARK    3  A    between atoms: C_7  and  C_8
REMARK    4  A    between atoms: C_8  and  C_9
REMARK    5  A    between atoms: C_9  and  N_10
REMARK    6  A    between atoms: C_14  and  C_15
REMARK                            x       y       z     vdW  Elec       q    Type
REMARK                         _______ _______ _______ _____ _____    ______ ____
ROOT
ATOM      1  C   UNL     1      49.005   7.968  14.063  0.00  0.00    +0.000 C 
ENDROOT
BRANCH   1   2
ATOM      2  N   UNL     1      50.406   7.998  14.505  0.00  0.00    +0.000 N 
ATOM      3  C   UNL     1      50.661   7.069  15.535  0.00  0.00    +0.000 A 
ATOM      4  C   UNL     1      51.947   6.976  16.061  0.00  0.00    +0.000 A 
ATOM      5  C   UNL     1      52.211   6.043  17.071  0.00  0.00    +0.000 A 
ATOM      6  C   UNL     1      51.186   5.219  17.540  0.00  0.00    +0.000 A 
ATOM      7  C   UNL     1      49.944   5.373  16.954  0.00  0.00    +0.000 A 
ATOM      8  N   UNL     1      49.670   6.266  15.972  0.00  0.00    +0.000 NA
ATOM      9  H   UNL     1      50.694   8.920  14.821  0.00  0.00    +0.000 HD
BRANCH   6  10
ATOM     10  C   UNL     1      51.458   4.237  18.616  0.00  0.00    +0.000 C 
ATOM     11  N   UNL     1      51.612   2.918  18.291  0.00  0.00    +0.000 N 
ATOM     12  O   UNL     1      51.540   4.594  19.787  0.00  0.00    +0.000 OA
ATOM     13  H   UNL     1      51.558   2.520  17.368  0.00  0.00    +0.000 HD
ATOM     14  H   UNL     1      51.793   2.281  19.059  0.00  0.00    +0.000 HD
ENDBRANCH   6  10
ENDBRANCH   1   2
BRANCH   1  15
ATOM     15  C   UNL     1      48.861   7.318  12.681  0.00  0.00    +0.000 C 
BRANCH  15  20
ATOM     16  C   UNL     1      45.407   6.283  11.376  0.00  0.00    +0.000 A 
ATOM     17  C   UNL     1      44.723   7.508  11.510  0.00  0.00    +0.000 A 
ATOM     18  C   UNL     1      45.367   8.655  11.979  0.00  0.00    +0.000 A 
ATOM     19  C   UNL     1      46.711   8.607  12.335  0.00  0.00    +0.000 A 
ATOM     20  C   UNL     1      47.427   7.414  12.201  0.00  0.00    +0.000 A 
ATOM     21  C   UNL     1      46.772   6.269  11.707  0.00  0.00    +0.000 A 
BRANCH  16  23
ATOM     22  C   UNL     1      45.085   4.590   9.569  0.00  0.00    +0.000 C 
ATOM     23  C   UNL     1      44.626   5.019  10.975  0.00  0.00    +0.000 C 
ATOM     24  C   UNL     1      44.808   3.897  12.004  0.00  0.00    +0.000 C 
ATOM     25  C   UNL     1      43.609   4.021  12.933  0.00  0.00    +0.000 C 
ATOM     26  O   UNL     1      42.677   4.927  12.336  0.00  0.00    +0.000 OA
ATOM     27  C   UNL     1      43.092   5.131  10.981  0.00  0.00    +0.000 C 
ENDBRANCH  16  23
ENDBRANCH  15  20
ENDBRANCH   1  15
TORSDOF 5
ENDMDL
MODEL 8
REMARK VINA RESULT:    -5.780      3.916      5.839
REMARK INTER + INTRA:          -8.239
REMARK INTER:                  -7.764
REMARK INTRA:                  -0.475
REMARK UNBOUND:                -0.769
REMARK  Name = 
REMARK  6 active torsions:
REMARK  status: ('A' for Active; 'I' for Inactive)
REMARK    1  A    between atoms: C_1  and  C_2
REMARK    2  A    between atoms: C_2  and  C_3
REMARK    3  A    between atoms: C_7  and  C_8
REMARK    4  A    between atoms: C_8  and  C_9
REMARK    5  A    between atoms: C_9  and  N_10
REMARK    6  A    between atoms: C_14  and  C_15
REMARK                            x       y       z     vdW  Elec       q    Type
REMARK                         _______ _______ _______ _____ _____    ______ ____
ROOT
ATOM      1  C   UNL     1      48.011   7.477  13.900  0.00  0.00    +0.000 C 
ENDROOT
BRANCH   1   2
ATOM      2  N   UNL     1      47.552   6.125  14.246  0.00  0.00    +0.000 N 
ATOM      3  C   UNL     1      46.699   5.582  13.262  0.00  0.00    +0.000 A 
ATOM      4  C   UNL     1      46.180   4.303  13.446  0.00  0.00    +0.000 A 
ATOM      5  C   UNL     1      45.348   3.751  12.465  0.00  0.00    +0.000 A 
ATOM      6  C   UNL     1      45.046   4.487  11.316  0.00  0.00    +0.000 A 
ATOM      7  C   UNL     1      45.613   5.744  11.214  0.00  0.00    +0.000 A 
ATOM      8  N   UNL     1      46.425   6.292  12.150  0.00  0.00    +0.000 NA
ATOM      9  H   UNL     1      47.073   6.095  15.143  0.00  0.00    +0.000 HD
BRANCH   6  10
ATOM     10  C   UNL     1      44.158   3.912  10.279  0.00  0.00    +0.000 C 
ATOM     11  N   UNL     1      44.131   4.480   9.036  0.00  0.00    +0.000 N 
ATOM     12  O   UNL     1      43.448   2.942  10.526  0.00  0.00    +0.000 OA
ATOM     13  H   UNL     1      44.666   5.277   8.731  0.00  0.00    +0.000 HD
ATOM     14  H   UNL     1      43.507   4.056   8.359  0.00  0.00    +0.000 HD
ENDBRANCH   6  10
ENDBRANCH   1   2
BRANCH   1  15
ATOM     15  C   UNL     1      48.482   8.249  15.139  0.00  0.00    +0.000 C 
BRANCH  15  20
ATOM     16  C   UNL     1      50.394   5.756  17.339  0.00  0.00    +0.000 A 
ATOM     17  C   UNL     1      51.709   6.014  16.905  0.00  0.00    +0.000 A 
ATOM     18  C   UNL     1      51.983   6.993  15.948  0.00  0.00    +0.000 A 
ATOM     19  C   UNL     1      50.947   7.738  15.393  0.00  0.00    +0.000 A 
ATOM     20  C   UNL     1      49.630   7.521  15.809  0.00  0.00    +0.000 A 
ATOM     21  C   UNL     1      49.370   6.546  16.790  0.00  0.00    +0.000 A 
BRANCH  16  23
ATOM     22  C   UNL     1      50.516   3.275  17.589  0.00  0.00    +0.000 C 
ATOM     23  C   UNL     1      50.128   4.584  18.301  0.00  0.00    +0.000 C 
ATOM     24  C   UNL     1      50.880   4.762  19.625  0.00  0.00    +0.000 C 
ATOM     25  C   UNL     1      49.873   5.412  20.562  0.00  0.00    +0.000 C 
ATOM     26  O   UNL     1      48.585   5.348  19.942  0.00  0.00    +0.000 OA
ATOM     27  C   UNL     1      48.692   4.449  18.834  0.00  0.00    +0.000 C 
ENDBRANCH  16  23
ENDBRANCH  15  20
ENDBRANCH   1  15
TORSDOF 5
ENDMDL
MODEL 9
REMARK VINA RESULT:    -5.544      4.345      6.910
REMARK INTER + INTRA:          -7.933
REMARK INTER:                  -7.223
REMARK INTRA:                  -0.710
REMARK UNBOUND:                -0.769
REMARK  Name = 
REMARK  6 active torsions:
REMARK  status: ('A' for Active; 'I' for Inactive)
REMARK    1  A    between atoms: C_1  and  C_2
REMARK    2  A    between atoms: C_2  and  C_3
REMARK    3  A    between atoms: C_7  and  C_8
REMARK    4  A    between atoms: C_8  and  C_9
REMARK    5  A    between atoms: C_9  and  N_10
REMARK    6  A    between atoms: C_14  and  C_15
REMARK                            x       y       z     vdW  Elec       q    Type
REMARK                         _______ _______ _______ _____ _____    ______ ____
ROOT
ATOM      1  C   UNL     1      50.321   8.221  14.017  0.00  0.00    +0.000 C 
ENDROOT
BRANCH   1   2
ATOM      2  N   UNL     1      49.589   7.007  13.632  0.00  0.00    +0.000 N 
ATOM      3  C   UNL     1      48.320   7.298  13.089  0.00  0.00    +0.000 A 
ATOM      4  C   UNL     1      47.504   6.249  12.675  0.00  0.00    +0.000 A 
ATOM      5  C   UNL     1      46.251   6.532  12.117  0.00  0.00    +0.000 A 
ATOM      6  C   UNL     1      45.833   7.858  11.984  0.00  0.00    +0.000 A 
ATOM      7  C   UNL     1      46.713   8.835  12.414  0.00  0.00    +0.000 A 
ATOM      8  N   UNL     1      47.931   8.581  12.950  0.00  0.00    +0.000 NA
ATOM      9  H   UNL     1      49.469   6.363  14.410  0.00  0.00    +0.000 HD
BRANCH   6  10
ATOM     10  C   UNL     1      44.504   8.163  11.405  0.00  0.00    +0.000 C 
ATOM     11  N   UNL     1      43.591   7.155  11.267  0.00  0.00    +0.000 N 
ATOM     12  O   UNL     1      44.221   9.301  11.046  0.00  0.00    +0.000 OA
ATOM     13  H   UNL     1      43.722   6.190  11.524  0.00  0.00    +0.000 HD
ATOM     14  H   UNL     1      42.696   7.408  10.864  0.00  0.00    +0.000 HD
ENDBRANCH   6  10
ENDBRANCH   1   2
BRANCH   1  15
ATOM     15  C   UNL     1      50.281   8.450  15.533  0.00  0.00    +0.000 C 
BRANCH  15  20
ATOM     16  C   UNL     1      49.935   5.053  17.280  0.00  0.00    +0.000 A 
ATOM     17  C   UNL     1      51.296   4.724  17.435  0.00  0.00    +0.000 A 
ATOM     18  C   UNL     1      52.309   5.591  17.017  0.00  0.00    +0.000 A 
ATOM     19  C   UNL     1      51.987   6.808  16.426  0.00  0.00    +0.000 A 
ATOM     20  C   UNL     1      50.648   7.177  16.269  0.00  0.00    +0.000 A 
ATOM     21  C   UNL     1      49.637   6.304  16.713  0.00  0.00    +0.000 A 
BRANCH  16  23
ATOM     22  C   UNL     1      48.678   4.010  19.169  0.00  0.00    +0.000 C 
ATOM     23  C   UNL     1      48.857   4.015  17.639  0.00  0.00    +0.000 C 
ATOM     24  C   UNL     1      47.539   4.297  16.908  0.00  0.00    +0.000 C 
ATOM     25  C   UNL     1      47.588   3.424  15.663  0.00  0.00    +0.000 C 
ATOM     26  O   UNL     1      48.681   2.511  15.804  0.00  0.00    +0.000 OA
ATOM     27  C   UNL     1      49.112   2.573  17.168  0.00  0.00    +0.000 C 
ENDBRANCH  16  23
ENDBRANCH  15  20
ENDBRANCH   1  15
TORSDOF 5
ENDMDL
