MODEL 1
REMARK VINA RESULT:    -8.080      0.000      0.000
REMARK INTER + INTRA:         -11.038
REMARK INTER:                 -10.442
REMARK INTRA:                  -0.596
REMARK UNBOUND:                -0.596
REMARK  Name = 
REMARK  5 active torsions:
REMARK  status: ('A' for Active; 'I' for Inactive)
REMARK    1  A    between atoms: C_2  and  C_4
REMARK    2  A    between atoms: C_7  and  N_8
REMARK    3  A    between atoms: N_8  and  C_9
REMARK    4  A    between atoms: C_9  and  C_10
REMARK    5  A    between atoms: C_14  and  C_15
REMARK                            x       y       z     vdW  Elec       q    Type
REMARK                         _______ _______ _______ _____ _____    ______ ____
ROOT
ATOM      1  N   UNL     1      43.798   4.784   9.765  0.00  0.00    +0.000 N 
ATOM      2  H   UNL     1      44.014   5.747   9.523  0.00  0.00    +0.000 HD
ENDROOT
BRANCH   1   6
ATOM      3  C   UNL     1      46.401   2.345   7.756  0.00  0.00    +0.000 A 
ATOM      4  C   UNL     1      46.375   3.714   7.558  0.00  0.00    +0.000 A 
ATOM      5  N   UNL     1      45.529   4.528   8.242  0.00  0.00    +0.000 NA
ATOM      6  C   UNL     1      44.673   3.937   9.103  0.00  0.00    +0.000 A 
ATOM      7  C   UNL     1      44.746   2.556   9.314  0.00  0.00    +0.000 A 
ATOM      8  N   UNL     1      45.589   1.723   8.656  0.00  0.00    +0.000 NA
BRANCH   3  10
ATOM      9  N   UNL     1      48.441   2.124   6.487  0.00  0.00    +0.000 N 
ATOM     10  C   UNL     1      47.328   1.487   6.972  0.00  0.00    +0.000 C 
ATOM     11  O   UNL     1      47.121   0.299   6.774  0.00  0.00    +0.000 OA
ATOM     12  H   UNL     1      49.119   1.605   5.952  0.00  0.00    +0.000 HD
ATOM     13  H   UNL     1      48.582   3.108   6.684  0.00  0.00    +0.000 HD
ENDBRANCH   3  10
ENDBRANCH   1   6
BRANCH   1  14
ATOM     14  C   UNL     1      43.593   4.588  11.189  0.00  0.00    +0.000 C 
BRANCH  14  15
ATOM     15  C   UNL     1      44.871   4.896  11.931  0.00  0.00    +0.000 A 
ATOM     16  C   UNL     1      45.442   3.955  12.797  0.00  0.00    +0.000 A 
ATOM     17  C   UNL     1      46.601   4.263  13.507  0.00  0.00    +0.000 A 
ATOM     18  C   UNL     1      47.209   5.511  13.356  0.00  0.00    +0.000 A 
ATOM     19  C   UNL     1      46.662   6.467  12.490  0.00  0.00    +0.000 A 
ATOM     20  C   UNL     1      45.482   6.154  11.797  0.00  0.00    +0.000 A 
BRANCH  19  21
ATOM     21  C   UNL     1      47.321   7.808  12.280  0.00  0.00    +0.000 C 
ATOM     22  F   UNL     1      48.340   7.776  11.375  0.00  0.00    +0.000 F 
ATOM     23  F   UNL     1      46.452   8.752  11.824  0.00  0.00    +0.000 F 
ATOM     24  F   UNL     1      47.858   8.315  13.424  0.00  0.00    +0.000 F 
ENDBRANCH  19  21
ENDBRANCH  14  15
ENDBRANCH   1  14
TORSDOF 5
ENDMDL
MODEL 2
REMARK VINA RESULT:    -8.020      1.842      2.486
REMARK INTER + INTRA:         -10.960
REMARK INTER:                 -10.402
REMARK INTRA:                  -0.558
REMARK UNBOUND:                -0.596
REMARK  Name = 
REMARK  5 active torsions:
REMARK  status: ('A' for Active; 'I' for Inactive)
REMARK    1  A    between atoms: C_2  and  C_4
REMARK    2  A    between atoms: C_7  and  N_8
REMARK    3  A    between atoms: N_8  and  C_9
REMARK    4  A    between atoms: C_9  and  C_10
REMARK    5  A    between atoms: C_14  and  C_15
REMARK                            x       y       z     vdW  Elec       q    Type
REMARK                         _______ _______ _______ _____ _____    ______ ____
ROOT
ATOM      1  N   UNL     1      43.808   4.825   9.742  0.00  0.00    +0.000 N 
ATOM      2  H   UNL     1      43.986   5.774   9.422  0.00  0.00    +0.000 HD
ENDROOT
BRANCH   1   6
ATOM      3  C   UNL     1      46.405   2.316   7.813  0.00  0.00    +0.000 A 
ATOM      4  C   UNL     1      46.390   3.680   7.580  0.00  0.00    +0.000 A 
ATOM      5  N   UNL     1      45.546   4.518   8.237  0.00  0.00    +0.000 NA
ATOM      6  C   UNL     1      44.680   3.955   9.107  0.00  0.00    +0.000 A 
ATOM      7  C   UNL     1      44.742   2.579   9.354  0.00  0.00    +0.000 A 
ATOM      8  N   UNL     1      45.583   1.724   8.723  0.00  0.00    +0.000 NA
BRANCH   3  10
ATOM      9  N   UNL     1      48.425   2.059   6.519  0.00  0.00    +0.000 N 
ATOM     10  C   UNL     1      47.331   1.433   7.057  0.00  0.00    +0.000 C 
ATOM     11  O   UNL     1      47.138   0.233   6.925  0.00  0.00    +0.000 OA
ATOM     12  H   UNL     1      49.101   1.523   6.000  0.00  0.00    +0.000 HD
ATOM     13  H   UNL     1      48.555   3.054   6.663  0.00  0.00    +0.000 HD
ENDBRANCH   3  10
ENDBRANCH   1   6
BRANCH   1  14
ATOM     14  C   UNL     1      43.664   4.729  11.184  0.00  0.00    +0.000 C 
BRANCH  14  15
ATOM     15  C   UNL     1      44.896   5.286  11.853  0.00  0.00    +0.000 A 
ATOM     16  C   UNL     1      45.540   6.419  11.340  0.00  0.00    +0.000 A 
ATOM     17  C   UNL     1      46.700   6.904  11.942  0.00  0.00    +0.000 A 
ATOM     18  C   UNL     1      47.227   6.268  13.068  0.00  0.00    +0.000 A 
ATOM     19  C   UNL     1      46.599   5.138  13.605  0.00  0.00    +0.000 A 
ATOM     20  C   UNL     1      45.443   4.645  12.977  0.00  0.00    +0.000 A 
BRANCH  19  21
ATOM     21  C   UNL     1      47.127   4.456  14.843  0.00  0.00    +0.000 C 
ATOM     22  F   UNL     1      48.171   5.114  15.422  0.00  0.00    +0.000 F 
ATOM     23  F   UNL     1      46.182   4.332  15.816  0.00  0.00    +0.000 F 
ATOM     24  F   UNL     1      47.577   3.194  14.596  0.00  0.00    +0.000 F 
ENDBRANCH  19  21
ENDBRANCH  14  15
ENDBRANCH   1  14
TORSDOF 5
ENDMDL
MODEL 3
REMARK VINA RESULT:    -7.776      1.133      1.552
REMARK INTER + INTRA:         -10.644
REMARK INTER:                 -10.045
REMARK INTRA:                  -0.599
REMARK UNBOUND:                -0.596
REMARK  Name = 
REMARK  5 active torsions:
REMARK  status: ('A' for Active; 'I' for Inactive)
REMARK    1  A    between atoms: C_2  and  C_4
REMARK    2  A    between atoms: C_7  and  N_8
REMARK    3  A    between atoms: N_8  and  C_9
REMARK    4  A    between atoms: C_9  and  C_10
REMARK    5  A    between atoms: C_14  and  C_15
REMARK                            x       y       z     vdW  Elec       q    Type
REMARK                         _______ _______ _______ _____ _____    ______ ____
ROOT
ATOM      1  N   UNL     1      43.730   4.723   9.690  0.00  0.00    +0.000 N 
ATOM      2  H   UNL     1      43.857   5.673   9.352  0.00  0.00    +0.000 HD
ENDROOT
BRANCH   1   6
ATOM      3  C   UNL     1      46.387   2.303   7.730  0.00  0.00    +0.000 A 
ATOM      4  C   UNL     1      46.325   3.665   7.498  0.00  0.00    +0.000 A 
ATOM      5  N   UNL     1      45.461   4.474   8.166  0.00  0.00    +0.000 NA
ATOM      6  C   UNL     1      44.624   3.883   9.045  0.00  0.00    +0.000 A 
ATOM      7  C   UNL     1      44.733   2.510   9.289  0.00  0.00    +0.000 A 
ATOM      8  N   UNL     1      45.595   1.683   8.648  0.00  0.00    +0.000 NA
BRANCH   3  10
ATOM      9  N   UNL     1      48.439   2.099   6.476  0.00  0.00    +0.000 N 
ATOM     10  C   UNL     1      47.333   1.451   6.962  0.00  0.00    +0.000 C 
ATOM     11  O   UNL     1      47.146   0.257   6.778  0.00  0.00    +0.000 OA
ATOM     12  H   UNL     1      49.128   1.584   5.952  0.00  0.00    +0.000 HD
ATOM     13  H   UNL     1      48.563   3.088   6.661  0.00  0.00    +0.000 HD
ENDBRANCH   3  10
ENDBRANCH   1   6
BRANCH   1  14
ATOM     14  C   UNL     1      43.629   4.643  11.136  0.00  0.00    +0.000 C 
BRANCH  14  15
ATOM     15  C   UNL     1      44.629   5.582  11.765  0.00  0.00    +0.000 A 
ATOM     16  C   UNL     1      45.642   5.095  12.601  0.00  0.00    +0.000 A 
ATOM     17  C   UNL     1      46.539   5.974  13.208  0.00  0.00    +0.000 A 
ATOM     18  C   UNL     1      46.439   7.348  12.983  0.00  0.00    +0.000 A 
ATOM     19  C   UNL     1      45.439   7.860  12.146  0.00  0.00    +0.000 A 
ATOM     20  C   UNL     1      44.529   6.967  11.557  0.00  0.00    +0.000 A 
BRANCH  19  21
ATOM     21  C   UNL     1      45.334   9.337  11.856  0.00  0.00    +0.000 C 
ATOM     22  F   UNL     1      44.734   9.615  10.664  0.00  0.00    +0.000 F 
ATOM     23  F   UNL     1      44.611  10.004  12.798  0.00  0.00    +0.000 F 
ATOM     24  F   UNL     1      46.548   9.951  11.811  0.00  0.00    +0.000 F 
ENDBRANCH  19  21
ENDBRANCH  14  15
ENDBRANCH   1  14
TORSDOF 5
ENDMDL
MODEL 4
REMARK VINA RESULT:    -7.753      4.623      6.787
REMARK INTER + INTRA:         -10.615
REMARK INTER:                 -10.134
REMARK INTRA:                  -0.481
REMARK UNBOUND:                -0.596
REMARK  Name = 
REMARK  5 active torsions:
REMARK  status: ('A' for Active; 'I' for Inactive)
REMARK    1  A    between atoms: C_2  and  C_4
REMARK    2  A    between atoms: C_7  and  N_8
REMARK    3  A    between atoms: N_8  and  C_9
REMARK    4  A    between atoms: C_9  and  C_10
REMARK    5  A    between atoms: C_14  and  C_15
REMARK                            x       y       z     vdW  Elec       q    Type
REMARK                         _______ _______ _______ _____ _____    ______ ____
ROOT
ATOM      1  N   UNL     1      44.435   2.694  11.928  0.00  0.00    +0.000 N 
ATOM      2  H   UNL     1      44.913   1.809  11.780  0.00  0.00    +0.000 HD
ENDROOT
BRANCH   1   6
ATOM      3  C   UNL     1      46.956   5.197  13.963  0.00  0.00    +0.000 A 
ATOM      4  C   UNL     1      47.163   3.830  13.907  0.00  0.00    +0.000 A 
ATOM      5  N   UNL     1      46.342   3.001  13.212  0.00  0.00    +0.000 NA
ATOM      6  C   UNL     1      45.276   3.564  12.604  0.00  0.00    +0.000 A 
ATOM      7  C   UNL     1      45.110   4.953  12.642  0.00  0.00    +0.000 A 
ATOM      8  N   UNL     1      45.922   5.804  13.316  0.00  0.00    +0.000 NA
BRANCH   3  10
ATOM      9  N   UNL     1      47.819   7.399  14.438  0.00  0.00    +0.000 N 
ATOM     10  C   UNL     1      47.867   6.066  14.753  0.00  0.00    +0.000 C 
ATOM     11  O   UNL     1      48.604   5.630  15.624  0.00  0.00    +0.000 OA
ATOM     12  H   UNL     1      48.403   8.050  14.937  0.00  0.00    +0.000 HD
ATOM     13  H   UNL     1      47.184   7.722  13.717  0.00  0.00    +0.000 HD
ENDBRANCH   3  10
ENDBRANCH   1   6
BRANCH   1  14
ATOM     14  C   UNL     1      43.754   3.177  10.739  0.00  0.00    +0.000 C 
BRANCH  14  15
ATOM     15  C   UNL     1      44.745   3.312   9.609  0.00  0.00    +0.000 A 
ATOM     16  C   UNL     1      45.084   4.571   9.099  0.00  0.00    +0.000 A 
ATOM     17  C   UNL     1      45.971   4.683   8.029  0.00  0.00    +0.000 A 
ATOM     18  C   UNL     1      46.536   3.539   7.460  0.00  0.00    +0.000 A 
ATOM     19  C   UNL     1      46.219   2.269   7.957  0.00  0.00    +0.000 A 
ATOM     20  C   UNL     1      45.308   2.167   9.020  0.00  0.00    +0.000 A 
BRANCH  19  21
ATOM     21  C   UNL     1      46.845   1.021   7.385  0.00  0.00    +0.000 C 
ATOM     22  F   UNL     1      48.198   0.971   7.544  0.00  0.00    +0.000 F 
ATOM     23  F   UNL     1      46.364  -0.116   7.960  0.00  0.00    +0.000 F 
ATOM     24  F   UNL     1      46.624   0.887   6.048  0.00  0.00    +0.000 F 
ENDBRANCH  19  21
ENDBRANCH  14  15
ENDBRANCH   1  14
TORSDOF 5
ENDMDL
MODEL 5
REMARK VINA RESULT:    -7.631      1.139      1.549
REMARK INTER + INTRA:         -10.458
REMARK INTER:                  -9.838
REMARK INTRA:                  -0.620
REMARK UNBOUND:                -0.596
REMARK  Name = 
REMARK  5 active torsions:
REMARK  status: ('A' for Active; 'I' for Inactive)
REMARK    1  A    between atoms: C_2  and  C_4
REMARK    2  A    between atoms: C_7  and  N_8
REMARK    3  A    between atoms: N_8  and  C_9
REMARK    4  A    between atoms: C_9  and  C_10
REMARK    5  A    between atoms: C_14  and  C_15
REMARK                            x       y       z     vdW  Elec       q    Type
REMARK                         _______ _______ _______ _____ _____    ______ ____
ROOT
ATOM      1  N   UNL     1      43.741   3.706  10.465  0.00  0.00    +0.000 N 
ATOM      2  H   UNL     1      43.459   4.678  10.368  0.00  0.00    +0.000 HD
ENDROOT
BRANCH   1   6
ATOM      3  C   UNL     1      46.470   2.706   7.582  0.00  0.00    +0.000 A 
ATOM      4  C   UNL     1      45.862   1.754   8.381  0.00  0.00    +0.000 A 
ATOM      5  N   UNL     1      44.937   2.082   9.322  0.00  0.00    +0.000 NA
ATOM      6  C   UNL     1      44.662   3.394   9.479  0.00  0.00    +0.000 A 
ATOM      7  C   UNL     1      45.261   4.334   8.632  0.00  0.00    +0.000 A 
ATOM      8  N   UNL     1      46.175   4.033   7.677  0.00  0.00    +0.000 NA
BRANCH   3  10
ATOM      9  N   UNL     1      47.363   2.899   5.349  0.00  0.00    +0.000 N 
ATOM     10  C   UNL     1      47.492   2.307   6.579  0.00  0.00    +0.000 C 
ATOM     11  O   UNL     1      48.387   1.513   6.829  0.00  0.00    +0.000 OA
ATOM     12  H   UNL     1      48.025   2.683   4.621  0.00  0.00    +0.000 HD
ATOM     13  H   UNL     1      46.614   3.562   5.187  0.00  0.00    +0.000 HD
ENDBRANCH   3  10
ENDBRANCH   1   6
BRANCH   1  14
ATOM     14  C   UNL     1      44.045   3.337  11.837  0.00  0.00    +0.000 C 
BRANCH  14  15
ATOM     15  C   UNL     1      45.103   4.263  12.386  0.00  0.00    +0.000 A 
ATOM     16  C   UNL     1      46.179   3.762  13.128  0.00  0.00    +0.000 A 
ATOM     17  C   UNL     1      47.131   4.629  13.664  0.00  0.00    +0.000 A 
ATOM     18  C   UNL     1      47.024   6.005  13.458  0.00  0.00    +0.000 A 
ATOM     19  C   UNL     1      45.961   6.532  12.713  0.00  0.00    +0.000 A 
ATOM     20  C   UNL     1      44.997   5.651  12.197  0.00  0.00    +0.000 A 
BRANCH  19  21
ATOM     21  C   UNL     1      45.844   8.012  12.444  0.00  0.00    +0.000 C 
ATOM     22  F   UNL     1      46.921   8.531  11.788  0.00  0.00    +0.000 F 
ATOM     23  F   UNL     1      44.761   8.320  11.678  0.00  0.00    +0.000 F 
ATOM     24  F   UNL     1      45.717   8.744  13.585  0.00  0.00    +0.000 F 
ENDBRANCH  19  21
ENDBRANCH  14  15
ENDBRANCH   1  14
TORSDOF 5
ENDMDL
MODEL 6
REMARK VINA RESULT:    -7.600      1.212      1.995
REMARK INTER + INTRA:         -10.417
REMARK INTER:                  -9.795
REMARK INTRA:                  -0.621
REMARK UNBOUND:                -0.596
REMARK  Name = 
REMARK  5 active torsions:
REMARK  status: ('A' for Active; 'I' for Inactive)
REMARK    1  A    between atoms: C_2  and  C_4
REMARK    2  A    between atoms: C_7  and  N_8
REMARK    3  A    between atoms: N_8  and  C_9
REMARK    4  A    between atoms: C_9  and  C_10
REMARK    5  A    between atoms: C_14  and  C_15
REMARK                            x       y       z     vdW  Elec       q    Type
REMARK                         _______ _______ _______ _____ _____    ______ ____
ROOT
ATOM      1  N   UNL     1      43.915   4.881   9.806  0.00  0.00    +0.000 N 
ATOM      2  H   UNL     1      43.920   5.803   9.379  0.00  0.00    +0.000 HD
ENDROOT
BRANCH   1   6
ATOM      3  C   UNL     1      46.512   2.496   7.726  0.00  0.00    +0.000 A 
ATOM      4  C   UNL     1      46.495   3.871   7.576  0.00  0.00    +0.000 A 
ATOM      5  N   UNL     1      45.651   4.667   8.284  0.00  0.00    +0.000 NA
ATOM      6  C   UNL     1      44.787   4.052   9.119  0.00  0.00    +0.000 A 
ATOM      7  C   UNL     1      44.850   2.664   9.283  0.00  0.00    +0.000 A 
ATOM      8  N   UNL     1      45.692   1.848   8.600  0.00  0.00    +0.000 NA
BRANCH   3  10
ATOM      9  N   UNL     1      48.507   2.328   6.381  0.00  0.00    +0.000 N 
ATOM     10  C   UNL     1      47.437   1.660   6.917  0.00  0.00    +0.000 C 
ATOM     11  O   UNL     1      47.264   0.463   6.742  0.00  0.00    +0.000 OA
ATOM     12  H   UNL     1      49.182   1.825   5.827  0.00  0.00    +0.000 HD
ATOM     13  H   UNL     1      48.622   3.319   6.560  0.00  0.00    +0.000 HD
ENDBRANCH   3  10
ENDBRANCH   1   6
BRANCH   1  14
ATOM     14  C   UNL     1      44.001   4.925  11.256  0.00  0.00    +0.000 C 
BRANCH  14  15
ATOM     15  C   UNL     1      44.815   6.124  11.677  0.00  0.00    +0.000 A 
ATOM     16  C   UNL     1      44.354   7.424  11.436  0.00  0.00    +0.000 A 
ATOM     17  C   UNL     1      45.130   8.526  11.794  0.00  0.00    +0.000 A 
ATOM     18  C   UNL     1      46.373   8.342  12.404  0.00  0.00    +0.000 A 
ATOM     19  C   UNL     1      46.854   7.053  12.663  0.00  0.00    +0.000 A 
ATOM     20  C   UNL     1      46.073   5.951  12.278  0.00  0.00    +0.000 A 
BRANCH  19  21
ATOM     21  C   UNL     1      48.175   6.829  13.355  0.00  0.00    +0.000 C 
ATOM     22  F   UNL     1      48.775   7.982  13.765  0.00  0.00    +0.000 F 
ATOM     23  F   UNL     1      48.058   6.056  14.470  0.00  0.00    +0.000 F 
ATOM     24  F   UNL     1      49.085   6.202  12.559  0.00  0.00    +0.000 F 
ENDBRANCH  19  21
ENDBRANCH  14  15
ENDBRANCH   1  14
TORSDOF 5
ENDMDL
MODEL 7
REMARK VINA RESULT:    -7.545      4.076      6.311
REMARK INTER + INTRA:         -10.346
REMARK INTER:                  -9.819
REMARK INTRA:                  -0.527
REMARK UNBOUND:                -0.596
REMARK  Name = 
REMARK  5 active torsions:
REMARK  status: ('A' for Active; 'I' for Inactive)
REMARK    1  A    between atoms: C_2  and  C_4
REMARK    2  A    between atoms: C_7  and  N_8
REMARK    3  A    between atoms: N_8  and  C_9
REMARK    4  A    between atoms: C_9  and  C_10
REMARK    5  A    between atoms: C_14  and  C_15
REMARK                            x       y       z     vdW  Elec       q    Type
REMARK                         _______ _______ _______ _____ _____    ______ ____
ROOT
ATOM      1  N   UNL     1      44.870   5.880  10.520  0.00  0.00    +0.000 N 
ATOM      2  H   UNL     1      44.587   6.854  10.579  0.00  0.00    +0.000 HD
ENDROOT
BRANCH   1   6
ATOM      3  C   UNL     1      46.628   4.769  14.047  0.00  0.00    +0.000 A 
ATOM      4  C   UNL     1      47.251   5.619  13.150  0.00  0.00    +0.000 A 
ATOM      5  N   UNL     1      46.659   6.008  11.990  0.00  0.00    +0.000 NA
ATOM      6  C   UNL     1      45.440   5.493  11.722  0.00  0.00    +0.000 A 
ATOM      7  C   UNL     1      44.815   4.667  12.663  0.00  0.00    +0.000 A 
ATOM      8  N   UNL     1      45.377   4.275  13.833  0.00  0.00    +0.000 NA
BRANCH   3  10
ATOM      9  N   UNL     1      47.564   5.359  16.191  0.00  0.00    +0.000 N 
ATOM     10  C   UNL     1      47.320   4.351  15.294  0.00  0.00    +0.000 C 
ATOM     11  O   UNL     1      47.646   3.193  15.512  0.00  0.00    +0.000 OA
ATOM     12  H   UNL     1      48.022   5.149  17.063  0.00  0.00    +0.000 HD
ATOM     13  H   UNL     1      47.265   6.304  15.978  0.00  0.00    +0.000 HD
ENDBRANCH   3  10
ENDBRANCH   1   6
BRANCH   1  14
ATOM     14  C   UNL     1      43.852   5.027   9.933  0.00  0.00    +0.000 C 
BRANCH  14  15
ATOM     15  C   UNL     1      44.508   3.834   9.281  0.00  0.00    +0.000 A 
ATOM     16  C   UNL     1      44.280   2.538   9.762  0.00  0.00    +0.000 A 
ATOM     17  C   UNL     1      44.920   1.446   9.177  0.00  0.00    +0.000 A 
ATOM     18  C   UNL     1      45.790   1.633   8.101  0.00  0.00    +0.000 A 
ATOM     19  C   UNL     1      46.029   2.918   7.596  0.00  0.00    +0.000 A 
ATOM     20  C   UNL     1      45.395   4.012   8.207  0.00  0.00    +0.000 A 
BRANCH  19  21
ATOM     21  C   UNL     1      46.934   3.142   6.410  0.00  0.00    +0.000 C 
ATOM     22  F   UNL     1      48.236   2.820   6.652  0.00  0.00    +0.000 F 
ATOM     23  F   UNL     1      46.567   2.405   5.325  0.00  0.00    +0.000 F 
ATOM     24  F   UNL     1      46.945   4.439   5.995  0.00  0.00    +0.000 F 
ENDBRANCH  19  21
ENDBRANCH  14  15
ENDBRANCH   1  14
TORSDOF 5
ENDMDL
MODEL 8
REMARK VINA RESULT:    -6.893      4.754      6.828
REMARK INTER + INTRA:          -9.504
REMARK INTER:                  -9.159
REMARK INTRA:                  -0.345
REMARK UNBOUND:                -0.596
REMARK  Name = 
REMARK  5 active torsions:
REMARK  status: ('A' for Active; 'I' for Inactive)
REMARK    1  A    between atoms: C_2  and  C_4
REMARK    2  A    between atoms: C_7  and  N_8
REMARK    3  A    between atoms: N_8  and  C_9
REMARK    4  A    between atoms: C_9  and  C_10
REMARK    5  A    between atoms: C_14  and  C_15
REMARK                            x       y       z     vdW  Elec       q    Type
REMARK                         _______ _______ _______ _____ _____    ______ ____
ROOT
ATOM      1  N   UNL     1      47.579   6.432  12.364  0.00  0.00    +0.000 N 
ATOM      2  H   UNL     1      48.434   6.980  12.341  0.00  0.00    +0.000 HD
ENDROOT
BRANCH   1   6
ATOM      3  C   UNL     1      47.372   4.533  15.985  0.00  0.00    +0.000 A 
ATOM      4  C   UNL     1      48.232   5.593  15.758  0.00  0.00    +0.000 A 
ATOM      5  N   UNL     1      48.284   6.240  14.565  0.00  0.00    +0.000 NA
ATOM      6  C   UNL     1      47.485   5.776  13.581  0.00  0.00    +0.000 A 
ATOM      7  C   UNL     1      46.596   4.729  13.847  0.00  0.00    +0.000 A 
ATOM      8  N   UNL     1      46.513   4.075  15.032  0.00  0.00    +0.000 NA
BRANCH   3  10
ATOM      9  N   UNL     1      48.145   4.412  18.267  0.00  0.00    +0.000 N 
ATOM     10  C   UNL     1      47.361   3.839  17.299  0.00  0.00    +0.000 C 
ATOM     11  O   UNL     1      46.700   2.833  17.509  0.00  0.00    +0.000 OA
ATOM     12  H   UNL     1      48.181   4.001  19.186  0.00  0.00    +0.000 HD
ATOM     13  H   UNL     1      48.668   5.254  18.056  0.00  0.00    +0.000 HD
ENDBRANCH   3  10
ENDBRANCH   1   6
BRANCH   1  14
ATOM     14  C   UNL     1      46.421   7.165  11.884  0.00  0.00    +0.000 C 
BRANCH  14  15
ATOM     15  C   UNL     1      45.487   6.222  11.165  0.00  0.00    +0.000 A 
ATOM     16  C   UNL     1      44.154   6.085  11.571  0.00  0.00    +0.000 A 
ATOM     17  C   UNL     1      43.309   5.183  10.926  0.00  0.00    +0.000 A 
ATOM     18  C   UNL     1      43.784   4.411   9.863  0.00  0.00    +0.000 A 
ATOM     19  C   UNL     1      45.111   4.535   9.433  0.00  0.00    +0.000 A 
ATOM     20  C   UNL     1      45.958   5.431  10.104  0.00  0.00    +0.000 A 
BRANCH  19  21
ATOM     21  C   UNL     1      45.637   3.741   8.262  0.00  0.00    +0.000 C 
ATOM     22  F   UNL     1      46.716   4.315   7.658  0.00  0.00    +0.000 F 
ATOM     23  F   UNL     1      46.036   2.488   8.617  0.00  0.00    +0.000 F 
ATOM     24  F   UNL     1      44.708   3.574   7.281  0.00  0.00    +0.000 F 
ENDBRANCH  19  21
ENDBRANCH  14  15
ENDBRANCH   1  14
TORSDOF 5
ENDMDL
MODEL 9
REMARK VINA RESULT:    -6.805      4.307      6.174
REMARK INTER + INTRA:          -9.390
REMARK INTER:                  -8.730
REMARK INTRA:                  -0.659
REMARK UNBOUND:                -0.596
REMARK  Name = 
REMARK  5 active torsions:
REMARK  status: ('A' for Active; 'I' for Inactive)
REMARK    1  A    between atoms: C_2  and  C_4
REMARK    2  A    between atoms: C_7  and  N_8
REMARK    3  A    between atoms: N_8  and  C_9
REMARK    4  A    between atoms: C_9  and  C_10
REMARK    5  A    between atoms: C_14  and  C_15
REMARK                            x       y       z     vdW  Elec       q    Type
REMARK                         _______ _______ _______ _____ _____    ______ ____
ROOT
ATOM      1  N   UNL     1      44.215   6.123  12.744  0.00  0.00    +0.000 N 
ATOM      2  H   UNL     1      43.927   5.285  13.243  0.00  0.00    +0.000 HD
ENDROOT
BRANCH   1   6
ATOM      3  C   UNL     1      48.150   6.961  13.501  0.00  0.00    +0.000 A 
ATOM      4  C   UNL     1      47.239   7.947  13.167  0.00  0.00    +0.000 A 
ATOM      5  N   UNL     1      45.927   7.674  12.940  0.00  0.00    +0.000 NA
ATOM      6  C   UNL     1      45.550   6.380  13.011  0.00  0.00    +0.000 A 
ATOM      7  C   UNL     1      46.481   5.407  13.389  0.00  0.00    +0.000 A 
ATOM      8  N   UNL     1      47.792   5.653  13.635  0.00  0.00    +0.000 NA
BRANCH   3  10
ATOM      9  N   UNL     1      50.322   7.466  12.580  0.00  0.00    +0.000 N 
ATOM     10  C   UNL     1      49.580   7.299  13.721  0.00  0.00    +0.000 C 
ATOM     11  O   UNL     1      50.065   7.426  14.836  0.00  0.00    +0.000 OA
ATOM     12  H   UNL     1      51.298   7.705  12.651  0.00  0.00    +0.000 HD
ATOM     13  H   UNL     1      49.879   7.365  11.674  0.00  0.00    +0.000 HD
ENDBRANCH   3  10
ENDBRANCH   1   6
BRANCH   1  14
ATOM     14  C   UNL     1      43.771   6.142  11.362  0.00  0.00    +0.000 C 
BRANCH  14  15
ATOM     15  C   UNL     1      44.086   4.817  10.712  0.00  0.00    +0.000 A 
ATOM     16  C   UNL     1      43.558   3.624  11.222  0.00  0.00    +0.000 A 
ATOM     17  C   UNL     1      43.886   2.401  10.638  0.00  0.00    +0.000 A 
ATOM     18  C   UNL     1      44.738   2.355   9.533  0.00  0.00    +0.000 A 
ATOM     19  C   UNL     1      45.273   3.534   8.998  0.00  0.00    +0.000 A 
ATOM     20  C   UNL     1      44.953   4.758   9.608  0.00  0.00    +0.000 A 
BRANCH  19  21
ATOM     21  C   UNL     1      46.164   3.514   7.782  0.00  0.00    +0.000 C 
ATOM     22  F   UNL     1      47.041   2.470   7.769  0.00  0.00    +0.000 F 
ATOM     23  F   UNL     1      45.461   3.420   6.619  0.00  0.00    +0.000 F 
ATOM     24  F   UNL     1      46.926   4.637   7.669  0.00  0.00    +0.000 F 
ENDBRANCH  19  21
ENDBRANCH  14  15
ENDBRANCH   1  14
TORSDOF 5
ENDMDL
