MODEL 1
REMARK VINA RESULT:    -8.208      0.000      0.000
REMARK INTER + INTRA:         -11.745
REMARK INTER:                 -11.087
REMARK INTRA:                  -0.658
REMARK UNBOUND:                -0.658
REMARK  Name = 
REMARK  6 active torsions:
REMARK  status: ('A' for Active; 'I' for Inactive)
REMARK    1  A    between atoms: C_2  and  C_3
REMARK    2  A    between atoms: C_6  and  O_7
REMARK    3  A    between atoms: O_7  and  C_8
REMARK    4  A    between atoms: C_11  and  C_12
REMARK    5  A    between atoms: C_12  and  N_13
REMARK    6  A    between atoms: C_14  and  C_16
REMARK                            x       y       z     vdW  Elec       q    Type
REMARK                         _______ _______ _______ _____ _____    ______ ____
ROOT
ATOM      1  C   UNL     1      47.261   8.314  13.713  0.00  0.00    +0.000 C 
ENDROOT
BRANCH   1   5
ATOM      2  C   UNL     1      44.868   5.848  11.101  0.00  0.00    +0.000 A 
ATOM      3  C   UNL     1      44.456   7.145  11.410  0.00  0.00    +0.000 A 
ATOM      4  C   UNL     1      45.237   7.948  12.246  0.00  0.00    +0.000 A 
ATOM      5  C   UNL     1      46.409   7.445  12.824  0.00  0.00    +0.000 A 
ATOM      6  C   UNL     1      46.746   6.102  12.610  0.00  0.00    +0.000 A 
ATOM      7  C   UNL     1      45.983   5.311  11.745  0.00  0.00    +0.000 A 
BRANCH   2   8
ATOM      8  O   UNL     1      44.206   5.008  10.235  0.00  0.00    +0.000 OA
BRANCH   8  12
ATOM      9  C   UNL     1      46.461   2.694   7.686  0.00  0.00    +0.000 A 
ATOM     10  C   UNL     1      45.681   2.018   8.617  0.00  0.00    +0.000 A 
ATOM     11  C   UNL     1      44.876   2.763   9.479  0.00  0.00    +0.000 A 
ATOM     12  C   UNL     1      44.915   4.156   9.426  0.00  0.00    +0.000 A 
ATOM     13  C   UNL     1      45.699   4.739   8.437  0.00  0.00    +0.000 A 
ATOM     14  N   UNL     1      46.475   4.044   7.569  0.00  0.00    +0.000 NA
BRANCH   9  16
ATOM     15  N   UNL     1      48.016   1.425   6.035  0.00  0.00    +0.000 NA
ATOM     16  C   UNL     1      47.310   1.970   6.779  0.00  0.00    +0.000 C 
ENDBRANCH   9  16
ENDBRANCH   8  12
ENDBRANCH   2   8
ENDBRANCH   1   5
BRANCH   1  17
ATOM     17  N   UNL     1      47.712   7.573  14.858  0.00  0.00    +0.000 N 
ATOM     18  C   UNL     1      48.949   6.991  14.905  0.00  0.00    +0.000 C 
ATOM     19  O   UNL     1      49.769   7.116  13.998  0.00  0.00    +0.000 OA
ATOM     20  H   UNL     1      46.991   7.254  15.496  0.00  0.00    +0.000 HD
BRANCH  18  21
ATOM     21  C   UNL     1      49.269   6.269  16.143  0.00  0.00    +0.000 A 
ATOM     22  C   UNL     1      50.311   6.702  16.951  0.00  0.00    +0.000 A 
ATOM     23  S   UNL     1      50.467   5.810  18.397  0.00  0.00    +0.000 S 
ATOM     24  C   UNL     1      49.186   4.776  17.963  0.00  0.00    +0.000 A 
ATOM     25  N   UNL     1      48.787   3.767  18.784  0.00  0.00    +0.000 NA
ATOM     26  C   UNL     1      47.822   3.047  18.318  0.00  0.00    +0.000 A 
ATOM     27  N   UNL     1      47.223   3.240  17.101  0.00  0.00    +0.000 N 
ATOM     28  C   UNL     1      47.577   4.257  16.249  0.00  0.00    +0.000 A 
ATOM     29  O   UNL     1      47.000   4.416  15.177  0.00  0.00    +0.000 OA
ATOM     30  C   UNL     1      48.649   5.106  16.734  0.00  0.00    +0.000 A 
ATOM     31  H   UNL     1      46.470   2.640  16.794  0.00  0.00    +0.000 HD
ENDBRANCH  18  21
ENDBRANCH   1  17
TORSDOF 6
ENDMDL
MODEL 2
REMARK VINA RESULT:    -7.513      2.011      2.853
REMARK INTER + INTRA:         -10.806
REMARK INTER:                  -9.996
REMARK INTRA:                  -0.810
REMARK UNBOUND:                -0.658
REMARK  Name = 
REMARK  6 active torsions:
REMARK  status: ('A' for Active; 'I' for Inactive)
REMARK    1  A    between atoms: C_2  and  C_3
REMARK    2  A    between atoms: C_6  and  O_7
REMARK    3  A    between atoms: O_7  and  C_8
REMARK    4  A    between atoms: C_11  and  C_12
REMARK    5  A    between atoms: C_12  and  N_13
REMARK    6  A    between atoms: C_14  and  C_16
REMARK                            x       y       z     vdW  Elec       q    Type
REMARK                         _______ _______ _______ _____ _____    ______ ____
ROOT
ATOM      1  C   UNL     1      46.864   8.231  13.607  0.00  0.00    +0.000 C 
ENDROOT
BRANCH   1   5
ATOM      2  C   UNL     1      44.728   5.431  11.111  0.00  0.00    +0.000 A 
ATOM      3  C   UNL     1      44.341   6.772  11.148  0.00  0.00    +0.000 A 
ATOM      4  C   UNL     1      45.041   7.681  11.946  0.00  0.00    +0.000 A 
ATOM      5  C   UNL     1      46.098   7.250  12.757  0.00  0.00    +0.000 A 
ATOM      6  C   UNL     1      46.396   5.881  12.809  0.00  0.00    +0.000 A 
ATOM      7  C   UNL     1      45.719   4.979  11.983  0.00  0.00    +0.000 A 
BRANCH   2   8
ATOM      8  O   UNL     1      44.149   4.478  10.305  0.00  0.00    +0.000 OA
BRANCH   8  12
ATOM      9  C   UNL     1      46.557   2.594   7.550  0.00  0.00    +0.000 A 
ATOM     10  C   UNL     1      45.889   1.778   8.455  0.00  0.00    +0.000 A 
ATOM     11  C   UNL     1      45.036   2.373   9.386  0.00  0.00    +0.000 A 
ATOM     12  C   UNL     1      44.920   3.762   9.423  0.00  0.00    +0.000 A 
ATOM     13  C   UNL     1      45.600   4.489   8.453  0.00  0.00    +0.000 A 
ATOM     14  N   UNL     1      46.417   3.942   7.520  0.00  0.00    +0.000 NA
BRANCH   9  16
ATOM     15  N   UNL     1      48.204   1.584   5.812  0.00  0.00    +0.000 NA
ATOM     16  C   UNL     1      47.448   2.027   6.574  0.00  0.00    +0.000 C 
ENDBRANCH   9  16
ENDBRANCH   8  12
ENDBRANCH   2   8
ENDBRANCH   1   5
BRANCH   1  17
ATOM     17  N   UNL     1      47.858   7.550  14.390  0.00  0.00    +0.000 N 
ATOM     18  C   UNL     1      48.458   8.137  15.470  0.00  0.00    +0.000 C 
ATOM     19  O   UNL     1      48.142   9.254  15.870  0.00  0.00    +0.000 OA
ATOM     20  H   UNL     1      48.302   6.750  13.950  0.00  0.00    +0.000 HD
BRANCH  18  21
ATOM     21  C   UNL     1      49.452   7.315  16.172  0.00  0.00    +0.000 A 
ATOM     22  C   UNL     1      49.065   6.513  17.236  0.00  0.00    +0.000 A 
ATOM     23  S   UNL     1      50.329   5.551  17.859  0.00  0.00    +0.000 S 
ATOM     24  C   UNL     1      51.451   6.219  16.767  0.00  0.00    +0.000 A 
ATOM     25  N   UNL     1      52.751   5.817  16.760  0.00  0.00    +0.000 NA
ATOM     26  C   UNL     1      53.494   6.425  15.897  0.00  0.00    +0.000 A 
ATOM     27  N   UNL     1      53.058   7.403  15.043  0.00  0.00    +0.000 N 
ATOM     28  C   UNL     1      51.751   7.825  14.999  0.00  0.00    +0.000 A 
ATOM     29  O   UNL     1      51.390   8.687  14.203  0.00  0.00    +0.000 OA
ATOM     30  C   UNL     1      50.870   7.162  15.941  0.00  0.00    +0.000 A 
ATOM     31  H   UNL     1      53.691   7.840  14.390  0.00  0.00    +0.000 HD
ENDBRANCH  18  21
ENDBRANCH   1  17
TORSDOF 6
ENDMDL
MODEL 3
REMARK VINA RESULT:    -7.408      2.245      3.864
REMARK INTER + INTRA:         -10.664
REMARK INTER:                  -9.689
REMARK INTRA:                  -0.976
REMARK UNBOUND:                -0.658
REMARK  Name = 
REMARK  6 active torsions:
REMARK  status: ('A' for Active; 'I' for Inactive)
REMARK    1  A    between atoms: C_2  and  C_3
REMARK    2  A    between atoms: C_6  and  O_7
REMARK    3  A    between atoms: O_7  and  C_8
REMARK    4  A    between atoms: C_11  and  C_12
REMARK    5  A    between atoms: C_12  and  N_13
REMARK    6  A    between atoms: C_14  and  C_16
REMARK                            x       y       z     vdW  Elec       q    Type
REMARK                         _______ _______ _______ _____ _____    ______ ____
ROOT
ATOM      1  C   UNL     1      47.106   5.086  15.192  0.00  0.00    +0.000 C 
ENDROOT
BRANCH   1   5
ATOM      2  C   UNL     1      45.017   4.345  11.488  0.00  0.00    +0.000 A 
ATOM      3  C   UNL     1      45.048   5.632  12.028  0.00  0.00    +0.000 A 
ATOM      4  C   UNL     1      45.735   5.874  13.221  0.00  0.00    +0.000 A 
ATOM      5  C   UNL     1      46.351   4.825  13.913  0.00  0.00    +0.000 A 
ATOM      6  C   UNL     1      46.206   3.518  13.430  0.00  0.00    +0.000 A 
ATOM      7  C   UNL     1      45.550   3.282  12.218  0.00  0.00    +0.000 A 
BRANCH   2   8
ATOM      8  O   UNL     1      44.429   4.022  10.286  0.00  0.00    +0.000 OA
BRANCH   8  12
ATOM      9  C   UNL     1      46.763   2.641   7.191  0.00  0.00    +0.000 A 
ATOM     10  C   UNL     1      46.174   1.680   8.004  0.00  0.00    +0.000 A 
ATOM     11  C   UNL     1      45.348   2.103   9.046  0.00  0.00    +0.000 A 
ATOM     12  C   UNL     1      45.181   3.468   9.280  0.00  0.00    +0.000 A 
ATOM     13  C   UNL     1      45.782   4.350   8.390  0.00  0.00    +0.000 A 
ATOM     14  N   UNL     1      46.571   3.972   7.355  0.00  0.00    +0.000 NA
BRANCH   9  16
ATOM     15  N   UNL     1      48.299   1.896   5.231  0.00  0.00    +0.000 NA
ATOM     16  C   UNL     1      47.624   2.252   6.107  0.00  0.00    +0.000 C 
ENDBRANCH   9  16
ENDBRANCH   8  12
ENDBRANCH   2   8
ENDBRANCH   1   5
BRANCH   1  17
ATOM     17  N   UNL     1      47.925   6.259  15.062  0.00  0.00    +0.000 N 
ATOM     18  C   UNL     1      49.126   6.381  15.706  0.00  0.00    +0.000 C 
ATOM     19  O   UNL     1      49.602   5.474  16.384  0.00  0.00    +0.000 OA
ATOM     20  H   UNL     1      47.459   7.094  14.722  0.00  0.00    +0.000 HD
BRANCH  18  21
ATOM     21  C   UNL     1      49.850   7.637  15.474  0.00  0.00    +0.000 A 
ATOM     22  C   UNL     1      50.286   8.397  16.549  0.00  0.00    +0.000 A 
ATOM     23  S   UNL     1      51.201   9.763  16.091  0.00  0.00    +0.000 S 
ATOM     24  C   UNL     1      50.991   9.418  14.438  0.00  0.00    +0.000 A 
ATOM     25  N   UNL     1      51.541  10.212  13.478  0.00  0.00    +0.000 NA
ATOM     26  C   UNL     1      51.281   9.846  12.268  0.00  0.00    +0.000 A 
ATOM     27  N   UNL     1      50.516   8.761  11.928  0.00  0.00    +0.000 N 
ATOM     28  C   UNL     1      49.961   7.919  12.860  0.00  0.00    +0.000 A 
ATOM     29  O   UNL     1      49.302   6.941  12.519  0.00  0.00    +0.000 OA
ATOM     30  C   UNL     1      50.236   8.279  14.239  0.00  0.00    +0.000 A 
ATOM     31  H   UNL     1      50.351   8.527  10.960  0.00  0.00    +0.000 HD
ENDBRANCH  18  21
ENDBRANCH   1  17
TORSDOF 6
ENDMDL
MODEL 4
REMARK VINA RESULT:    -7.238      3.787      4.868
REMARK INTER + INTRA:         -10.435
REMARK INTER:                  -9.486
REMARK INTRA:                  -0.949
REMARK UNBOUND:                -0.658
REMARK  Name = 
REMARK  6 active torsions:
REMARK  status: ('A' for Active; 'I' for Inactive)
REMARK    1  A    between atoms: C_2  and  C_3
REMARK    2  A    between atoms: C_6  and  O_7
REMARK    3  A    between atoms: O_7  and  C_8
REMARK    4  A    between atoms: C_11  and  C_12
REMARK    5  A    between atoms: C_12  and  N_13
REMARK    6  A    between atoms: C_14  and  C_16
REMARK                            x       y       z     vdW  Elec       q    Type
REMARK                         _______ _______ _______ _____ _____    ______ ____
ROOT
ATOM      1  C   UNL     1      46.556   8.508  13.351  0.00  0.00    +0.000 C 
ENDROOT
BRANCH   1   5
ATOM      2  C   UNL     1      44.608   5.360  11.133  0.00  0.00    +0.000 A 
ATOM      3  C   UNL     1      44.076   6.650  11.129  0.00  0.00    +0.000 A 
ATOM      4  C   UNL     1      44.714   7.673  11.837  0.00  0.00    +0.000 A 
ATOM      5  C   UNL     1      45.857   7.404  12.599  0.00  0.00    +0.000 A 
ATOM      6  C   UNL     1      46.308   6.082  12.699  0.00  0.00    +0.000 A 
ATOM      7  C   UNL     1      45.691   5.067  11.961  0.00  0.00    +0.000 A 
BRANCH   2   8
ATOM      8  O   UNL     1      44.094   4.306  10.412  0.00  0.00    +0.000 OA
BRANCH   8  12
ATOM      9  C   UNL     1      46.539   2.599   7.576  0.00  0.00    +0.000 A 
ATOM     10  C   UNL     1      45.914   1.731   8.463  0.00  0.00    +0.000 A 
ATOM     11  C   UNL     1      45.050   2.265   9.421  0.00  0.00    +0.000 A 
ATOM     12  C   UNL     1      44.881   3.647   9.501  0.00  0.00    +0.000 A 
ATOM     13  C   UNL     1      45.521   4.428   8.546  0.00  0.00    +0.000 A 
ATOM     14  N   UNL     1      46.347   3.940   7.588  0.00  0.00    +0.000 NA
BRANCH   9  16
ATOM     15  N   UNL     1      48.177   1.653   5.794  0.00  0.00    +0.000 NA
ATOM     16  C   UNL     1      47.439   2.096   6.574  0.00  0.00    +0.000 C 
ENDBRANCH   9  16
ENDBRANCH   8  12
ENDBRANCH   2   8
ENDBRANCH   1   5
BRANCH   1  17
ATOM     17  N   UNL     1      47.765   8.890  12.676  0.00  0.00    +0.000 N 
ATOM     18  C   UNL     1      48.690   9.715  13.255  0.00  0.00    +0.000 C 
ATOM     19  O   UNL     1      48.571  10.129  14.406  0.00  0.00    +0.000 OA
ATOM     20  H   UNL     1      47.772   8.770  11.668  0.00  0.00    +0.000 HD
BRANCH  18  21
ATOM     21  C   UNL     1      49.876  10.014  12.443  0.00  0.00    +0.000 A 
ATOM     22  C   UNL     1      50.344  11.316  12.347  0.00  0.00    +0.000 A 
ATOM     23  S   UNL     1      51.790  11.457  11.452  0.00  0.00    +0.000 S 
ATOM     24  C   UNL     1      51.806   9.790  11.110  0.00  0.00    +0.000 A 
ATOM     25  N   UNL     1      52.804   9.232  10.372  0.00  0.00    +0.000 NA
ATOM     26  C   UNL     1      52.676   7.964  10.170  0.00  0.00    +0.000 A 
ATOM     27  N   UNL     1      51.637   7.201  10.635  0.00  0.00    +0.000 N 
ATOM     28  C   UNL     1      50.620   7.715  11.402  0.00  0.00    +0.000 A 
ATOM     29  O   UNL     1      49.718   6.996  11.823  0.00  0.00    +0.000 OA
ATOM     30  C   UNL     1      50.725   9.137  11.670  0.00  0.00    +0.000 A 
ATOM     31  H   UNL     1      51.595   6.211  10.442  0.00  0.00    +0.000 HD
ENDBRANCH  18  21
ENDBRANCH   1  17
TORSDOF 6
ENDMDL
MODEL 5
REMARK VINA RESULT:    -7.145      2.687      3.563
REMARK INTER + INTRA:         -10.310
REMARK INTER:                  -9.361
REMARK INTRA:                  -0.949
REMARK UNBOUND:                -0.658
REMARK  Name = 
REMARK  6 active torsions:
REMARK  status: ('A' for Active; 'I' for Inactive)
REMARK    1  A    between atoms: C_2  and  C_3
REMARK    2  A    between atoms: C_6  and  O_7
REMARK    3  A    between atoms: O_7  and  C_8
REMARK    4  A    between atoms: C_11  and  C_12
REMARK    5  A    between atoms: C_12  and  N_13
REMARK    6  A    between atoms: C_14  and  C_16
REMARK                            x       y       z     vdW  Elec       q    Type
REMARK                         _______ _______ _______ _____ _____    ______ ____
ROOT
ATOM      1  C   UNL     1      47.638   4.931  15.222  0.00  0.00    +0.000 C 
ENDROOT
BRANCH   1   5
ATOM      2  C   UNL     1      45.326   4.369  11.621  0.00  0.00    +0.000 A 
ATOM      3  C   UNL     1      45.594   5.658  12.086  0.00  0.00    +0.000 A 
ATOM      4  C   UNL     1      46.354   5.840  13.245  0.00  0.00    +0.000 A 
ATOM      5  C   UNL     1      46.806   4.737  13.981  0.00  0.00    +0.000 A 
ATOM      6  C   UNL     1      46.424   3.452  13.576  0.00  0.00    +0.000 A 
ATOM      7  C   UNL     1      45.695   3.269  12.397  0.00  0.00    +0.000 A 
BRANCH   2   8
ATOM      8  O   UNL     1      44.650   4.090  10.456  0.00  0.00    +0.000 OA
BRANCH   8  12
ATOM      9  C   UNL     1      46.729   2.692   7.190  0.00  0.00    +0.000 A 
ATOM     10  C   UNL     1      46.154   1.736   8.019  0.00  0.00    +0.000 A 
ATOM     11  C   UNL     1      45.413   2.167   9.120  0.00  0.00    +0.000 A 
ATOM     12  C   UNL     1      45.314   3.531   9.392  0.00  0.00    +0.000 A 
ATOM     13  C   UNL     1      45.893   4.410   8.484  0.00  0.00    +0.000 A 
ATOM     14  N   UNL     1      46.600   4.026   7.393  0.00  0.00    +0.000 NA
BRANCH   9  16
ATOM     15  N   UNL     1      48.149   2.021   5.120  0.00  0.00    +0.000 NA
ATOM     16  C   UNL     1      47.504   2.297   6.046  0.00  0.00    +0.000 C 
ENDBRANCH   9  16
ENDBRANCH   8  12
ENDBRANCH   2   8
ENDBRANCH   1   5
BRANCH   1  17
ATOM     17  N   UNL     1      47.762   6.328  15.532  0.00  0.00    +0.000 N 
ATOM     18  C   UNL     1      48.978   6.926  15.719  0.00  0.00    +0.000 C 
ATOM     19  O   UNL     1      50.037   6.319  15.576  0.00  0.00    +0.000 OA
ATOM     20  H   UNL     1      46.928   6.783  15.889  0.00  0.00    +0.000 HD
BRANCH  18  21
ATOM     21  C   UNL     1      48.944   8.361  16.027  0.00  0.00    +0.000 A 
ATOM     22  C   UNL     1      49.510   9.274  15.149  0.00  0.00    +0.000 A 
ATOM     23  S   UNL     1      49.282  10.899  15.616  0.00  0.00    +0.000 S 
ATOM     24  C   UNL     1      48.473  10.435  17.040  0.00  0.00    +0.000 A 
ATOM     25  N   UNL     1      47.993  11.364  17.912  0.00  0.00    +0.000 NA
ATOM     26  C   UNL     1      47.424  10.870  18.960  0.00  0.00    +0.000 A 
ATOM     27  N   UNL     1      47.295   9.531  19.220  0.00  0.00    +0.000 N 
ATOM     28  C   UNL     1      47.743   8.558  18.360  0.00  0.00    +0.000 A 
ATOM     29  O   UNL     1      47.587   7.367  18.613  0.00  0.00    +0.000 OA
ATOM     30  C   UNL     1      48.379   9.062  17.157  0.00  0.00    +0.000 A 
ATOM     31  H   UNL     1      46.837   9.209  20.060  0.00  0.00    +0.000 HD
ENDBRANCH  18  21
ENDBRANCH   1  17
TORSDOF 6
ENDMDL
MODEL 6
REMARK VINA RESULT:    -7.128      3.880      8.249
REMARK INTER + INTRA:         -10.286
REMARK INTER:                  -9.174
REMARK INTRA:                  -1.112
REMARK UNBOUND:                -0.658
REMARK  Name = 
REMARK  6 active torsions:
REMARK  status: ('A' for Active; 'I' for Inactive)
REMARK    1  A    between atoms: C_2  and  C_3
REMARK    2  A    between atoms: C_6  and  O_7
REMARK    3  A    between atoms: O_7  and  C_8
REMARK    4  A    between atoms: C_11  and  C_12
REMARK    5  A    between atoms: C_12  and  N_13
REMARK    6  A    between atoms: C_14  and  C_16
REMARK                            x       y       z     vdW  Elec       q    Type
REMARK                         _______ _______ _______ _____ _____    ______ ____
ROOT
ATOM      1  C   UNL     1      48.354   7.292  14.262  0.00  0.00    +0.000 C 
ENDROOT
BRANCH   1   5
ATOM      2  C   UNL     1      49.780   4.821  17.500  0.00  0.00    +0.000 A 
ATOM      3  C   UNL     1      48.483   4.654  17.012  0.00  0.00    +0.000 A 
ATOM      4  C   UNL     1      48.026   5.445  15.955  0.00  0.00    +0.000 A 
ATOM      5  C   UNL     1      48.839   6.448  15.412  0.00  0.00    +0.000 A 
ATOM      6  C   UNL     1      50.090   6.692  15.994  0.00  0.00    +0.000 A 
ATOM      7  C   UNL     1      50.561   5.876  17.027  0.00  0.00    +0.000 A 
BRANCH   2   8
ATOM      8  O   UNL     1      50.344   4.045  18.487  0.00  0.00    +0.000 OA
BRANCH   8  12
ATOM      9  C   UNL     1      53.079   1.173  17.387  0.00  0.00    +0.000 A 
ATOM     10  C   UNL     1      53.567   2.253  18.113  0.00  0.00    +0.000 A 
ATOM     11  C   UNL     1      52.668   3.234  18.535  0.00  0.00    +0.000 A 
ATOM     12  C   UNL     1      51.325   3.138  18.173  0.00  0.00    +0.000 A 
ATOM     13  C   UNL     1      50.927   2.002  17.477  0.00  0.00    +0.000 A 
ATOM     14  N   UNL     1      51.770   1.020  17.072  0.00  0.00    +0.000 NA
BRANCH   9  16
ATOM     15  N   UNL     1      54.652  -0.707  16.526  0.00  0.00    +0.000 NA
ATOM     16  C   UNL     1      53.967   0.139  16.929  0.00  0.00    +0.000 C 
ENDBRANCH   9  16
ENDBRANCH   8  12
ENDBRANCH   2   8
ENDBRANCH   1   5
BRANCH   1  17
ATOM     17  N   UNL     1      47.103   6.792  13.763  0.00  0.00    +0.000 N 
ATOM     18  C   UNL     1      46.805   6.784  12.428  0.00  0.00    +0.000 C 
ATOM     19  O   UNL     1      47.610   7.146  11.573  0.00  0.00    +0.000 OA
ATOM     20  H   UNL     1      46.349   6.720  14.439  0.00  0.00    +0.000 HD
BRANCH  18  21
ATOM     21  C   UNL     1      45.489   6.239  12.071  0.00  0.00    +0.000 A 
ATOM     22  C   UNL     1      44.508   7.074  11.555  0.00  0.00    +0.000 A 
ATOM     23  S   UNL     1      43.085   6.251  11.098  0.00  0.00    +0.000 S 
ATOM     24  C   UNL     1      43.709   4.760  11.633  0.00  0.00    +0.000 A 
ATOM     25  N   UNL     1      42.983   3.613  11.523  0.00  0.00    +0.000 NA
ATOM     26  C   UNL     1      43.570   2.563  11.991  0.00  0.00    +0.000 A 
ATOM     27  N   UNL     1      44.814   2.554  12.565  0.00  0.00    +0.000 N 
ATOM     28  C   UNL     1      45.591   3.681  12.677  0.00  0.00    +0.000 A 
ATOM     29  O   UNL     1      46.712   3.632  13.174  0.00  0.00    +0.000 OA
ATOM     30  C   UNL     1      44.983   4.889  12.152  0.00  0.00    +0.000 A 
ATOM     31  H   UNL     1      45.218   1.696  12.912  0.00  0.00    +0.000 HD
ENDBRANCH  18  21
ENDBRANCH   1  17
TORSDOF 6
ENDMDL
MODEL 7
REMARK VINA RESULT:    -6.999      1.904      2.419
REMARK INTER + INTRA:         -10.112
REMARK INTER:                  -9.216
REMARK INTRA:                  -0.896
REMARK UNBOUND:                -0.658
REMARK  Name = 
REMARK  6 active torsions:
REMARK  status: ('A' for Active; 'I' for Inactive)
REMARK    1  A    between atoms: C_2  and  C_3
REMARK    2  A    between atoms: C_6  and  O_7
REMARK    3  A    between atoms: O_7  and  C_8
REMARK    4  A    between atoms: C_11  and  C_12
REMARK    5  A    between atoms: C_12  and  N_13
REMARK    6  A    between atoms: C_14  and  C_16
REMARK                            x       y       z     vdW  Elec       q    Type
REMARK                         _______ _______ _______ _____ _____    ______ ____
ROOT
ATOM      1  C   UNL     1      47.722   8.449  14.153  0.00  0.00    +0.000 C 
ENDROOT
BRANCH   1   5
ATOM      2  C   UNL     1      45.345   6.040  11.475  0.00  0.00    +0.000 A 
ATOM      3  C   UNL     1      46.399   5.463  12.185  0.00  0.00    +0.000 A 
ATOM      4  C   UNL     1      47.161   6.240  13.062  0.00  0.00    +0.000 A 
ATOM      5  C   UNL     1      46.912   7.612  13.197  0.00  0.00    +0.000 A 
ATOM      6  C   UNL     1      45.937   8.205  12.385  0.00  0.00    +0.000 A 
ATOM      7  C   UNL     1      45.151   7.420  11.535  0.00  0.00    +0.000 A 
BRANCH   2   8
ATOM      8  O   UNL     1      44.496   5.344  10.644  0.00  0.00    +0.000 OA
BRANCH   8  12
ATOM      9  C   UNL     1      46.126   2.657   7.987  0.00  0.00    +0.000 A 
ATOM     10  C   UNL     1      45.385   2.126   9.036  0.00  0.00    +0.000 A 
ATOM     11  C   UNL     1      44.787   3.002   9.942  0.00  0.00    +0.000 A 
ATOM     12  C   UNL     1      44.992   4.375   9.808  0.00  0.00    +0.000 A 
ATOM     13  C   UNL     1      45.719   4.812   8.706  0.00  0.00    +0.000 A 
ATOM     14  N   UNL     1      46.293   3.989   7.795  0.00  0.00    +0.000 NA
BRANCH   9  16
ATOM     15  N   UNL     1      47.318   1.122   6.262  0.00  0.00    +0.000 NA
ATOM     16  C   UNL     1      46.763   1.793   7.031  0.00  0.00    +0.000 C 
ENDBRANCH   9  16
ENDBRANCH   8  12
ENDBRANCH   2   8
ENDBRANCH   1   5
BRANCH   1  17
ATOM     17  N   UNL     1      47.905   7.757  15.398  0.00  0.00    +0.000 N 
ATOM     18  C   UNL     1      49.100   7.190  15.746  0.00  0.00    +0.000 C 
ATOM     19  O   UNL     1      50.103   7.290  15.043  0.00  0.00    +0.000 OA
ATOM     20  H   UNL     1      47.058   7.455  15.869  0.00  0.00    +0.000 HD
BRANCH  18  21
ATOM     21  C   UNL     1      49.133   6.519  17.052  0.00  0.00    +0.000 A 
ATOM     22  C   UNL     1      49.649   5.236  17.161  0.00  0.00    +0.000 A 
ATOM     23  S   UNL     1      49.705   4.660  18.766  0.00  0.00    +0.000 S 
ATOM     24  C   UNL     1      48.985   6.082  19.361  0.00  0.00    +0.000 A 
ATOM     25  N   UNL     1      48.749   6.248  20.692  0.00  0.00    +0.000 NA
ATOM     26  C   UNL     1      48.176   7.363  20.998  0.00  0.00    +0.000 A 
ATOM     27  N   UNL     1      47.811   8.327  20.095  0.00  0.00    +0.000 N 
ATOM     28  C   UNL     1      48.049   8.214  18.747  0.00  0.00    +0.000 A 
ATOM     29  O   UNL     1      47.731   9.109  17.969  0.00  0.00    +0.000 OA
ATOM     30  C   UNL     1      48.706   6.982  18.351  0.00  0.00    +0.000 A 
ATOM     31  H   UNL     1      47.365   9.180  20.400  0.00  0.00    +0.000 HD
ENDBRANCH  18  21
ENDBRANCH   1  17
TORSDOF 6
ENDMDL
MODEL 8
REMARK VINA RESULT:    -6.982      2.336      2.979
REMARK INTER + INTRA:         -10.088
REMARK INTER:                  -9.153
REMARK INTRA:                  -0.935
REMARK UNBOUND:                -0.658
REMARK  Name = 
REMARK  6 active torsions:
REMARK  status: ('A' for Active; 'I' for Inactive)
REMARK    1  A    between atoms: C_2  and  C_3
REMARK    2  A    between atoms: C_6  and  O_7
REMARK    3  A    between atoms: O_7  and  C_8
REMARK    4  A    between atoms: C_11  and  C_12
REMARK    5  A    between atoms: C_12  and  N_13
REMARK    6  A    between atoms: C_14  and  C_16
REMARK                            x       y       z     vdW  Elec       q    Type
REMARK                         _______ _______ _______ _____ _____    ______ ____
ROOT
ATOM      1  C   UNL     1      46.119   8.050  13.236  0.00  0.00    +0.000 C 
ENDROOT
BRANCH   1   5
ATOM      2  C   UNL     1      44.532   4.792  10.892  0.00  0.00    +0.000 A 
ATOM      3  C   UNL     1      43.837   6.000  10.972  0.00  0.00    +0.000 A 
ATOM      4  C   UNL     1      44.357   7.059  11.721  0.00  0.00    +0.000 A 
ATOM      5  C   UNL     1      45.548   6.905  12.440  0.00  0.00    +0.000 A 
ATOM      6  C   UNL     1      46.171   5.649  12.456  0.00  0.00    +0.000 A 
ATOM      7  C   UNL     1      45.669   4.602  11.677  0.00  0.00    +0.000 A 
BRANCH   2   8
ATOM      8  O   UNL     1      44.139   3.719  10.125  0.00  0.00    +0.000 OA
BRANCH   8  12
ATOM      9  C   UNL     1      46.726   2.454   7.185  0.00  0.00    +0.000 A 
ATOM     10  C   UNL     1      46.242   1.481   8.050  0.00  0.00    +0.000 A 
ATOM     11  C   UNL     1      45.336   1.860   9.042  0.00  0.00    +0.000 A 
ATOM     12  C   UNL     1      44.986   3.203   9.176  0.00  0.00    +0.000 A 
ATOM     13  C   UNL     1      45.494   4.096   8.240  0.00  0.00    +0.000 A 
ATOM     14  N   UNL     1      46.357   3.757   7.251  0.00  0.00    +0.000 NA
BRANCH   9  16
ATOM     15  N   UNL     1      48.433   1.880   5.311  0.00  0.00    +0.000 NA
ATOM     16  C   UNL     1      47.663   2.112   6.149  0.00  0.00    +0.000 C 
ENDBRANCH   9  16
ENDBRANCH   8  12
ENDBRANCH   2   8
ENDBRANCH   1   5
BRANCH   1  17
ATOM     17  N   UNL     1      47.531   7.872  13.433  0.00  0.00    +0.000 N 
ATOM     18  C   UNL     1      48.361   8.920  13.723  0.00  0.00    +0.000 C 
ATOM     19  O   UNL     1      47.943  10.063  13.890  0.00  0.00    +0.000 OA
ATOM     20  H   UNL     1      47.928   7.012  13.069  0.00  0.00    +0.000 HD
BRANCH  18  21
ATOM     21  C   UNL     1      49.779   8.581  13.899  0.00  0.00    +0.000 A 
ATOM     22  C   UNL     1      50.732   9.106  13.038  0.00  0.00    +0.000 A 
ATOM     23  S   UNL     1      52.333   8.691  13.460  0.00  0.00    +0.000 S 
ATOM     24  C   UNL     1      51.801   7.745  14.771  0.00  0.00    +0.000 A 
ATOM     25  N   UNL     1      52.687   7.098  15.577  0.00  0.00    +0.000 NA
ATOM     26  C   UNL     1      52.145   6.398  16.516  0.00  0.00    +0.000 A 
ATOM     27  N   UNL     1      50.795   6.281  16.720  0.00  0.00    +0.000 N 
ATOM     28  C   UNL     1      49.865   6.932  15.948  0.00  0.00    +0.000 A 
ATOM     29  O   UNL     1      48.663   6.825  16.176  0.00  0.00    +0.000 OA
ATOM     30  C   UNL     1      50.425   7.746  14.885  0.00  0.00    +0.000 A 
ATOM     31  H   UNL     1      50.433   5.717  17.476  0.00  0.00    +0.000 HD
ENDBRANCH  18  21
ENDBRANCH   1  17
TORSDOF 6
ENDMDL
MODEL 9
REMARK VINA RESULT:    -6.756      4.904      7.349
REMARK INTER + INTRA:          -9.784
REMARK INTER:                  -8.952
REMARK INTRA:                  -0.832
REMARK UNBOUND:                -0.658
REMARK  Name = 
REMARK  6 active torsions:
REMARK  status: ('A' for Active; 'I' for Inactive)
REMARK    1  A    between atoms: C_2  and  C_3
REMARK    2  A    between atoms: C_6  and  O_7
REMARK    3  A    between atoms: O_7  and  C_8
REMARK    4  A    between atoms: C_11  and  C_12
REMARK    5  A    between atoms: C_12  and  N_13
REMARK    6  A    between atoms: C_14  and  C_16
REMARK                            x       y       z     vdW  Elec       q    Type
REMARK                         _______ _______ _______ _____ _____    ______ ____
ROOT
ATOM      1  C   UNL     1      46.626   8.400  12.772  0.00  0.00    +0.000 C 
ENDROOT
BRANCH   1   5
ATOM      2  C   UNL     1      50.690   8.736  11.360  0.00  0.00    +0.000 A 
ATOM      3  C   UNL     1      49.853   9.853  11.354  0.00  0.00    +0.000 A 
ATOM      4  C   UNL     1      48.541   9.748  11.823  0.00  0.00    +0.000 A 
ATOM      5  C   UNL     1      48.036   8.514  12.251  0.00  0.00    +0.000 A 
ATOM      6  C   UNL     1      48.842   7.374  12.133  0.00  0.00    +0.000 A 
ATOM      7  C   UNL     1      50.166   7.488  11.697  0.00  0.00    +0.000 A 
BRANCH   2   8
ATOM      8  O   UNL     1      52.015   8.756  10.985  0.00  0.00    +0.000 OA
BRANCH   8  12
ATOM      9  C   UNL     1      53.170   7.863   7.137  0.00  0.00    +0.000 A 
ATOM     10  C   UNL     1      52.824   6.790   7.949  0.00  0.00    +0.000 A 
ATOM     11  C   UNL     1      52.395   7.050   9.251  0.00  0.00    +0.000 A 
ATOM     12  C   UNL     1      52.378   8.362   9.721  0.00  0.00    +0.000 A 
ATOM     13  C   UNL     1      52.708   9.370   8.822  0.00  0.00    +0.000 A 
ATOM     14  N   UNL     1      53.106   9.154   7.545  0.00  0.00    +0.000 NA
BRANCH   9  16
ATOM     15  N   UNL     1      53.940   7.472   4.686  0.00  0.00    +0.000 NA
ATOM     16  C   UNL     1      53.621   7.644   5.790  0.00  0.00    +0.000 C 
ENDBRANCH   9  16
ENDBRANCH   8  12
ENDBRANCH   2   8
ENDBRANCH   1   5
BRANCH   1  17
ATOM     17  N   UNL     1      46.111   7.078  12.548  0.00  0.00    +0.000 N 
ATOM     18  C   UNL     1      45.053   6.843  11.713  0.00  0.00    +0.000 C 
ATOM     19  O   UNL     1      44.519   7.737  11.062  0.00  0.00    +0.000 OA
ATOM     20  H   UNL     1      46.362   6.377  13.238  0.00  0.00    +0.000 HD
BRANCH  18  21
ATOM     21  C   UNL     1      44.643   5.439  11.583  0.00  0.00    +0.000 A 
ATOM     22  C   UNL     1      43.960   4.815  12.617  0.00  0.00    +0.000 A 
ATOM     23  S   UNL     1      43.471   3.223  12.248  0.00  0.00    +0.000 S 
ATOM     24  C   UNL     1      44.210   3.292  10.716  0.00  0.00    +0.000 A 
ATOM     25  N   UNL     1      44.158   2.233   9.861  0.00  0.00    +0.000 NA
ATOM     26  C   UNL     1      44.781   2.416   8.746  0.00  0.00    +0.000 A 
ATOM     27  N   UNL     1      45.458   3.558   8.408  0.00  0.00    +0.000 N 
ATOM     28  C   UNL     1      45.519   4.659   9.228  0.00  0.00    +0.000 A 
ATOM     29  O   UNL     1      46.112   5.676   8.882  0.00  0.00    +0.000 OA
ATOM     30  C   UNL     1      44.820   4.510  10.491  0.00  0.00    +0.000 A 
ATOM     31  H   UNL     1      45.926   3.638   7.517  0.00  0.00    +0.000 HD
ENDBRANCH  18  21
ENDBRANCH   1  17
TORSDOF 6
ENDMDL
