MODEL 1
REMARK VINA RESULT:    -7.298      0.000      0.000
REMARK INTER + INTRA:         -10.883
REMARK INTER:                  -9.858
REMARK INTRA:                  -1.024
REMARK UNBOUND:                -1.024
REMARK  Name = 
REMARK  6 active torsions:
REMARK  status: ('A' for Active; 'I' for Inactive)
REMARK    1  A    between atoms: C_2  and  C_3
REMARK    2  A    between atoms: N_10  and  C_11
REMARK    3  A    between atoms: C_11  and  C_12
REMARK    4  A    between atoms: C_15  and  C_16
REMARK    5  A    between atoms: C_16  and  N_17
REMARK    6  A    between atoms: C_18  and  C_20
REMARK                            x       y       z     vdW  Elec       q    Type
REMARK                         _______ _______ _______ _____ _____    ______ ____
ROOT
ATOM      1  C   UNL     1      49.196   6.403  17.582  0.00  0.00    +0.000 A 
ATOM      2  C   UNL     1      49.195   7.809  17.534  0.00  0.00    +0.000 A 
ATOM      3  C   UNL     1      48.769   8.484  16.381  0.00  0.00    +0.000 A 
ATOM      4  C   UNL     1      48.320   7.772  15.262  0.00  0.00    +0.000 A 
ATOM      5  C   UNL     1      48.346   6.372  15.304  0.00  0.00    +0.000 A 
ATOM      6  C   UNL     1      48.769   5.698  16.454  0.00  0.00    +0.000 A 
ENDROOT
BRANCH   1   7
ATOM      7  C   UNL     1      49.684   5.673  18.805  0.00  0.00    +0.000 C 
BRANCH   7  15
ATOM      8  C   UNL     1      51.626   1.895  17.543  0.00  0.00    +0.000 A 
ATOM      9  C   UNL     1      52.530   0.864  17.730  0.00  0.00    +0.000 A 
ATOM     10  C   UNL     1      53.650   1.389  18.408  0.00  0.00    +0.000 A 
ATOM     11  C   UNL     1      53.414   2.731  18.585  0.00  0.00    +0.000 A 
ATOM     12  N   UNL     1      52.147   3.046  18.108  0.00  0.00    +0.000 N 
ATOM     13  C   UNL     1      51.612   4.353  18.180  0.00  0.00    +0.000 C 
ATOM     14  O   UNL     1      52.352   5.314  18.042  0.00  0.00    +0.000 OA
ATOM     15  N   UNL     1      50.276   4.381  18.515  0.00  0.00    +0.000 N 
ATOM     16  H   UNL     1      49.785   3.551  18.836  0.00  0.00    +0.000 HD
BRANCH   8  18
ATOM     17  N   UNL     1      49.438   1.765  16.180  0.00  0.00    +0.000 NA
ATOM     18  C   UNL     1      50.423   1.823  16.790  0.00  0.00    +0.000 C 
ENDBRANCH   8  18
ENDBRANCH   7  15
ENDBRANCH   1   7
BRANCH   4  19
ATOM     19  C   UNL     1      47.840   8.485  14.023  0.00  0.00    +0.000 C 
BRANCH  19  20
ATOM     20  N   UNL     1      46.592   7.947  13.543  0.00  0.00    +0.000 N 
ATOM     21  C   UNL     1      46.560   7.056  12.501  0.00  0.00    +0.000 C 
ATOM     22  O   UNL     1      47.560   6.783  11.844  0.00  0.00    +0.000 OA
ATOM     23  H   UNL     1      45.790   8.025  14.161  0.00  0.00    +0.000 HD
BRANCH  21  24
ATOM     24  C   UNL     1      45.268   6.436  12.196  0.00  0.00    +0.000 A 
ATOM     25  C   UNL     1      44.228   7.191  11.679  0.00  0.00    +0.000 A 
ATOM     26  S   UNL     1      42.839   6.274  11.297  0.00  0.00    +0.000 S 
ATOM     27  C   UNL     1      43.608   4.824  11.743  0.00  0.00    +0.000 A 
ATOM     28  N   UNL     1      43.011   3.619  11.537  0.00  0.00    +0.000 NA
ATOM     29  C   UNL     1      43.721   2.603  11.905  0.00  0.00    +0.000 A 
ATOM     30  N   UNL     1      44.952   2.686  12.501  0.00  0.00    +0.000 N 
ATOM     31  C   UNL     1      45.569   3.881  12.776  0.00  0.00    +0.000 A 
ATOM     32  O   UNL     1      46.621   3.928  13.407  0.00  0.00    +0.000 OA
ATOM     33  C   UNL     1      44.860   5.049  12.289  0.00  0.00    +0.000 A 
ATOM     34  H   UNL     1      45.427   1.855  12.824  0.00  0.00    +0.000 HD
ENDBRANCH  21  24
ENDBRANCH  19  20
ENDBRANCH   4  19
TORSDOF 6
ENDMDL
MODEL 2
REMARK VINA RESULT:    -7.243      4.107      8.845
REMARK INTER + INTRA:         -10.809
REMARK INTER:                  -9.861
REMARK INTRA:                  -0.947
REMARK UNBOUND:                -1.024
REMARK  Name = 
REMARK  6 active torsions:
REMARK  status: ('A' for Active; 'I' for Inactive)
REMARK    1  A    between atoms: C_2  and  C_3
REMARK    2  A    between atoms: N_10  and  C_11
REMARK    3  A    between atoms: C_11  and  C_12
REMARK    4  A    between atoms: C_15  and  C_16
REMARK    5  A    between atoms: C_16  and  N_17
REMARK    6  A    between atoms: C_18  and  C_20
REMARK                            x       y       z     vdW  Elec       q    Type
REMARK                         _______ _______ _______ _____ _____    ______ ____
ROOT
ATOM      1  C   UNL     1      45.332   4.237  11.216  0.00  0.00    +0.000 A 
ATOM      2  C   UNL     1      45.654   4.066  12.575  0.00  0.00    +0.000 A 
ATOM      3  C   UNL     1      46.224   5.114  13.311  0.00  0.00    +0.000 A 
ATOM      4  C   UNL     1      46.468   6.357  12.713  0.00  0.00    +0.000 A 
ATOM      5  C   UNL     1      46.169   6.516  11.354  0.00  0.00    +0.000 A 
ATOM      6  C   UNL     1      45.599   5.471  10.619  0.00  0.00    +0.000 A 
ENDROOT
BRANCH   1   7
ATOM      7  C   UNL     1      44.752   3.103  10.412  0.00  0.00    +0.000 C 
BRANCH   7  15
ATOM      8  C   UNL     1      46.959   1.682   6.842  0.00  0.00    +0.000 A 
ATOM      9  C   UNL     1      47.809   1.887   5.770  0.00  0.00    +0.000 A 
ATOM     10  C   UNL     1      47.613   3.207   5.310  0.00  0.00    +0.000 A 
ATOM     11  C   UNL     1      46.627   3.757   6.091  0.00  0.00    +0.000 A 
ATOM     12  N   UNL     1      46.254   2.850   7.076  0.00  0.00    +0.000 N 
ATOM     13  C   UNL     1      45.274   3.148   8.051  0.00  0.00    +0.000 C 
ATOM     14  O   UNL     1      44.316   3.840   7.748  0.00  0.00    +0.000 OA
ATOM     15  N   UNL     1      45.592   2.682   9.308  0.00  0.00    +0.000 N 
ATOM     16  H   UNL     1      46.513   2.313   9.527  0.00  0.00    +0.000 HD
BRANCH   8  18
ATOM     17  N   UNL     1      46.580  -0.562   8.061  0.00  0.00    +0.000 NA
ATOM     18  C   UNL     1      46.748   0.448   7.515  0.00  0.00    +0.000 C 
ENDBRANCH   8  18
ENDBRANCH   7  15
ENDBRANCH   1   7
BRANCH   4  19
ATOM     19  C   UNL     1      47.061   7.499  13.499  0.00  0.00    +0.000 C 
BRANCH  19  20
ATOM     20  N   UNL     1      47.655   7.050  14.733  0.00  0.00    +0.000 N 
ATOM     21  C   UNL     1      49.016   6.945  14.866  0.00  0.00    +0.000 C 
ATOM     22  O   UNL     1      49.778   7.091  13.915  0.00  0.00    +0.000 OA
ATOM     23  H   UNL     1      47.071   7.084  15.563  0.00  0.00    +0.000 HD
BRANCH  21  24
ATOM     24  C   UNL     1      49.532   6.646  16.204  0.00  0.00    +0.000 A 
ATOM     25  C   UNL     1      50.414   7.511  16.829  0.00  0.00    +0.000 A 
ATOM     26  S   UNL     1      50.823   7.042  18.420  0.00  0.00    +0.000 S 
ATOM     27  C   UNL     1      49.776   5.703  18.352  0.00  0.00    +0.000 A 
ATOM     28  N   UNL     1      49.547   4.933  19.449  0.00  0.00    +0.000 NA
ATOM     29  C   UNL     1      48.714   3.964  19.256  0.00  0.00    +0.000 A 
ATOM     30  N   UNL     1      48.126   3.669  18.053  0.00  0.00    +0.000 N 
ATOM     31  C   UNL     1      48.369   4.386  16.908  0.00  0.00    +0.000 A 
ATOM     32  O   UNL     1      47.913   4.033  15.824  0.00  0.00    +0.000 OA
ATOM     33  C   UNL     1      49.218   5.547  17.095  0.00  0.00    +0.000 A 
ATOM     34  H   UNL     1      47.533   2.857  17.953  0.00  0.00    +0.000 HD
ENDBRANCH  21  24
ENDBRANCH  19  20
ENDBRANCH   4  19
TORSDOF 6
ENDMDL
MODEL 3
REMARK VINA RESULT:    -6.779      3.379      9.295
REMARK INTER + INTRA:         -10.182
REMARK INTER:                  -9.346
REMARK INTRA:                  -0.836
REMARK UNBOUND:                -1.024
REMARK  Name = 
REMARK  6 active torsions:
REMARK  status: ('A' for Active; 'I' for Inactive)
REMARK    1  A    between atoms: C_2  and  C_3
REMARK    2  A    between atoms: N_10  and  C_11
REMARK    3  A    between atoms: C_11  and  C_12
REMARK    4  A    between atoms: C_15  and  C_16
REMARK    5  A    between atoms: C_16  and  N_17
REMARK    6  A    between atoms: C_18  and  C_20
REMARK                            x       y       z     vdW  Elec       q    Type
REMARK                         _______ _______ _______ _____ _____    ______ ____
ROOT
ATOM      1  C   UNL     1      47.502   5.390  14.723  0.00  0.00    +0.000 A 
ATOM      2  C   UNL     1      47.064   4.085  15.013  0.00  0.00    +0.000 A 
ATOM      3  C   UNL     1      47.454   3.448  16.199  0.00  0.00    +0.000 A 
ATOM      4  C   UNL     1      48.272   4.104  17.127  0.00  0.00    +0.000 A 
ATOM      5  C   UNL     1      48.727   5.393  16.824  0.00  0.00    +0.000 A 
ATOM      6  C   UNL     1      48.337   6.031  15.641  0.00  0.00    +0.000 A 
ENDROOT
BRANCH   1   7
ATOM      7  C   UNL     1      47.114   6.067  13.435  0.00  0.00    +0.000 C 
BRANCH   7  15
ATOM      8  C   UNL     1      44.636   3.682  10.640  0.00  0.00    +0.000 A 
ATOM      9  C   UNL     1      44.406   3.094   9.409  0.00  0.00    +0.000 A 
ATOM     10  C   UNL     1      45.003   3.908   8.423  0.00  0.00    +0.000 A 
ATOM     11  C   UNL     1      45.550   4.985   9.076  0.00  0.00    +0.000 A 
ATOM     12  N   UNL     1      45.382   4.833  10.447  0.00  0.00    +0.000 N 
ATOM     13  C   UNL     1      45.869   5.775  11.382  0.00  0.00    +0.000 C 
ATOM     14  O   UNL     1      45.860   6.962  11.099  0.00  0.00    +0.000 OA
ATOM     15  N   UNL     1      46.414   5.198  12.509  0.00  0.00    +0.000 N 
ATOM     16  H   UNL     1      46.589   4.199  12.569  0.00  0.00    +0.000 HD
BRANCH   8  18
ATOM     17  N   UNL     1      43.660   2.904  12.900  0.00  0.00    +0.000 NA
ATOM     18  C   UNL     1      44.096   3.254  11.883  0.00  0.00    +0.000 C 
ENDBRANCH   8  18
ENDBRANCH   7  15
ENDBRANCH   1   7
BRANCH   4  19
ATOM     19  C   UNL     1      48.682   3.438  18.416  0.00  0.00    +0.000 C 
BRANCH  19  20
ATOM     20  N   UNL     1      50.109   3.248  18.492  0.00  0.00    +0.000 N 
ATOM     21  C   UNL     1      50.749   2.357  17.669  0.00  0.00    +0.000 C 
ATOM     22  O   UNL     1      50.136   1.589  16.935  0.00  0.00    +0.000 OA
ATOM     23  H   UNL     1      50.644   3.972  18.961  0.00  0.00    +0.000 HD
BRANCH  21  24
ATOM     24  C   UNL     1      52.214   2.357  17.703  0.00  0.00    +0.000 A 
ATOM     25  C   UNL     1      52.919   1.166  17.702  0.00  0.00    +0.000 A 
ATOM     26  S   UNL     1      54.613   1.371  17.642  0.00  0.00    +0.000 S 
ATOM     27  C   UNL     1      54.458   3.062  17.541  0.00  0.00    +0.000 A 
ATOM     28  N   UNL     1      55.543   3.856  17.332  0.00  0.00    +0.000 NA
ATOM     29  C   UNL     1      55.272   5.118  17.257  0.00  0.00    +0.000 A 
ATOM     30  N   UNL     1      54.023   5.659  17.418  0.00  0.00    +0.000 N 
ATOM     31  C   UNL     1      52.910   4.901  17.683  0.00  0.00    +0.000 A 
ATOM     32  O   UNL     1      51.826   5.421  17.928  0.00  0.00    +0.000 OA
ATOM     33  C   UNL     1      53.143   3.469  17.675  0.00  0.00    +0.000 A 
ATOM     34  H   UNL     1      53.889   6.660  17.412  0.00  0.00    +0.000 HD
ENDBRANCH  21  24
ENDBRANCH  19  20
ENDBRANCH   4  19
TORSDOF 6
ENDMDL
MODEL 4
REMARK VINA RESULT:    -6.520      1.523      2.125
REMARK INTER + INTRA:          -9.832
REMARK INTER:                  -8.770
REMARK INTRA:                  -1.062
REMARK UNBOUND:                -1.024
REMARK  Name = 
REMARK  6 active torsions:
REMARK  status: ('A' for Active; 'I' for Inactive)
REMARK    1  A    between atoms: C_2  and  C_3
REMARK    2  A    between atoms: N_10  and  C_11
REMARK    3  A    between atoms: C_11  and  C_12
REMARK    4  A    between atoms: C_15  and  C_16
REMARK    5  A    between atoms: C_16  and  N_17
REMARK    6  A    between atoms: C_18  and  C_20
REMARK                            x       y       z     vdW  Elec       q    Type
REMARK                         _______ _______ _______ _____ _____    ______ ____
ROOT
ATOM      1  C   UNL     1      50.451   6.324  17.825  0.00  0.00    +0.000 A 
ATOM      2  C   UNL     1      51.126   7.196  16.952  0.00  0.00    +0.000 A 
ATOM      3  C   UNL     1      50.440   7.835  15.910  0.00  0.00    +0.000 A 
ATOM      4  C   UNL     1      49.066   7.632  15.729  0.00  0.00    +0.000 A 
ATOM      5  C   UNL     1      48.402   6.744  16.585  0.00  0.00    +0.000 A 
ATOM      6  C   UNL     1      49.086   6.107  17.626  0.00  0.00    +0.000 A 
ENDROOT
BRANCH   1   7
ATOM      7  C   UNL     1      51.191   5.608  18.925  0.00  0.00    +0.000 C 
BRANCH   7  15
ATOM      8  C   UNL     1      52.186   1.491  17.620  0.00  0.00    +0.000 A 
ATOM      9  C   UNL     1      52.874   0.299  17.758  0.00  0.00    +0.000 A 
ATOM     10  C   UNL     1      54.140   0.592  18.308  0.00  0.00    +0.000 A 
ATOM     11  C   UNL     1      54.201   1.956  18.458  0.00  0.00    +0.000 A 
ATOM     12  N   UNL     1      52.985   2.519  18.092  0.00  0.00    +0.000 N 
ATOM     13  C   UNL     1      52.737   3.909  18.167  0.00  0.00    +0.000 C 
ATOM     14  O   UNL     1      53.640   4.694  17.925  0.00  0.00    +0.000 OA
ATOM     15  N   UNL     1      51.475   4.218  18.626  0.00  0.00    +0.000 N 
ATOM     16  H   UNL     1      50.860   3.512  19.022  0.00  0.00    +0.000 HD
BRANCH   8  18
ATOM     17  N   UNL     1      49.891   1.791  16.476  0.00  0.00    +0.000 NA
ATOM     18  C   UNL     1      50.924   1.657  16.988  0.00  0.00    +0.000 C 
ENDBRANCH   8  18
ENDBRANCH   7  15
ENDBRANCH   1   7
BRANCH   4  19
ATOM     19  C   UNL     1      48.311   8.329  14.626  0.00  0.00    +0.000 C 
BRANCH  19  20
ATOM     20  N   UNL     1      47.295   7.483  14.052  0.00  0.00    +0.000 N 
ATOM     21  C   UNL     1      47.625   6.445  13.219  0.00  0.00    +0.000 C 
ATOM     22  O   UNL     1      48.771   6.272  12.814  0.00  0.00    +0.000 OA
ATOM     23  H   UNL     1      46.380   7.501  14.493  0.00  0.00    +0.000 HD
BRANCH  21  24
ATOM     24  C   UNL     1      46.543   5.540  12.823  0.00  0.00    +0.000 A 
ATOM     25  C   UNL     1      46.620   4.186  13.098  0.00  0.00    +0.000 A 
ATOM     26  S   UNL     1      45.222   3.313  12.649  0.00  0.00    +0.000 S 
ATOM     27  C   UNL     1      44.436   4.733  12.138  0.00  0.00    +0.000 A 
ATOM     28  N   UNL     1      43.132   4.714  11.753  0.00  0.00    +0.000 NA
ATOM     29  C   UNL     1      42.661   5.868  11.410  0.00  0.00    +0.000 A 
ATOM     30  N   UNL     1      43.389   7.029  11.374  0.00  0.00    +0.000 N 
ATOM     31  C   UNL     1      44.721   7.085  11.704  0.00  0.00    +0.000 A 
ATOM     32  O   UNL     1      45.372   8.114  11.559  0.00  0.00    +0.000 OA
ATOM     33  C   UNL     1      45.271   5.835  12.194  0.00  0.00    +0.000 A 
ATOM     34  H   UNL     1      42.978   7.886  11.035  0.00  0.00    +0.000 HD
ENDBRANCH  21  24
ENDBRANCH  19  20
ENDBRANCH   4  19
TORSDOF 6
ENDMDL
MODEL 5
REMARK VINA RESULT:    -6.492      1.905      2.540
REMARK INTER + INTRA:          -9.794
REMARK INTER:                  -8.822
REMARK INTRA:                  -0.972
REMARK UNBOUND:                -1.024
REMARK  Name = 
REMARK  6 active torsions:
REMARK  status: ('A' for Active; 'I' for Inactive)
REMARK    1  A    between atoms: C_2  and  C_3
REMARK    2  A    between atoms: N_10  and  C_11
REMARK    3  A    between atoms: C_11  and  C_12
REMARK    4  A    between atoms: C_15  and  C_16
REMARK    5  A    between atoms: C_16  and  N_17
REMARK    6  A    between atoms: C_18  and  C_20
REMARK                            x       y       z     vdW  Elec       q    Type
REMARK                         _______ _______ _______ _____ _____    ______ ____
ROOT
ATOM      1  C   UNL     1      50.012   7.415  16.063  0.00  0.00    +0.000 A 
ATOM      2  C   UNL     1      50.800   7.513  14.901  0.00  0.00    +0.000 A 
ATOM      3  C   UNL     1      50.204   7.729  13.651  0.00  0.00    +0.000 A 
ATOM      4  C   UNL     1      48.815   7.871  13.536  0.00  0.00    +0.000 A 
ATOM      5  C   UNL     1      48.033   7.748  14.691  0.00  0.00    +0.000 A 
ATOM      6  C   UNL     1      48.626   7.534  15.939  0.00  0.00    +0.000 A 
ENDROOT
BRANCH   1   7
ATOM      7  C   UNL     1      50.644   7.148  17.404  0.00  0.00    +0.000 C 
BRANCH   7  15
ATOM      8  C   UNL     1      52.357   3.126  18.130  0.00  0.00    +0.000 A 
ATOM      9  C   UNL     1      52.496   1.784  17.826  0.00  0.00    +0.000 A 
ATOM     10  C   UNL     1      51.265   1.331  17.304  0.00  0.00    +0.000 A 
ATOM     11  C   UNL     1      50.402   2.400  17.338  0.00  0.00    +0.000 A 
ATOM     12  N   UNL     1      51.076   3.527  17.792  0.00  0.00    +0.000 N 
ATOM     13  C   UNL     1      50.452   4.791  17.907  0.00  0.00    +0.000 C 
ATOM     14  O   UNL     1      49.279   4.853  18.240  0.00  0.00    +0.000 OA
ATOM     15  N   UNL     1      51.255   5.838  17.509  0.00  0.00    +0.000 N 
ATOM     16  H   UNL     1      52.138   5.685  17.030  0.00  0.00    +0.000 HD
BRANCH   8  18
ATOM     17  N   UNL     1      54.102   4.594  19.343  0.00  0.00    +0.000 NA
ATOM     18  C   UNL     1      53.320   3.934  18.795  0.00  0.00    +0.000 C 
ENDBRANCH   8  18
ENDBRANCH   7  15
ENDBRANCH   1   7
BRANCH   4  19
ATOM     19  C   UNL     1      48.164   8.125  12.201  0.00  0.00    +0.000 C 
BRANCH  19  20
ATOM     20  N   UNL     1      47.439   6.972  11.729  0.00  0.00    +0.000 N 
ATOM     21  C   UNL     1      46.122   7.067  11.357  0.00  0.00    +0.000 C 
ATOM     22  O   UNL     1      45.465   8.089  11.535  0.00  0.00    +0.000 OA
ATOM     23  H   UNL     1      47.990   6.177  11.422  0.00  0.00    +0.000 HD
BRANCH  21  24
ATOM     24  C   UNL     1      45.521   5.886  10.733  0.00  0.00    +0.000 A 
ATOM     25  C   UNL     1      45.816   5.554   9.421  0.00  0.00    +0.000 A 
ATOM     26  S   UNL     1      45.099   4.093   8.905  0.00  0.00    +0.000 S 
ATOM     27  C   UNL     1      44.427   3.817  10.443  0.00  0.00    +0.000 A 
ATOM     28  N   UNL     1      43.784   2.654  10.731  0.00  0.00    +0.000 NA
ATOM     29  C   UNL     1      43.343   2.575  11.944  0.00  0.00    +0.000 A 
ATOM     30  N   UNL     1      43.448   3.571  12.879  0.00  0.00    +0.000 N 
ATOM     31  C   UNL     1      44.042   4.781  12.616  0.00  0.00    +0.000 A 
ATOM     32  O   UNL     1      44.025   5.693  13.438  0.00  0.00    +0.000 OA
ATOM     33  C   UNL     1      44.644   4.882  11.300  0.00  0.00    +0.000 A 
ATOM     34  H   UNL     1      43.025   3.471  13.790  0.00  0.00    +0.000 HD
ENDBRANCH  21  24
ENDBRANCH  19  20
ENDBRANCH   4  19
TORSDOF 6
ENDMDL
MODEL 6
REMARK VINA RESULT:    -6.300      5.554      8.919
REMARK INTER + INTRA:          -9.534
REMARK INTER:                  -8.775
REMARK INTRA:                  -0.759
REMARK UNBOUND:                -1.024
REMARK  Name = 
REMARK  6 active torsions:
REMARK  status: ('A' for Active; 'I' for Inactive)
REMARK    1  A    between atoms: C_2  and  C_3
REMARK    2  A    between atoms: N_10  and  C_11
REMARK    3  A    between atoms: C_11  and  C_12
REMARK    4  A    between atoms: C_15  and  C_16
REMARK    5  A    between atoms: C_16  and  N_17
REMARK    6  A    between atoms: C_18  and  C_20
REMARK                            x       y       z     vdW  Elec       q    Type
REMARK                         _______ _______ _______ _____ _____    ______ ____
ROOT
ATOM      1  C   UNL     1      44.625   3.957  11.046  0.00  0.00    +0.000 A 
ATOM      2  C   UNL     1      43.877   5.065  10.608  0.00  0.00    +0.000 A 
ATOM      3  C   UNL     1      44.033   6.318  11.217  0.00  0.00    +0.000 A 
ATOM      4  C   UNL     1      44.950   6.495  12.261  0.00  0.00    +0.000 A 
ATOM      5  C   UNL     1      45.675   5.385  12.710  0.00  0.00    +0.000 A 
ATOM      6  C   UNL     1      45.521   4.135  12.103  0.00  0.00    +0.000 A 
ENDROOT
BRANCH   1   7
ATOM      7  C   UNL     1      44.437   2.601  10.418  0.00  0.00    +0.000 C 
BRANCH   7  15
ATOM      8  C   UNL     1      46.991   1.589   6.940  0.00  0.00    +0.000 A 
ATOM      9  C   UNL     1      47.909   1.922   5.962  0.00  0.00    +0.000 A 
ATOM     10  C   UNL     1      47.680   3.265   5.594  0.00  0.00    +0.000 A 
ATOM     11  C   UNL     1      46.607   3.701   6.332  0.00  0.00    +0.000 A 
ATOM     12  N   UNL     1      46.207   2.699   7.207  0.00  0.00    +0.000 N 
ATOM     13  C   UNL     1      45.139   2.868   8.119  0.00  0.00    +0.000 C 
ATOM     14  O   UNL     1      44.172   3.537   7.794  0.00  0.00    +0.000 OA
ATOM     15  N   UNL     1      45.383   2.314   9.357  0.00  0.00    +0.000 N 
ATOM     16  H   UNL     1      46.302   1.971   9.621  0.00  0.00    +0.000 HD
BRANCH   8  18
ATOM     17  N   UNL     1      46.639  -0.763   7.946  0.00  0.00    +0.000 NA
ATOM     18  C   UNL     1      46.794   0.294   7.494  0.00  0.00    +0.000 C 
ENDBRANCH   8  18
ENDBRANCH   7  15
ENDBRANCH   1   7
BRANCH   4  19
ATOM     19  C   UNL     1      45.143   7.842  12.910  0.00  0.00    +0.000 C 
BRANCH  19  20
ATOM     20  N   UNL     1      46.186   8.603  12.269  0.00  0.00    +0.000 N 
ATOM     21  C   UNL     1      47.297   9.006  12.964  0.00  0.00    +0.000 C 
ATOM     22  O   UNL     1      47.395   8.863  14.179  0.00  0.00    +0.000 OA
ATOM     23  H   UNL     1      46.207   8.589  11.254  0.00  0.00    +0.000 HD
BRANCH  21  24
ATOM     24  C   UNL     1      48.377   9.624  12.191  0.00  0.00    +0.000 A 
ATOM     25  C   UNL     1      48.288  10.946  11.787  0.00  0.00    +0.000 A 
ATOM     26  S   UNL     1      49.684  11.513  10.984  0.00  0.00    +0.000 S 
ATOM     27  C   UNL     1      50.485  10.029  11.214  0.00  0.00    +0.000 A 
ATOM     28  N   UNL     1      51.792   9.875  10.873  0.00  0.00    +0.000 NA
ATOM     29  C   UNL     1      52.273   8.702  11.124  0.00  0.00    +0.000 A 
ATOM     30  N   UNL     1      51.553   7.657  11.642  0.00  0.00    +0.000 N 
ATOM     31  C   UNL     1      50.219   7.752  11.951  0.00  0.00    +0.000 A 
ATOM     32  O   UNL     1      49.575   6.771  12.311  0.00  0.00    +0.000 OA
ATOM     33  C   UNL     1      49.656   9.079  11.785  0.00  0.00    +0.000 A 
ATOM     34  H   UNL     1      51.973   6.746  11.754  0.00  0.00    +0.000 HD
ENDBRANCH  21  24
ENDBRANCH  19  20
ENDBRANCH   4  19
TORSDOF 6
ENDMDL
MODEL 7
REMARK VINA RESULT:    -6.069      1.587      2.334
REMARK INTER + INTRA:          -9.223
REMARK INTER:                  -7.916
REMARK INTRA:                  -1.307
REMARK UNBOUND:                -1.024
REMARK  Name = 
REMARK  6 active torsions:
REMARK  status: ('A' for Active; 'I' for Inactive)
REMARK    1  A    between atoms: C_2  and  C_3
REMARK    2  A    between atoms: N_10  and  C_11
REMARK    3  A    between atoms: C_11  and  C_12
REMARK    4  A    between atoms: C_15  and  C_16
REMARK    5  A    between atoms: C_16  and  N_17
REMARK    6  A    between atoms: C_18  and  C_20
REMARK                            x       y       z     vdW  Elec       q    Type
REMARK                         _______ _______ _______ _____ _____    ______ ____
ROOT
ATOM      1  C   UNL     1      50.773   7.630  17.601  0.00  0.00    +0.000 A 
ATOM      2  C   UNL     1      51.111   7.614  16.236  0.00  0.00    +0.000 A 
ATOM      3  C   UNL     1      50.271   8.208  15.284  0.00  0.00    +0.000 A 
ATOM      4  C   UNL     1      49.086   8.844  15.676  0.00  0.00    +0.000 A 
ATOM      5  C   UNL     1      48.740   8.837  17.033  0.00  0.00    +0.000 A 
ATOM      6  C   UNL     1      49.579   8.246  17.984  0.00  0.00    +0.000 A 
ENDROOT
BRANCH   1   7
ATOM      7  C   UNL     1      51.655   6.964  18.623  0.00  0.00    +0.000 C 
BRANCH   7  15
ATOM      8  C   UNL     1      52.398   2.623  18.128  0.00  0.00    +0.000 A 
ATOM      9  C   UNL     1      52.191   1.413  17.490  0.00  0.00    +0.000 A 
ATOM     10  C   UNL     1      50.857   1.391  17.031  0.00  0.00    +0.000 A 
ATOM     11  C   UNL     1      50.279   2.571  17.432  0.00  0.00    +0.000 A 
ATOM     12  N   UNL     1      51.231   3.365  18.059  0.00  0.00    +0.000 N 
ATOM     13  C   UNL     1      50.936   4.656  18.556  0.00  0.00    +0.000 C 
ATOM     14  O   UNL     1      49.837   4.877  19.038  0.00  0.00    +0.000 OA
ATOM     15  N   UNL     1      51.940   5.573  18.329  0.00  0.00    +0.000 N 
ATOM     16  H   UNL     1      52.728   5.367  17.721  0.00  0.00    +0.000 HD
BRANCH   8  18
ATOM     17  N   UNL     1      54.522   3.309  19.427  0.00  0.00    +0.000 NA
ATOM     18  C   UNL     1      53.567   2.998  18.845  0.00  0.00    +0.000 C 
ENDBRANCH   8  18
ENDBRANCH   7  15
ENDBRANCH   1   7
BRANCH   4  19
ATOM     19  C   UNL     1      48.183   9.505  14.666  0.00  0.00    +0.000 C 
BRANCH  19  20
ATOM     20  N   UNL     1      47.128   8.624  14.231  0.00  0.00    +0.000 N 
ATOM     21  C   UNL     1      46.990   8.282  12.911  0.00  0.00    +0.000 C 
ATOM     22  O   UNL     1      47.660   8.808  12.027  0.00  0.00    +0.000 OA
ATOM     23  H   UNL     1      46.678   8.059  14.946  0.00  0.00    +0.000 HD
BRANCH  21  24
ATOM     24  C   UNL     1      45.998   7.252  12.591  0.00  0.00    +0.000 A 
ATOM     25  C   UNL     1      44.883   7.559  11.830  0.00  0.00    +0.000 A 
ATOM     26  S   UNL     1      43.898   6.209  11.481  0.00  0.00    +0.000 S 
ATOM     27  C   UNL     1      44.970   5.154  12.274  0.00  0.00    +0.000 A 
ATOM     28  N   UNL     1      44.787   3.806  12.238  0.00  0.00    +0.000 NA
ATOM     29  C   UNL     1      45.690   3.129  12.866  0.00  0.00    +0.000 A 
ATOM     30  N   UNL     1      46.733   3.679  13.566  0.00  0.00    +0.000 N 
ATOM     31  C   UNL     1      46.927   5.034  13.674  0.00  0.00    +0.000 A 
ATOM     32  O   UNL     1      47.804   5.499  14.395  0.00  0.00    +0.000 OA
ATOM     33  C   UNL     1      45.998   5.837  12.900  0.00  0.00    +0.000 A 
ATOM     34  H   UNL     1      47.369   3.095  14.090  0.00  0.00    +0.000 HD
ENDBRANCH  21  24
ENDBRANCH  19  20
ENDBRANCH   4  19
TORSDOF 6
ENDMDL
MODEL 8
REMARK VINA RESULT:    -5.906      1.768      2.810
REMARK INTER + INTRA:          -9.001
REMARK INTER:                  -8.025
REMARK INTRA:                  -0.977
REMARK UNBOUND:                -1.024
REMARK  Name = 
REMARK  6 active torsions:
REMARK  status: ('A' for Active; 'I' for Inactive)
REMARK    1  A    between atoms: C_2  and  C_3
REMARK    2  A    between atoms: N_10  and  C_11
REMARK    3  A    between atoms: C_11  and  C_12
REMARK    4  A    between atoms: C_15  and  C_16
REMARK    5  A    between atoms: C_16  and  N_17
REMARK    6  A    between atoms: C_18  and  C_20
REMARK                            x       y       z     vdW  Elec       q    Type
REMARK                         _______ _______ _______ _____ _____    ______ ____
ROOT
ATOM      1  C   UNL     1      50.911   7.651  16.976  0.00  0.00    +0.000 A 
ATOM      2  C   UNL     1      51.174   7.444  15.609  0.00  0.00    +0.000 A 
ATOM      3  C   UNL     1      50.253   7.852  14.634  0.00  0.00    +0.000 A 
ATOM      4  C   UNL     1      49.060   8.488  15.001  0.00  0.00    +0.000 A 
ATOM      5  C   UNL     1      48.790   8.670  16.362  0.00  0.00    +0.000 A 
ATOM      6  C   UNL     1      49.709   8.265  17.336  0.00  0.00    +0.000 A 
ENDROOT
BRANCH   1   7
ATOM      7  C   UNL     1      51.881   7.184  18.028  0.00  0.00    +0.000 C 
BRANCH   7  15
ATOM      8  C   UNL     1      52.772   2.845  18.173  0.00  0.00    +0.000 A 
ATOM      9  C   UNL     1      52.576   1.543  17.748  0.00  0.00    +0.000 A 
ATOM     10  C   UNL     1      51.218   1.406  17.388  0.00  0.00    +0.000 A 
ATOM     11  C   UNL     1      50.618   2.616  17.636  0.00  0.00    +0.000 A 
ATOM     12  N   UNL     1      51.573   3.529  18.066  0.00  0.00    +0.000 N 
ATOM     13  C   UNL     1      51.255   4.873  18.372  0.00  0.00    +0.000 C 
ATOM     14  O   UNL     1      50.180   5.135  18.886  0.00  0.00    +0.000 OA
ATOM     15  N   UNL     1      52.204   5.773  17.938  0.00  0.00    +0.000 N 
ATOM     16  H   UNL     1      52.962   5.498  17.319  0.00  0.00    +0.000 HD
BRANCH   8  18
ATOM     17  N   UNL     1      54.936   3.796  19.209  0.00  0.00    +0.000 NA
ATOM     18  C   UNL     1      53.965   3.366  18.743  0.00  0.00    +0.000 C 
ENDBRANCH   8  18
ENDBRANCH   7  15
ENDBRANCH   1   7
BRANCH   4  19
ATOM     19  C   UNL     1      48.071   8.951  13.962  0.00  0.00    +0.000 C 
BRANCH  19  20
ATOM     20  N   UNL     1      47.094   7.934  13.661  0.00  0.00    +0.000 N 
ATOM     21  C   UNL     1      47.268   7.074  12.607  0.00  0.00    +0.000 C 
ATOM     22  O   UNL     1      48.179   7.212  11.796  0.00  0.00    +0.000 OA
ATOM     23  H   UNL     1      46.435   7.699  14.397  0.00  0.00    +0.000 HD
BRANCH  21  24
ATOM     24  C   UNL     1      46.311   5.971  12.484  0.00  0.00    +0.000 A 
ATOM     25  C   UNL     1      46.654   4.692  12.887  0.00  0.00    +0.000 A 
ATOM     26  S   UNL     1      45.377   3.566  12.758  0.00  0.00    +0.000 S 
ATOM     27  C   UNL     1      44.299   4.770  12.227  0.00  0.00    +0.000 A 
ATOM     28  N   UNL     1      42.976   4.503  12.054  0.00  0.00    +0.000 NA
ATOM     29  C   UNL     1      42.274   5.517  11.667  0.00  0.00    +0.000 A 
ATOM     30  N   UNL     1      42.783   6.760  11.394  0.00  0.00    +0.000 N 
ATOM     31  C   UNL     1      44.118   7.061  11.504  0.00  0.00    +0.000 A 
ATOM     32  O   UNL     1      44.559   8.149  11.151  0.00  0.00    +0.000 OA
ATOM     33  C   UNL     1      44.934   5.984  12.034  0.00  0.00    +0.000 A 
ATOM     34  H   UNL     1      42.190   7.493  11.033  0.00  0.00    +0.000 HD
ENDBRANCH  21  24
ENDBRANCH  19  20
ENDBRANCH   4  19
TORSDOF 6
ENDMDL
MODEL 9
REMARK VINA RESULT:    -5.797      2.804      3.574
REMARK INTER + INTRA:          -8.855
REMARK INTER:                  -7.977
REMARK INTRA:                  -0.878
REMARK UNBOUND:                -1.024
REMARK  Name = 
REMARK  6 active torsions:
REMARK  status: ('A' for Active; 'I' for Inactive)
REMARK    1  A    between atoms: C_2  and  C_3
REMARK    2  A    between atoms: N_10  and  C_11
REMARK    3  A    between atoms: C_11  and  C_12
REMARK    4  A    between atoms: C_15  and  C_16
REMARK    5  A    between atoms: C_16  and  N_17
REMARK    6  A    between atoms: C_18  and  C_20
REMARK                            x       y       z     vdW  Elec       q    Type
REMARK                         _______ _______ _______ _____ _____    ______ ____
ROOT
ATOM      1  C   UNL     1      50.128   8.584  15.473  0.00  0.00    +0.000 A 
ATOM      2  C   UNL     1      50.576   8.296  14.172  0.00  0.00    +0.000 A 
ATOM      3  C   UNL     1      49.664   8.155  13.116  0.00  0.00    +0.000 A 
ATOM      4  C   UNL     1      48.290   8.316  13.334  0.00  0.00    +0.000 A 
ATOM      5  C   UNL     1      47.845   8.579  14.636  0.00  0.00    +0.000 A 
ATOM      6  C   UNL     1      48.754   8.721  15.689  0.00  0.00    +0.000 A 
ENDROOT
BRANCH   1   7
ATOM      7  C   UNL     1      51.101   8.703  16.617  0.00  0.00    +0.000 C 
BRANCH   7  15
ATOM      8  C   UNL     1      49.816   6.039  19.917  0.00  0.00    +0.000 A 
ATOM      9  C   UNL     1      50.062   5.324  21.076  0.00  0.00    +0.000 A 
ATOM     10  C   UNL     1      51.398   4.873  21.030  0.00  0.00    +0.000 A 
ATOM     11  C   UNL     1      51.918   5.294  19.830  0.00  0.00    +0.000 A 
ATOM     12  N   UNL     1      50.975   6.062  19.159  0.00  0.00    +0.000 N 
ATOM     13  C   UNL     1      51.235   6.660  17.904  0.00  0.00    +0.000 C 
ATOM     14  O   UNL     1      51.938   6.076  17.095  0.00  0.00    +0.000 OA
ATOM     15  N   UNL     1      50.722   7.933  17.786  0.00  0.00    +0.000 N 
ATOM     16  H   UNL     1      50.345   8.437  18.584  0.00  0.00    +0.000 HD
BRANCH   8  18
ATOM     17  N   UNL     1      47.532   6.985  19.174  0.00  0.00    +0.000 NA
ATOM     18  C   UNL     1      48.558   6.557  19.508  0.00  0.00    +0.000 C 
ENDBRANCH   8  18
ENDBRANCH   7  15
ENDBRANCH   1   7
BRANCH   4  19
ATOM     19  C   UNL     1      47.300   8.189  12.205  0.00  0.00    +0.000 C 
BRANCH  19  20
ATOM     20  N   UNL     1      46.675   6.890  12.183  0.00  0.00    +0.000 N 
ATOM     21  C   UNL     1      45.420   6.716  11.657  0.00  0.00    +0.000 C 
ATOM     22  O   UNL     1      44.721   7.663  11.310  0.00  0.00    +0.000 OA
ATOM     23  H   UNL     1      47.283   6.086  12.306  0.00  0.00    +0.000 HD
BRANCH  21  24
ATOM     24  C   UNL     1      44.940   5.338  11.524  0.00  0.00    +0.000 A 
ATOM     25  C   UNL     1      44.275   4.720  12.569  0.00  0.00    +0.000 A 
ATOM     26  S   UNL     1      43.707   3.154  12.189  0.00  0.00    +0.000 S 
ATOM     27  C   UNL     1      44.268   3.281  10.588  0.00  0.00    +0.000 A 
ATOM     28  N   UNL     1      43.988   2.320   9.667  0.00  0.00    +0.000 NA
ATOM     29  C   UNL     1      44.461   2.559   8.488  0.00  0.00    +0.000 A 
ATOM     30  N   UNL     1      45.225   3.648   8.159  0.00  0.00    +0.000 N 
ATOM     31  C   UNL     1      45.576   4.616   9.068  0.00  0.00    +0.000 A 
ATOM     32  O   UNL     1      46.348   5.521   8.772  0.00  0.00    +0.000 OA
ATOM     33  C   UNL     1      44.984   4.447  10.382  0.00  0.00    +0.000 A 
ATOM     34  H   UNL     1      45.618   3.744   7.234  0.00  0.00    +0.000 HD
ENDBRANCH  21  24
ENDBRANCH  19  20
ENDBRANCH   4  19
TORSDOF 6
ENDMDL
