MODEL 1
REMARK VINA RESULT:    -8.351      0.000      0.000
REMARK INTER + INTRA:         -13.077
REMARK INTER:                 -11.769
REMARK INTRA:                  -1.308
REMARK UNBOUND:                -1.308
REMARK  Name = 
REMARK  8 active torsions:
REMARK  status: ('A' for Active; 'I' for Inactive)
REMARK    1  A    between atoms: C_1  and  O_2
REMARK    2  A    between atoms: O_2  and  C_3
REMARK    3  A    between atoms: C_5  and  C_6
REMARK    4  A    between atoms: C_6  and  N_7
REMARK    5  A    between atoms: C_8  and  C_10
REMARK    6  A    between atoms: C_22  and  C_23
REMARK    7  A    between atoms: C_23  and  N_24
REMARK    8  A    between atoms: C_25  and  C_27
REMARK                            x       y       z     vdW  Elec       q    Type
REMARK                         _______ _______ _______ _____ _____    ______ ____
ROOT
ATOM      1  C   UNL     1      44.261   6.002  12.011  0.00  0.00    +0.000 A 
ATOM      2  C   UNL     1      45.021   6.825  12.861  0.00  0.00    +0.000 A 
ATOM      3  C   UNL     1      46.296   7.283  12.511  0.00  0.00    +0.000 A 
ATOM      4  C   UNL     1      46.826   6.847  11.298  0.00  0.00    +0.000 A 
ATOM      5  C   UNL     1      46.084   6.023  10.439  0.00  0.00    +0.000 A 
ATOM      6  C   UNL     1      44.781   5.612  10.764  0.00  0.00    +0.000 A 
ENDROOT
BRANCH   1   8
ATOM      7  C   UNL     1      43.056   4.394  13.254  0.00  0.00    +0.000 C 
ATOM      8  O   UNL     1      43.023   5.530  12.384  0.00  0.00    +0.000 OA
ENDBRANCH   1   8
BRANCH   3   9
ATOM      9  C   UNL     1      47.076   8.195  13.434  0.00  0.00    +0.000 C 
BRANCH   9  10
ATOM     10  N   UNL     1      47.542   7.507  14.613  0.00  0.00    +0.000 N 
ATOM     11  C   UNL     1      48.775   6.906  14.690  0.00  0.00    +0.000 C 
ATOM     12  O   UNL     1      49.580   6.906  13.758  0.00  0.00    +0.000 OA
ATOM     13  H   UNL     1      46.815   7.138  15.218  0.00  0.00    +0.000 HD
BRANCH  11  14
ATOM     14  C   UNL     1      49.085   6.280  15.987  0.00  0.00    +0.000 A 
ATOM     15  C   UNL     1      50.078   6.810  16.798  0.00  0.00    +0.000 A 
ATOM     16  S   UNL     1      50.268   5.980  18.278  0.00  0.00    +0.000 S 
ATOM     17  C   UNL     1      49.058   4.856  17.871  0.00  0.00    +0.000 A 
ATOM     18  N   UNL     1      48.732   3.827  18.708  0.00  0.00    +0.000 NA
ATOM     19  C   UNL     1      47.824   3.040  18.258  0.00  0.00    +0.000 A 
ATOM     20  N   UNL     1      47.189   3.180  17.048  0.00  0.00    +0.000 N 
ATOM     21  C   UNL     1      47.434   4.240  16.201  0.00  0.00    +0.000 A 
ATOM     22  O   UNL     1      46.780   4.397  15.179  0.00  0.00    +0.000 OA
ATOM     23  C   UNL     1      48.490   5.130  16.638  0.00  0.00    +0.000 A 
ATOM     24  H   UNL     1      46.456   2.548  16.767  0.00  0.00    +0.000 HD
ENDBRANCH  11  14
ENDBRANCH   9  10
ENDBRANCH   3   9
BRANCH   6  25
ATOM     25  C   UNL     1      44.001   4.799   9.753  0.00  0.00    +0.000 C 
BRANCH  25  26
ATOM     26  N   UNL     1      44.836   4.256   8.711  0.00  0.00    +0.000 N 
ATOM     27  C   UNL     1      45.362   2.989   8.725  0.00  0.00    +0.000 C 
ATOM     28  O   UNL     1      45.174   2.185   9.636  0.00  0.00    +0.000 OA
ATOM     29  H   UNL     1      44.854   4.767   7.846  0.00  0.00    +0.000 HD
BRANCH  27  30
ATOM     30  C   UNL     1      46.189   2.679   7.572  0.00  0.00    +0.000 A 
ATOM     31  C   UNL     1      46.409   3.364   6.386  0.00  0.00    +0.000 A 
ATOM     32  C   UNL     1      47.330   2.623   5.608  0.00  0.00    +0.000 A 
ATOM     33  C   UNL     1      47.660   1.502   6.329  0.00  0.00    +0.000 A 
ATOM     34  N   UNL     1      46.973   1.545   7.513  0.00  0.00    +0.000 N 
ATOM     35  H   UNL     1      47.025   0.860   8.258  0.00  0.00    +0.000 HD
ENDBRANCH  27  30
ENDBRANCH  25  26
ENDBRANCH   6  25
TORSDOF 7
ENDMDL
MODEL 2
REMARK VINA RESULT:    -7.529      1.856      2.196
REMARK INTER + INTRA:         -11.918
REMARK INTER:                 -10.608
REMARK INTRA:                  -1.310
REMARK UNBOUND:                -1.308
REMARK  Name = 
REMARK  8 active torsions:
REMARK  status: ('A' for Active; 'I' for Inactive)
REMARK    1  A    between atoms: C_1  and  O_2
REMARK    2  A    between atoms: O_2  and  C_3
REMARK    3  A    between atoms: C_5  and  C_6
REMARK    4  A    between atoms: C_6  and  N_7
REMARK    5  A    between atoms: C_8  and  C_10
REMARK    6  A    between atoms: C_22  and  C_23
REMARK    7  A    between atoms: C_23  and  N_24
REMARK    8  A    between atoms: C_25  and  C_27
REMARK                            x       y       z     vdW  Elec       q    Type
REMARK                         _______ _______ _______ _____ _____    ______ ____
ROOT
ATOM      1  C   UNL     1      46.067   5.955  12.428  0.00  0.00    +0.000 A 
ATOM      2  C   UNL     1      46.817   6.878  13.179  0.00  0.00    +0.000 A 
ATOM      3  C   UNL     1      46.586   8.256  13.111  0.00  0.00    +0.000 A 
ATOM      4  C   UNL     1      45.610   8.703  12.221  0.00  0.00    +0.000 A 
ATOM      5  C   UNL     1      44.855   7.797  11.461  0.00  0.00    +0.000 A 
ATOM      6  C   UNL     1      45.048   6.410  11.573  0.00  0.00    +0.000 A 
ENDROOT
BRANCH   1   8
ATOM      7  C   UNL     1      46.757   4.126  13.755  0.00  0.00    +0.000 C 
ATOM      8  O   UNL     1      46.330   4.605  12.476  0.00  0.00    +0.000 OA
ENDBRANCH   1   8
BRANCH   3   9
ATOM      9  C   UNL     1      47.388   9.222  13.957  0.00  0.00    +0.000 C 
BRANCH   9  10
ATOM     10  N   UNL     1      47.464   8.804  15.335  0.00  0.00    +0.000 N 
ATOM     11  C   UNL     1      48.653   8.555  15.977  0.00  0.00    +0.000 C 
ATOM     12  O   UNL     1      49.748   8.668  15.426  0.00  0.00    +0.000 OA
ATOM     13  H   UNL     1      46.643   8.323  15.690  0.00  0.00    +0.000 HD
BRANCH  11  14
ATOM     14  C   UNL     1      48.529   8.168  17.393  0.00  0.00    +0.000 A 
ATOM     15  C   UNL     1      48.251   9.127  18.357  0.00  0.00    +0.000 A 
ATOM     16  S   UNL     1      48.102   8.490  19.933  0.00  0.00    +0.000 S 
ATOM     17  C   UNL     1      48.447   6.915  19.392  0.00  0.00    +0.000 A 
ATOM     18  N   UNL     1      48.512   5.863  20.262  0.00  0.00    +0.000 NA
ATOM     19  C   UNL     1      48.811   4.739  19.718  0.00  0.00    +0.000 A 
ATOM     20  N   UNL     1      49.044   4.549  18.378  0.00  0.00    +0.000 N 
ATOM     21  C   UNL     1      48.922   5.565  17.454  0.00  0.00    +0.000 A 
ATOM     22  O   UNL     1      49.031   5.347  16.255  0.00  0.00    +0.000 OA
ATOM     23  C   UNL     1      48.637   6.867  18.022  0.00  0.00    +0.000 A 
ATOM     24  H   UNL     1      49.238   3.633  18.006  0.00  0.00    +0.000 HD
ENDBRANCH  11  14
ENDBRANCH   9  10
ENDBRANCH   3   9
BRANCH   6  25
ATOM     25  C   UNL     1      44.138   5.484  10.793  0.00  0.00    +0.000 C 
BRANCH  25  26
ATOM     26  N   UNL     1      44.838   4.750   9.768  0.00  0.00    +0.000 N 
ATOM     27  C   UNL     1      44.651   3.415   9.512  0.00  0.00    +0.000 C 
ATOM     28  O   UNL     1      43.864   2.707  10.137  0.00  0.00    +0.000 OA
ATOM     29  H   UNL     1      45.326   5.301   9.084  0.00  0.00    +0.000 HD
BRANCH  27  30
ATOM     30  C   UNL     1      45.485   2.897   8.442  0.00  0.00    +0.000 A 
ATOM     31  C   UNL     1      45.915   3.465   7.251  0.00  0.00    +0.000 A 
ATOM     32  C   UNL     1      46.734   2.526   6.580  0.00  0.00    +0.000 A 
ATOM     33  C   UNL     1      46.796   1.404   7.369  0.00  0.00    +0.000 A 
ATOM     34  N   UNL     1      46.045   1.636   8.492  0.00  0.00    +0.000 N 
ATOM     35  H   UNL     1      45.914   0.995   9.265  0.00  0.00    +0.000 HD
ENDBRANCH  27  30
ENDBRANCH  25  26
ENDBRANCH   6  25
TORSDOF 7
ENDMDL
MODEL 3
REMARK VINA RESULT:    -7.425      2.133      3.662
REMARK INTER + INTRA:         -11.772
REMARK INTER:                 -10.439
REMARK INTRA:                  -1.333
REMARK UNBOUND:                -1.308
REMARK  Name = 
REMARK  8 active torsions:
REMARK  status: ('A' for Active; 'I' for Inactive)
REMARK    1  A    between atoms: C_1  and  O_2
REMARK    2  A    between atoms: O_2  and  C_3
REMARK    3  A    between atoms: C_5  and  C_6
REMARK    4  A    between atoms: C_6  and  N_7
REMARK    5  A    between atoms: C_8  and  C_10
REMARK    6  A    between atoms: C_22  and  C_23
REMARK    7  A    between atoms: C_23  and  N_24
REMARK    8  A    between atoms: C_25  and  C_27
REMARK                            x       y       z     vdW  Elec       q    Type
REMARK                         _______ _______ _______ _____ _____    ______ ____
ROOT
ATOM      1  C   UNL     1      45.006   5.604  12.303  0.00  0.00    +0.000 A 
ATOM      2  C   UNL     1      45.763   5.558  13.487  0.00  0.00    +0.000 A 
ATOM      3  C   UNL     1      46.367   4.381  13.942  0.00  0.00    +0.000 A 
ATOM      4  C   UNL     1      46.146   3.219  13.204  0.00  0.00    +0.000 A 
ATOM      5  C   UNL     1      45.391   3.244  12.023  0.00  0.00    +0.000 A 
ATOM      6  C   UNL     1      44.835   4.438  11.536  0.00  0.00    +0.000 A 
ENDROOT
BRANCH   1   8
ATOM      7  C   UNL     1      45.252   7.897  11.787  0.00  0.00    +0.000 C 
ATOM      8  O   UNL     1      44.388   6.761  11.887  0.00  0.00    +0.000 OA
ENDBRANCH   1   8
BRANCH   3   9
ATOM      9  C   UNL     1      47.203   4.372  15.203  0.00  0.00    +0.000 C 
BRANCH   9  10
ATOM     10  N   UNL     1      47.601   5.700  15.601  0.00  0.00    +0.000 N 
ATOM     11  C   UNL     1      48.781   5.964  16.255  0.00  0.00    +0.000 C 
ATOM     12  O   UNL     1      49.591   5.088  16.553  0.00  0.00    +0.000 OA
ATOM     13  H   UNL     1      46.840   6.357  15.748  0.00  0.00    +0.000 HD
BRANCH  11  14
ATOM     14  C   UNL     1      49.026   7.386  16.551  0.00  0.00    +0.000 A 
ATOM     15  C   UNL     1      49.308   7.791  17.847  0.00  0.00    +0.000 A 
ATOM     16  S   UNL     1      49.604   9.465  17.993  0.00  0.00    +0.000 S 
ATOM     17  C   UNL     1      49.324   9.718  16.335  0.00  0.00    +0.000 A 
ATOM     18  N   UNL     1      49.386  10.968  15.786  0.00  0.00    +0.000 NA
ATOM     19  C   UNL     1      49.122  11.013  14.531  0.00  0.00    +0.000 A 
ATOM     20  N   UNL     1      48.811   9.926  13.752  0.00  0.00    +0.000 N 
ATOM     21  C   UNL     1      48.805   8.639  14.245  0.00  0.00    +0.000 A 
ATOM     22  O   UNL     1      48.628   7.679  13.507  0.00  0.00    +0.000 OA
ATOM     23  C   UNL     1      49.044   8.537  15.670  0.00  0.00    +0.000 A 
ATOM     24  H   UNL     1      48.650  10.022  12.761  0.00  0.00    +0.000 HD
ENDBRANCH  11  14
ENDBRANCH   9  10
ENDBRANCH   3   9
BRANCH   6  25
ATOM     25  C   UNL     1      44.108   4.413  10.208  0.00  0.00    +0.000 C 
BRANCH  25  26
ATOM     26  N   UNL     1      44.805   3.646   9.205  0.00  0.00    +0.000 N 
ATOM     27  C   UNL     1      45.787   4.152   8.391  0.00  0.00    +0.000 C 
ATOM     28  O   UNL     1      46.172   5.319   8.435  0.00  0.00    +0.000 OA
ATOM     29  H   UNL     1      44.701   2.648   9.259  0.00  0.00    +0.000 HD
BRANCH  27  30
ATOM     30  C   UNL     1      46.326   3.189   7.447  0.00  0.00    +0.000 A 
ATOM     31  C   UNL     1      46.723   3.320   6.124  0.00  0.00    +0.000 A 
ATOM     32  C   UNL     1      47.199   2.065   5.676  0.00  0.00    +0.000 A 
ATOM     33  C   UNL     1      47.088   1.190   6.728  0.00  0.00    +0.000 A 
ATOM     34  N   UNL     1      46.567   1.876   7.794  0.00  0.00    +0.000 N 
ATOM     35  H   UNL     1      46.386   1.497   8.716  0.00  0.00    +0.000 HD
ENDBRANCH  27  30
ENDBRANCH  25  26
ENDBRANCH   6  25
TORSDOF 7
ENDMDL
MODEL 4
REMARK VINA RESULT:    -7.352      2.104      2.575
REMARK INTER + INTRA:         -11.668
REMARK INTER:                 -10.596
REMARK INTRA:                  -1.073
REMARK UNBOUND:                -1.308
REMARK  Name = 
REMARK  8 active torsions:
REMARK  status: ('A' for Active; 'I' for Inactive)
REMARK    1  A    between atoms: C_1  and  O_2
REMARK    2  A    between atoms: O_2  and  C_3
REMARK    3  A    between atoms: C_5  and  C_6
REMARK    4  A    between atoms: C_6  and  N_7
REMARK    5  A    between atoms: C_8  and  C_10
REMARK    6  A    between atoms: C_22  and  C_23
REMARK    7  A    between atoms: C_23  and  N_24
REMARK    8  A    between atoms: C_25  and  C_27
REMARK                            x       y       z     vdW  Elec       q    Type
REMARK                         _______ _______ _______ _____ _____    ______ ____
ROOT
ATOM      1  C   UNL     1      44.947   7.326  11.595  0.00  0.00    +0.000 A 
ATOM      2  C   UNL     1      45.876   7.909  12.475  0.00  0.00    +0.000 A 
ATOM      3  C   UNL     1      46.885   7.163  13.095  0.00  0.00    +0.000 A 
ATOM      4  C   UNL     1      46.910   5.790  12.855  0.00  0.00    +0.000 A 
ATOM      5  C   UNL     1      45.990   5.191  11.984  0.00  0.00    +0.000 A 
ATOM      6  C   UNL     1      45.014   5.949  11.316  0.00  0.00    +0.000 A 
ENDROOT
BRANCH   1   8
ATOM      7  C   UNL     1      44.148   9.479  11.042  0.00  0.00    +0.000 C 
ATOM      8  O   UNL     1      43.938   8.064  11.021  0.00  0.00    +0.000 OA
ENDBRANCH   1   8
BRANCH   3   9
ATOM      9  C   UNL     1      47.891   7.827  14.012  0.00  0.00    +0.000 C 
BRANCH   9  10
ATOM     10  N   UNL     1      47.930   7.209  15.314  0.00  0.00    +0.000 N 
ATOM     11  C   UNL     1      49.071   6.660  15.848  0.00  0.00    +0.000 C 
ATOM     12  O   UNL     1      50.150   6.651  15.256  0.00  0.00    +0.000 OA
ATOM     13  H   UNL     1      47.045   6.838  15.647  0.00  0.00    +0.000 HD
BRANCH  11  14
ATOM     14  C   UNL     1      48.921   6.103  17.203  0.00  0.00    +0.000 A 
ATOM     15  C   UNL     1      49.277   4.787  17.460  0.00  0.00    +0.000 A 
ATOM     16  S   UNL     1      49.075   4.329  19.092  0.00  0.00    +0.000 S 
ATOM     17  C   UNL     1      48.463   5.861  19.507  0.00  0.00    +0.000 A 
ATOM     18  N   UNL     1      48.054   6.142  20.779  0.00  0.00    +0.000 NA
ATOM     19  C   UNL     1      47.587   7.326  20.940  0.00  0.00    +0.000 A 
ATOM     20  N   UNL     1      47.494   8.278  19.954  0.00  0.00    +0.000 N 
ATOM     21  C   UNL     1      47.958   8.064  18.673  0.00  0.00    +0.000 A 
ATOM     22  O   UNL     1      47.959   8.962  17.842  0.00  0.00    +0.000 OA
ATOM     23  C   UNL     1      48.447   6.723  18.424  0.00  0.00    +0.000 A 
ATOM     24  H   UNL     1      47.152   9.204  20.152  0.00  0.00    +0.000 HD
ENDBRANCH  11  14
ENDBRANCH   9  10
ENDBRANCH   3   9
BRANCH   6  25
ATOM     25  C   UNL     1      44.110   5.256  10.319  0.00  0.00    +0.000 C 
BRANCH  25  26
ATOM     26  N   UNL     1      44.843   4.579   9.278  0.00  0.00    +0.000 N 
ATOM     27  C   UNL     1      44.986   3.217   9.196  0.00  0.00    +0.000 C 
ATOM     28  O   UNL     1      44.501   2.432  10.008  0.00  0.00    +0.000 OA
ATOM     29  H   UNL     1      45.078   5.130   8.472  0.00  0.00    +0.000 HD
BRANCH  27  30
ATOM     30  C   UNL     1      45.786   2.774   8.067  0.00  0.00    +0.000 A 
ATOM     31  C   UNL     1      46.134   3.405   6.881  0.00  0.00    +0.000 A 
ATOM     32  C   UNL     1      46.955   2.526   6.134  0.00  0.00    +0.000 A 
ATOM     33  C   UNL     1      47.099   1.378   6.874  0.00  0.00    +0.000 A 
ATOM     34  N   UNL     1      46.396   1.536   8.039  0.00  0.00    +0.000 N 
ATOM     35  H   UNL     1      46.329   0.862   8.791  0.00  0.00    +0.000 HD
ENDBRANCH  27  30
ENDBRANCH  25  26
ENDBRANCH   6  25
TORSDOF 7
ENDMDL
MODEL 5
REMARK VINA RESULT:    -7.069      2.492      3.227
REMARK INTER + INTRA:         -11.269
REMARK INTER:                 -10.191
REMARK INTRA:                  -1.078
REMARK UNBOUND:                -1.308
REMARK  Name = 
REMARK  8 active torsions:
REMARK  status: ('A' for Active; 'I' for Inactive)
REMARK    1  A    between atoms: C_1  and  O_2
REMARK    2  A    between atoms: O_2  and  C_3
REMARK    3  A    between atoms: C_5  and  C_6
REMARK    4  A    between atoms: C_6  and  N_7
REMARK    5  A    between atoms: C_8  and  C_10
REMARK    6  A    between atoms: C_22  and  C_23
REMARK    7  A    between atoms: C_23  and  N_24
REMARK    8  A    between atoms: C_25  and  C_27
REMARK                            x       y       z     vdW  Elec       q    Type
REMARK                         _______ _______ _______ _____ _____    ______ ____
ROOT
ATOM      1  C   UNL     1      45.649   4.965  12.777  0.00  0.00    +0.000 A 
ATOM      2  C   UNL     1      46.078   6.235  13.202  0.00  0.00    +0.000 A 
ATOM      3  C   UNL     1      45.555   7.417  12.666  0.00  0.00    +0.000 A 
ATOM      4  C   UNL     1      44.618   7.299  11.640  0.00  0.00    +0.000 A 
ATOM      5  C   UNL     1      44.181   6.041  11.200  0.00  0.00    +0.000 A 
ATOM      6  C   UNL     1      44.663   4.856  11.779  0.00  0.00    +0.000 A 
ENDROOT
BRANCH   1   8
ATOM      7  C   UNL     1      47.025   4.002  14.438  0.00  0.00    +0.000 C 
ATOM      8  O   UNL     1      46.199   3.811  13.286  0.00  0.00    +0.000 OA
ENDBRANCH   1   8
BRANCH   3   9
ATOM      9  C   UNL     1      46.014   8.769  13.169  0.00  0.00    +0.000 C 
BRANCH   9  10
ATOM     10  N   UNL     1      46.842   8.659  14.345  0.00  0.00    +0.000 N 
ATOM     11  C   UNL     1      48.087   9.232  14.441  0.00  0.00    +0.000 C 
ATOM     12  O   UNL     1      48.595   9.883  13.528  0.00  0.00    +0.000 OA
ATOM     13  H   UNL     1      46.668   7.844  14.926  0.00  0.00    +0.000 HD
BRANCH  11  14
ATOM     14  C   UNL     1      48.767   9.037  15.733  0.00  0.00    +0.000 A 
ATOM     15  C   UNL     1      48.147   9.421  16.913  0.00  0.00    +0.000 A 
ATOM     16  S   UNL     1      49.065   9.080  18.311  0.00  0.00    +0.000 S 
ATOM     17  C   UNL     1      50.344   8.445  17.387  0.00  0.00    +0.000 A 
ATOM     18  N   UNL     1      51.489   7.990  17.977  0.00  0.00    +0.000 NA
ATOM     19  C   UNL     1      52.380   7.567  17.156  0.00  0.00    +0.000 A 
ATOM     20  N   UNL     1      52.243   7.538  15.790  0.00  0.00    +0.000 N 
ATOM     21  C   UNL     1      51.081   7.921  15.154  0.00  0.00    +0.000 A 
ATOM     22  O   UNL     1      50.947   7.788  13.945  0.00  0.00    +0.000 OA
ATOM     23  C   UNL     1      50.061   8.458  16.032  0.00  0.00    +0.000 A 
ATOM     24  H   UNL     1      52.967   7.159  15.200  0.00  0.00    +0.000 HD
ENDBRANCH  11  14
ENDBRANCH   9  10
ENDBRANCH   3   9
BRANCH   6  25
ATOM     25  C   UNL     1      44.083   3.534  11.321  0.00  0.00    +0.000 C 
BRANCH  25  26
ATOM     26  N   UNL     1      44.918   2.866  10.353  0.00  0.00    +0.000 N 
ATOM     27  C   UNL     1      44.914   3.143   9.010  0.00  0.00    +0.000 C 
ATOM     28  O   UNL     1      44.193   3.995   8.493  0.00  0.00    +0.000 OA
ATOM     29  H   UNL     1      45.677   2.322  10.723  0.00  0.00    +0.000 HD
BRANCH  27  30
ATOM     30  C   UNL     1      45.828   2.324   8.234  0.00  0.00    +0.000 A 
ATOM     31  C   UNL     1      46.811   2.659   7.313  0.00  0.00    +0.000 A 
ATOM     32  C   UNL     1      47.429   1.466   6.868  0.00  0.00    +0.000 A 
ATOM     33  C   UNL     1      46.819   0.425   7.522  0.00  0.00    +0.000 A 
ATOM     34  N   UNL     1      45.859   0.949   8.348  0.00  0.00    +0.000 N 
ATOM     35  H   UNL     1      45.256   0.424   8.969  0.00  0.00    +0.000 HD
ENDBRANCH  27  30
ENDBRANCH  25  26
ENDBRANCH   6  25
TORSDOF 7
ENDMDL
MODEL 6
REMARK VINA RESULT:    -6.995      3.149      8.604
REMARK INTER + INTRA:         -11.165
REMARK INTER:                  -9.769
REMARK INTRA:                  -1.396
REMARK UNBOUND:                -1.308
REMARK  Name = 
REMARK  8 active torsions:
REMARK  status: ('A' for Active; 'I' for Inactive)
REMARK    1  A    between atoms: C_1  and  O_2
REMARK    2  A    between atoms: O_2  and  C_3
REMARK    3  A    between atoms: C_5  and  C_6
REMARK    4  A    between atoms: C_6  and  N_7
REMARK    5  A    between atoms: C_8  and  C_10
REMARK    6  A    between atoms: C_22  and  C_23
REMARK    7  A    between atoms: C_23  and  N_24
REMARK    8  A    between atoms: C_25  and  C_27
REMARK                            x       y       z     vdW  Elec       q    Type
REMARK                         _______ _______ _______ _____ _____    ______ ____
ROOT
ATOM      1  C   UNL     1      48.748   6.311  15.609  0.00  0.00    +0.000 A 
ATOM      2  C   UNL     1      47.978   6.518  14.451  0.00  0.00    +0.000 A 
ATOM      3  C   UNL     1      48.429   7.309  13.388  0.00  0.00    +0.000 A 
ATOM      4  C   UNL     1      49.662   7.943  13.535  0.00  0.00    +0.000 A 
ATOM      5  C   UNL     1      50.441   7.752  14.685  0.00  0.00    +0.000 A 
ATOM      6  C   UNL     1      50.015   6.910  15.726  0.00  0.00    +0.000 A 
ENDROOT
BRANCH   1   8
ATOM      7  C   UNL     1      47.548   4.389  16.281  0.00  0.00    +0.000 C 
ATOM      8  O   UNL     1      48.277   5.560  16.662  0.00  0.00    +0.000 OA
ENDBRANCH   1   8
BRANCH   3   9
ATOM      9  C   UNL     1      47.591   7.486  12.140  0.00  0.00    +0.000 C 
BRANCH   9  10
ATOM     10  N   UNL     1      46.821   6.306  11.830  0.00  0.00    +0.000 N 
ATOM     11  C   UNL     1      45.447   6.292  11.811  0.00  0.00    +0.000 C 
ATOM     12  O   UNL     1      44.764   7.286  12.057  0.00  0.00    +0.000 OA
ATOM     13  H   UNL     1      47.285   5.422  12.018  0.00  0.00    +0.000 HD
BRANCH  11  14
ATOM     14  C   UNL     1      44.841   5.002  11.442  0.00  0.00    +0.000 A 
ATOM     15  C   UNL     1      44.037   4.324  12.347  0.00  0.00    +0.000 A 
ATOM     16  S   UNL     1      43.389   2.870  11.731  0.00  0.00    +0.000 S 
ATOM     17  C   UNL     1      44.194   3.071  10.247  0.00  0.00    +0.000 A 
ATOM     18  N   UNL     1      44.093   2.140   9.252  0.00  0.00    +0.000 NA
ATOM     19  C   UNL     1      44.778   2.407   8.200  0.00  0.00    +0.000 A 
ATOM     20  N   UNL     1      45.554   3.527   8.028  0.00  0.00    +0.000 N 
ATOM     21  C   UNL     1      45.631   4.527   8.975  0.00  0.00    +0.000 A 
ATOM     22  O   UNL     1      46.245   5.561   8.754  0.00  0.00    +0.000 OA
ATOM     23  C   UNL     1      44.918   4.249  10.205  0.00  0.00    +0.000 A 
ATOM     24  H   UNL     1      46.039   3.699   7.162  0.00  0.00    +0.000 HD
ENDBRANCH  11  14
ENDBRANCH   9  10
ENDBRANCH   3   9
BRANCH   6  25
ATOM     25  C   UNL     1      50.944   6.674  16.898  0.00  0.00    +0.000 C 
BRANCH  25  26
ATOM     26  N   UNL     1      51.358   5.297  17.012  0.00  0.00    +0.000 N 
ATOM     27  C   UNL     1      51.177   4.528  18.134  0.00  0.00    +0.000 C 
ATOM     28  O   UNL     1      50.642   4.939  19.161  0.00  0.00    +0.000 OA
ATOM     29  H   UNL     1      51.600   4.835  16.154  0.00  0.00    +0.000 HD
BRANCH  27  30
ATOM     30  C   UNL     1      51.696   3.177  18.013  0.00  0.00    +0.000 A 
ATOM     31  C   UNL     1      51.223   2.066  17.330  0.00  0.00    +0.000 A 
ATOM     32  C   UNL     1      52.131   1.000  17.530  0.00  0.00    +0.000 A 
ATOM     33  C   UNL     1      53.144   1.474  18.327  0.00  0.00    +0.000 A 
ATOM     34  N   UNL     1      52.878   2.788  18.610  0.00  0.00    +0.000 N 
ATOM     35  H   UNL     1      53.456   3.407  19.165  0.00  0.00    +0.000 HD
ENDBRANCH  27  30
ENDBRANCH  25  26
ENDBRANCH   6  25
TORSDOF 7
ENDMDL
MODEL 7
REMARK VINA RESULT:    -6.944      2.358      3.041
REMARK INTER + INTRA:         -11.094
REMARK INTER:                 -10.064
REMARK INTRA:                  -1.030
REMARK UNBOUND:                -1.308
REMARK  Name = 
REMARK  8 active torsions:
REMARK  status: ('A' for Active; 'I' for Inactive)
REMARK    1  A    between atoms: C_1  and  O_2
REMARK    2  A    between atoms: O_2  and  C_3
REMARK    3  A    between atoms: C_5  and  C_6
REMARK    4  A    between atoms: C_6  and  N_7
REMARK    5  A    between atoms: C_8  and  C_10
REMARK    6  A    between atoms: C_22  and  C_23
REMARK    7  A    between atoms: C_23  and  N_24
REMARK    8  A    between atoms: C_25  and  C_27
REMARK                            x       y       z     vdW  Elec       q    Type
REMARK                         _______ _______ _______ _____ _____    ______ ____
ROOT
ATOM      1  C   UNL     1      46.113   6.753  12.767  0.00  0.00    +0.000 A 
ATOM      2  C   UNL     1      47.124   7.383  13.516  0.00  0.00    +0.000 A 
ATOM      3  C   UNL     1      47.860   6.705  14.494  0.00  0.00    +0.000 A 
ATOM      4  C   UNL     1      47.520   5.378  14.750  0.00  0.00    +0.000 A 
ATOM      5  C   UNL     1      46.513   4.734  14.017  0.00  0.00    +0.000 A 
ATOM      6  C   UNL     1      45.815   5.398  12.995  0.00  0.00    +0.000 A 
ENDROOT
BRANCH   1   8
ATOM      7  C   UNL     1      45.329   8.858  12.035  0.00  0.00    +0.000 C 
ATOM      8  O   UNL     1      45.373   7.442  11.834  0.00  0.00    +0.000 OA
ENDBRANCH   1   8
BRANCH   3   9
ATOM      9  C   UNL     1      48.964   7.403  15.259  0.00  0.00    +0.000 C 
BRANCH   9  10
ATOM     10  N   UNL     1      49.932   6.473  15.787  0.00  0.00    +0.000 N 
ATOM     11  C   UNL     1      50.172   6.325  17.131  0.00  0.00    +0.000 C 
ATOM     12  O   UNL     1      49.581   6.976  17.992  0.00  0.00    +0.000 OA
ATOM     13  H   UNL     1      50.691   6.231  15.157  0.00  0.00    +0.000 HD
BRANCH  11  14
ATOM     14  C   UNL     1      51.175   5.303  17.478  0.00  0.00    +0.000 A 
ATOM     15  C   UNL     1      52.430   5.682  17.930  0.00  0.00    +0.000 A 
ATOM     16  S   UNL     1      53.443   4.365  18.322  0.00  0.00    +0.000 S 
ATOM     17  C   UNL     1      52.256   3.239  17.861  0.00  0.00    +0.000 A 
ATOM     18  N   UNL     1      52.491   1.895  17.917  0.00  0.00    +0.000 NA
ATOM     19  C   UNL     1      51.517   1.165  17.510  0.00  0.00    +0.000 A 
ATOM     20  N   UNL     1      50.312   1.641  17.057  0.00  0.00    +0.000 N 
ATOM     21  C   UNL     1      50.002   2.985  17.047  0.00  0.00    +0.000 A 
ATOM     22  O   UNL     1      48.885   3.375  16.738  0.00  0.00    +0.000 OA
ATOM     23  C   UNL     1      51.088   3.857  17.448  0.00  0.00    +0.000 A 
ATOM     24  H   UNL     1      49.571   1.014  16.785  0.00  0.00    +0.000 HD
ENDBRANCH  11  14
ENDBRANCH   9  10
ENDBRANCH   3   9
BRANCH   6  25
ATOM     25  C   UNL     1      44.803   4.620  12.180  0.00  0.00    +0.000 C 
BRANCH  25  26
ATOM     26  N   UNL     1      45.319   4.206  10.899  0.00  0.00    +0.000 N 
ATOM     27  C   UNL     1      44.778   3.201  10.137  0.00  0.00    +0.000 C 
ATOM     28  O   UNL     1      43.792   2.549  10.474  0.00  0.00    +0.000 OA
ATOM     29  H   UNL     1      45.978   4.828  10.465  0.00  0.00    +0.000 HD
BRANCH  27  30
ATOM     30  C   UNL     1      45.487   2.955   8.893  0.00  0.00    +0.000 A 
ATOM     31  C   UNL     1      46.009   1.792   8.346  0.00  0.00    +0.000 A 
ATOM     32  C   UNL     1      46.584   2.109   7.092  0.00  0.00    +0.000 A 
ATOM     33  C   UNL     1      46.402   3.455   6.892  0.00  0.00    +0.000 A 
ATOM     34  N   UNL     1      45.736   3.958   7.979  0.00  0.00    +0.000 N 
ATOM     35  H   UNL     1      45.448   4.920   8.109  0.00  0.00    +0.000 HD
ENDBRANCH  27  30
ENDBRANCH  25  26
ENDBRANCH   6  25
TORSDOF 7
ENDMDL
MODEL 8
REMARK VINA RESULT:    -6.893      1.841      2.452
REMARK INTER + INTRA:         -11.021
REMARK INTER:                 -10.376
REMARK INTRA:                  -0.646
REMARK UNBOUND:                -1.308
REMARK  Name = 
REMARK  8 active torsions:
REMARK  status: ('A' for Active; 'I' for Inactive)
REMARK    1  A    between atoms: C_1  and  O_2
REMARK    2  A    between atoms: O_2  and  C_3
REMARK    3  A    between atoms: C_5  and  C_6
REMARK    4  A    between atoms: C_6  and  N_7
REMARK    5  A    between atoms: C_8  and  C_10
REMARK    6  A    between atoms: C_22  and  C_23
REMARK    7  A    between atoms: C_23  and  N_24
REMARK    8  A    between atoms: C_25  and  C_27
REMARK                            x       y       z     vdW  Elec       q    Type
REMARK                         _______ _______ _______ _____ _____    ______ ____
ROOT
ATOM      1  C   UNL     1      45.422   4.988  12.622  0.00  0.00    +0.000 A 
ATOM      2  C   UNL     1      46.217   5.701  13.537  0.00  0.00    +0.000 A 
ATOM      3  C   UNL     1      47.006   6.789  13.150  0.00  0.00    +0.000 A 
ATOM      4  C   UNL     1      47.026   7.121  11.796  0.00  0.00    +0.000 A 
ATOM      5  C   UNL     1      46.243   6.419  10.868  0.00  0.00    +0.000 A 
ATOM      6  C   UNL     1      45.406   5.364  11.267  0.00  0.00    +0.000 A 
ENDROOT
BRANCH   1   8
ATOM      7  C   UNL     1      43.286   4.160  13.203  0.00  0.00    +0.000 C 
ATOM      8  O   UNL     1      44.679   3.896  13.010  0.00  0.00    +0.000 OA
ENDBRANCH   1   8
BRANCH   3   9
ATOM      9  C   UNL     1      47.825   7.556  14.166  0.00  0.00    +0.000 C 
BRANCH   9  10
ATOM     10  N   UNL     1      48.365   6.697  15.190  0.00  0.00    +0.000 N 
ATOM     11  C   UNL     1      48.757   7.157  16.424  0.00  0.00    +0.000 C 
ATOM     12  O   UNL     1      48.678   8.340  16.753  0.00  0.00    +0.000 OA
ATOM     13  H   UNL     1      48.813   5.849  14.855  0.00  0.00    +0.000 HD
BRANCH  11  14
ATOM     14  C   UNL     1      49.255   6.122  17.347  0.00  0.00    +0.000 A 
ATOM     15  C   UNL     1      48.377   5.463  18.196  0.00  0.00    +0.000 A 
ATOM     16  S   UNL     1      49.125   4.270  19.161  0.00  0.00    +0.000 S 
ATOM     17  C   UNL     1      50.657   4.621  18.511  0.00  0.00    +0.000 A 
ATOM     18  N   UNL     1      51.777   3.965  18.937  0.00  0.00    +0.000 NA
ATOM     19  C   UNL     1      52.866   4.354  18.381  0.00  0.00    +0.000 A 
ATOM     20  N   UNL     1      52.956   5.333  17.423  0.00  0.00    +0.000 N 
ATOM     21  C   UNL     1      51.847   5.973  16.912  0.00  0.00    +0.000 A 
ATOM     22  O   UNL     1      51.945   6.766  15.985  0.00  0.00    +0.000 OA
ATOM     23  C   UNL     1      50.596   5.609  17.544  0.00  0.00    +0.000 A 
ATOM     24  H   UNL     1      53.839   5.567  16.997  0.00  0.00    +0.000 HD
ENDBRANCH  11  14
ENDBRANCH   9  10
ENDBRANCH   3   9
BRANCH   6  25
ATOM     25  C   UNL     1      44.518   4.708  10.230  0.00  0.00    +0.000 C 
BRANCH  25  26
ATOM     26  N   UNL     1      45.264   4.164   9.122  0.00  0.00    +0.000 N 
ATOM     27  C   UNL     1      45.320   2.829   8.811  0.00  0.00    +0.000 C 
ATOM     28  O   UNL     1      44.735   1.957   9.451  0.00  0.00    +0.000 OA
ATOM     29  H   UNL     1      45.583   4.824   8.435  0.00  0.00    +0.000 HD
BRANCH  27  30
ATOM     30  C   UNL     1      46.152   2.524   7.661  0.00  0.00    +0.000 A 
ATOM     31  C   UNL     1      46.365   3.206   6.471  0.00  0.00    +0.000 A 
ATOM     32  C   UNL     1      47.298   2.474   5.699  0.00  0.00    +0.000 A 
ATOM     33  C   UNL     1      47.642   1.361   6.427  0.00  0.00    +0.000 A 
ATOM     34  N   UNL     1      46.952   1.401   7.610  0.00  0.00    +0.000 N 
ATOM     35  H   UNL     1      47.013   0.721   8.358  0.00  0.00    +0.000 HD
ENDBRANCH  27  30
ENDBRANCH  25  26
ENDBRANCH   6  25
TORSDOF 7
ENDMDL
MODEL 9
REMARK VINA RESULT:    -6.811      3.448      8.204
REMARK INTER + INTRA:         -10.906
REMARK INTER:                  -9.651
REMARK INTRA:                  -1.255
REMARK UNBOUND:                -1.308
REMARK  Name = 
REMARK  8 active torsions:
REMARK  status: ('A' for Active; 'I' for Inactive)
REMARK    1  A    between atoms: C_1  and  O_2
REMARK    2  A    between atoms: O_2  and  C_3
REMARK    3  A    between atoms: C_5  and  C_6
REMARK    4  A    between atoms: C_6  and  N_7
REMARK    5  A    between atoms: C_8  and  C_10
REMARK    6  A    between atoms: C_22  and  C_23
REMARK    7  A    between atoms: C_23  and  N_24
REMARK    8  A    between atoms: C_25  and  C_27
REMARK                            x       y       z     vdW  Elec       q    Type
REMARK                         _______ _______ _______ _____ _____    ______ ____
ROOT
ATOM      1  C   UNL     1      48.548   5.833  16.193  0.00  0.00    +0.000 A 
ATOM      2  C   UNL     1      48.200   6.306  14.915  0.00  0.00    +0.000 A 
ATOM      3  C   UNL     1      49.060   7.109  14.157  0.00  0.00    +0.000 A 
ATOM      4  C   UNL     1      50.272   7.480  14.737  0.00  0.00    +0.000 A 
ATOM      5  C   UNL     1      50.634   7.022  16.012  0.00  0.00    +0.000 A 
ATOM      6  C   UNL     1      49.796   6.168  16.748  0.00  0.00    +0.000 A 
ENDROOT
BRANCH   1   8
ATOM      7  C   UNL     1      47.175   3.912  16.277  0.00  0.00    +0.000 C 
ATOM      8  O   UNL     1      47.678   5.075  16.942  0.00  0.00    +0.000 OA
ENDBRANCH   1   8
BRANCH   3   9
ATOM      9  C   UNL     1      48.669   7.574  12.770  0.00  0.00    +0.000 C 
BRANCH   9  10
ATOM     10  N   UNL     1      47.827   6.619  12.093  0.00  0.00    +0.000 N 
ATOM     11  C   UNL     1      46.524   6.884  11.746  0.00  0.00    +0.000 C 
ATOM     12  O   UNL     1      45.972   7.957  11.988  0.00  0.00    +0.000 OA
ATOM     13  H   UNL     1      48.073   5.644  12.234  0.00  0.00    +0.000 HD
BRANCH  11  14
ATOM     14  C   UNL     1      45.834   5.795  11.033  0.00  0.00    +0.000 A 
ATOM     15  C   UNL     1      45.955   5.677   9.656  0.00  0.00    +0.000 A 
ATOM     16  S   UNL     1      45.122   4.334   9.008  0.00  0.00    +0.000 S 
ATOM     17  C   UNL     1      44.535   3.886  10.540  0.00  0.00    +0.000 A 
ATOM     18  N   UNL     1      43.709   2.809  10.697  0.00  0.00    +0.000 NA
ATOM     19  C   UNL     1      43.320   2.607  11.903  0.00  0.00    +0.000 A 
ATOM     20  N   UNL     1      43.682   3.369  12.987  0.00  0.00    +0.000 N 
ATOM     21  C   UNL     1      44.567   4.422  12.889  0.00  0.00    +0.000 A 
ATOM     22  O   UNL     1      44.954   5.018  13.884  0.00  0.00    +0.000 OA
ATOM     23  C   UNL     1      44.996   4.726  11.539  0.00  0.00    +0.000 A 
ATOM     24  H   UNL     1      43.372   3.136  13.917  0.00  0.00    +0.000 HD
ENDBRANCH  11  14
ENDBRANCH   9  10
ENDBRANCH   3   9
BRANCH   6  25
ATOM     25  C   UNL     1      50.286   5.636  18.078  0.00  0.00    +0.000 C 
BRANCH  25  26
ATOM     26  N   UNL     1      51.290   4.611  17.932  0.00  0.00    +0.000 N 
ATOM     27  C   UNL     1      51.015   3.270  17.834  0.00  0.00    +0.000 C 
ATOM     28  O   UNL     1      49.877   2.806  17.863  0.00  0.00    +0.000 OA
ATOM     29  H   UNL     1      52.212   4.925  17.684  0.00  0.00    +0.000 HD
BRANCH  27  30
ATOM     30  C   UNL     1      52.195   2.432  17.713  0.00  0.00    +0.000 A 
ATOM     31  C   UNL     1      53.546   2.717  17.854  0.00  0.00    +0.000 A 
ATOM     32  C   UNL     1      54.276   1.522  17.652  0.00  0.00    +0.000 A 
ATOM     33  C   UNL     1      53.365   0.528  17.395  0.00  0.00    +0.000 A 
ATOM     34  N   UNL     1      52.112   1.082  17.438  0.00  0.00    +0.000 N 
ATOM     35  H   UNL     1      51.238   0.590  17.303  0.00  0.00    +0.000 HD
ENDBRANCH  27  30
ENDBRANCH  25  26
ENDBRANCH   6  25
TORSDOF 7
ENDMDL
