MODEL 1
REMARK VINA RESULT:    -6.746      0.000      0.000
REMARK INTER + INTRA:         -11.483
REMARK INTER:                  -9.703
REMARK INTRA:                  -1.780
REMARK UNBOUND:                -1.780
REMARK  Name = 
REMARK  9 active torsions:
REMARK  status: ('A' for Active; 'I' for Inactive)
REMARK    1  A    between atoms: C_1  and  N_2
REMARK    2  A    between atoms: N_2  and  C_3
REMARK    3  A    between atoms: C_3  and  C_4
REMARK    4  A    between atoms: C_7  and  C_8
REMARK    5  A    between atoms: C_8  and  N_9
REMARK    6  A    between atoms: N_9  and  C_10
REMARK    7  A    between atoms: C_10  and  C_11
REMARK    8  A    between atoms: C_11  and  O_12
REMARK    9  A    between atoms: C_19  and  C_21
REMARK                            x       y       z     vdW  Elec       q    Type
REMARK                         _______ _______ _______ _____ _____    ______ ____
ROOT
ATOM      1  C   UNL     1      47.400   5.690  13.854  0.00  0.00    +0.000 A 
ATOM      2  C   UNL     1      48.260   6.415  14.694  0.00  0.00    +0.000 A 
ATOM      3  C   UNL     1      48.549   5.955  15.976  0.00  0.00    +0.000 A 
ATOM      4  C   UNL     1      47.963   4.776  16.457  0.00  0.00    +0.000 A 
ATOM      5  C   UNL     1      47.100   4.057  15.613  0.00  0.00    +0.000 A 
ATOM      6  C   UNL     1      46.823   4.506  14.323  0.00  0.00    +0.000 A 
ENDROOT
BRANCH   1   7
ATOM      7  C   UNL     1      47.137   6.156  12.445  0.00  0.00    +0.000 C 
BRANCH   7   9
ATOM      8  C   UNL     1      46.231   8.521  12.357  0.00  0.00    +0.000 C 
ATOM      9  N   UNL     1      46.015   7.081  12.251  0.00  0.00    +0.000 N 
ATOM     10  C   UNL     1      44.774   6.685  11.723  0.00  0.00    +0.000 C 
ATOM     11  O   UNL     1      43.928   7.514  11.393  0.00  0.00    +0.000 OA
BRANCH  10  12
ATOM     12  C   UNL     1      44.463   5.253  11.604  0.00  0.00    +0.000 A 
ATOM     13  C   UNL     1      43.738   4.526  12.534  0.00  0.00    +0.000 A 
ATOM     14  S   UNL     1      43.476   2.902  12.079  0.00  0.00    +0.000 S 
ATOM     15  C   UNL     1      44.193   3.159  10.558  0.00  0.00    +0.000 A 
ATOM     16  N   UNL     1      44.196   2.181   9.611  0.00  0.00    +0.000 NA
ATOM     17  C   UNL     1      44.710   2.548   8.482  0.00  0.00    +0.000 A 
ATOM     18  N   UNL     1      45.253   3.783   8.231  0.00  0.00    +0.000 N 
ATOM     19  C   UNL     1      45.405   4.746   9.206  0.00  0.00    +0.000 A 
ATOM     20  O   UNL     1      46.116   5.727   9.020  0.00  0.00    +0.000 OA
ATOM     21  C   UNL     1      44.718   4.433  10.445  0.00  0.00    +0.000 A 
ATOM     22  H   UNL     1      45.705   3.976   7.349  0.00  0.00    +0.000 HD
ENDBRANCH  10  12
ENDBRANCH   7   9
ENDBRANCH   1   7
BRANCH   4  23
ATOM     23  C   UNL     1      48.308   4.206  17.813  0.00  0.00    +0.000 C 
BRANCH  23  24
ATOM     24  N   UNL     1      47.651   4.916  18.915  0.00  0.00    +0.000 NA
ATOM     25  H   UNL     1      47.082   4.240  19.426  0.00  0.00    +0.000 HD
BRANCH  24  26
ATOM     26  C   UNL     1      48.665   5.488  19.820  0.00  0.00    +0.000 C 
BRANCH  26  27
ATOM     27  C   UNL     1      48.624   7.025  19.773  0.00  0.00    +0.000 C 
ATOM     28  C   UNL     1      49.761   7.667  18.978  0.00  0.00    +0.000 C 
ATOM     29  C   UNL     1      49.272   9.094  18.737  0.00  0.00    +0.000 C 
ATOM     30  C   UNL     1      47.744   9.029  18.768  0.00  0.00    +0.000 C 
ATOM     31  C   UNL     1      47.389   7.570  19.061  0.00  0.00    +0.000 C 
BRANCH  27  32
ATOM     32  O   UNL     1      48.655   7.528  21.113  0.00  0.00    +0.000 OA
ATOM     33  H   UNL     1      47.719   7.556  21.395  0.00  0.00    +0.000 HD
ENDBRANCH  27  32
ENDBRANCH  26  27
ENDBRANCH  24  26
ENDBRANCH  23  24
ENDBRANCH   4  23
TORSDOF 8
ENDMDL
MODEL 2
REMARK VINA RESULT:    -6.734      3.072      9.043
REMARK INTER + INTRA:         -11.467
REMARK INTER:                 -10.593
REMARK INTRA:                  -0.874
REMARK UNBOUND:                -1.780
REMARK  Name = 
REMARK  9 active torsions:
REMARK  status: ('A' for Active; 'I' for Inactive)
REMARK    1  A    between atoms: C_1  and  N_2
REMARK    2  A    between atoms: N_2  and  C_3
REMARK    3  A    between atoms: C_3  and  C_4
REMARK    4  A    between atoms: C_7  and  C_8
REMARK    5  A    between atoms: C_8  and  N_9
REMARK    6  A    between atoms: N_9  and  C_10
REMARK    7  A    between atoms: C_10  and  C_11
REMARK    8  A    between atoms: C_11  and  O_12
REMARK    9  A    between atoms: C_19  and  C_21
REMARK                            x       y       z     vdW  Elec       q    Type
REMARK                         _______ _______ _______ _____ _____    ______ ____
ROOT
ATOM      1  C   UNL     1      46.543   7.160  13.053  0.00  0.00    +0.000 A 
ATOM      2  C   UNL     1      45.618   7.760  12.184  0.00  0.00    +0.000 A 
ATOM      3  C   UNL     1      44.679   6.987  11.507  0.00  0.00    +0.000 A 
ATOM      4  C   UNL     1      44.662   5.594  11.660  0.00  0.00    +0.000 A 
ATOM      5  C   UNL     1      45.592   4.997  12.528  0.00  0.00    +0.000 A 
ATOM      6  C   UNL     1      46.522   5.771  13.221  0.00  0.00    +0.000 A 
ENDROOT
BRANCH   1   7
ATOM      7  C   UNL     1      47.517   8.003  13.832  0.00  0.00    +0.000 C 
BRANCH   7   9
ATOM      8  C   UNL     1      49.521   7.326  12.437  0.00  0.00    +0.000 C 
ATOM      9  N   UNL     1      48.936   7.639  13.736  0.00  0.00    +0.000 N 
ATOM     10  C   UNL     1      49.846   7.807  14.794  0.00  0.00    +0.000 C 
ATOM     11  O   UNL     1      51.056   7.676  14.619  0.00  0.00    +0.000 OA
BRANCH  10  12
ATOM     12  C   UNL     1      49.341   8.100  16.143  0.00  0.00    +0.000 A 
ATOM     13  C   UNL     1      49.300   9.362  16.711  0.00  0.00    +0.000 A 
ATOM     14  S   UNL     1      48.587   9.393  18.262  0.00  0.00    +0.000 S 
ATOM     15  C   UNL     1      48.176   7.745  18.161  0.00  0.00    +0.000 A 
ATOM     16  N   UNL     1      47.433   7.149  19.133  0.00  0.00    +0.000 NA
ATOM     17  C   UNL     1      47.138   5.915  18.882  0.00  0.00    +0.000 A 
ATOM     18  N   UNL     1      47.551   5.218  17.774  0.00  0.00    +0.000 N 
ATOM     19  C   UNL     1      48.427   5.740  16.845  0.00  0.00    +0.000 A 
ATOM     20  O   UNL     1      48.973   5.020  16.017  0.00  0.00    +0.000 OA
ATOM     21  C   UNL     1      48.671   7.161  17.010  0.00  0.00    +0.000 A 
ATOM     22  H   UNL     1      47.346   4.234  17.678  0.00  0.00    +0.000 HD
ENDBRANCH  10  12
ENDBRANCH   7   9
ENDBRANCH   1   7
BRANCH   4  23
ATOM     23  C   UNL     1      43.614   4.728  11.001  0.00  0.00    +0.000 C 
BRANCH  23  24
ATOM     24  N   UNL     1      43.755   4.670   9.542  0.00  0.00    +0.000 NA
ATOM     25  H   UNL     1      43.352   5.524   9.156  0.00  0.00    +0.000 HD
BRANCH  24  26
ATOM     26  C   UNL     1      45.181   4.591   9.178  0.00  0.00    +0.000 C 
BRANCH  26  27
ATOM     27  C   UNL     1      45.431   3.408   8.226  0.00  0.00    +0.000 C 
ATOM     28  C   UNL     1      46.664   3.556   7.336  0.00  0.00    +0.000 C 
ATOM     29  C   UNL     1      46.916   2.138   6.828  0.00  0.00    +0.000 C 
ATOM     30  C   UNL     1      46.328   1.200   7.883  0.00  0.00    +0.000 C 
ATOM     31  C   UNL     1      45.721   2.101   8.960  0.00  0.00    +0.000 C 
BRANCH  27  32
ATOM     32  O   UNL     1      44.278   3.234   7.395  0.00  0.00    +0.000 OA
ATOM     33  H   UNL     1      43.567   2.952   8.004  0.00  0.00    +0.000 HD
ENDBRANCH  27  32
ENDBRANCH  26  27
ENDBRANCH  24  26
ENDBRANCH  23  24
ENDBRANCH   4  23
TORSDOF 8
ENDMDL
MODEL 3
REMARK VINA RESULT:    -6.654      2.683      8.916
REMARK INTER + INTRA:         -11.351
REMARK INTER:                 -10.310
REMARK INTRA:                  -1.041
REMARK UNBOUND:                -1.780
REMARK  Name = 
REMARK  9 active torsions:
REMARK  status: ('A' for Active; 'I' for Inactive)
REMARK    1  A    between atoms: C_1  and  N_2
REMARK    2  A    between atoms: N_2  and  C_3
REMARK    3  A    between atoms: C_3  and  C_4
REMARK    4  A    between atoms: C_7  and  C_8
REMARK    5  A    between atoms: C_8  and  N_9
REMARK    6  A    between atoms: N_9  and  C_10
REMARK    7  A    between atoms: C_10  and  C_11
REMARK    8  A    between atoms: C_11  and  O_12
REMARK    9  A    between atoms: C_19  and  C_21
REMARK                            x       y       z     vdW  Elec       q    Type
REMARK                         _______ _______ _______ _____ _____    ______ ____
ROOT
ATOM      1  C   UNL     1      48.125   6.537  13.846  0.00  0.00    +0.000 A 
ATOM      2  C   UNL     1      47.984   7.460  12.798  0.00  0.00    +0.000 A 
ATOM      3  C   UNL     1      46.937   7.342  11.888  0.00  0.00    +0.000 A 
ATOM      4  C   UNL     1      46.025   6.282  11.986  0.00  0.00    +0.000 A 
ATOM      5  C   UNL     1      46.174   5.359  13.034  0.00  0.00    +0.000 A 
ATOM      6  C   UNL     1      47.210   5.485  13.958  0.00  0.00    +0.000 A 
ENDROOT
BRANCH   1   7
ATOM      7  C   UNL     1      49.220   6.702  14.867  0.00  0.00    +0.000 C 
BRANCH   7   9
ATOM      8  C   UNL     1      48.780   8.906  16.038  0.00  0.00    +0.000 C 
ATOM      9  N   UNL     1      48.887   7.451  16.083  0.00  0.00    +0.000 N 
ATOM     10  C   UNL     1      48.418   6.839  17.259  0.00  0.00    +0.000 C 
ATOM     11  O   UNL     1      47.966   7.507  18.188  0.00  0.00    +0.000 OA
BRANCH  10  12
ATOM     12  C   UNL     1      48.510   5.379  17.401  0.00  0.00    +0.000 A 
ATOM     13  C   UNL     1      47.446   4.506  17.252  0.00  0.00    +0.000 A 
ATOM     14  S   UNL     1      47.883   2.862  17.400  0.00  0.00    +0.000 S 
ATOM     15  C   UNL     1      49.533   3.259  17.519  0.00  0.00    +0.000 A 
ATOM     16  N   UNL     1      50.486   2.288  17.556  0.00  0.00    +0.000 NA
ATOM     17  C   UNL     1      51.696   2.743  17.571  0.00  0.00    +0.000 A 
ATOM     18  N   UNL     1      52.035   4.073  17.593  0.00  0.00    +0.000 N 
ATOM     19  C   UNL     1      51.102   5.081  17.709  0.00  0.00    +0.000 A 
ATOM     20  O   UNL     1      51.439   6.228  17.982  0.00  0.00    +0.000 OA
ATOM     21  C   UNL     1      49.732   4.627  17.553  0.00  0.00    +0.000 A 
ATOM     22  H   UNL     1      53.000   4.357  17.681  0.00  0.00    +0.000 HD
ENDBRANCH  10  12
ENDBRANCH   7   9
ENDBRANCH   1   7
BRANCH   4  23
ATOM     23  C   UNL     1      44.835   6.160  11.063  0.00  0.00    +0.000 C 
BRANCH  23  24
ATOM     24  N   UNL     1      45.168   5.530   9.782  0.00  0.00    +0.000 NA
ATOM     25  H   UNL     1      46.179   5.387   9.758  0.00  0.00    +0.000 HD
BRANCH  24  26
ATOM     26  C   UNL     1      44.485   4.229   9.668  0.00  0.00    +0.000 C 
BRANCH  26  27
ATOM     27  C   UNL     1      45.079   3.407   8.511  0.00  0.00    +0.000 C 
ATOM     28  C   UNL     1      46.321   4.022   7.865  0.00  0.00    +0.000 C 
ATOM     29  C   UNL     1      46.931   2.862   7.079  0.00  0.00    +0.000 C 
ATOM     30  C   UNL     1      46.479   1.585   7.790  0.00  0.00    +0.000 C 
ATOM     31  C   UNL     1      45.592   2.038   8.950  0.00  0.00    +0.000 C 
BRANCH  27  32
ATOM     32  O   UNL     1      44.074   3.232   7.506  0.00  0.00    +0.000 OA
ATOM     33  H   UNL     1      44.463   3.609   6.691  0.00  0.00    +0.000 HD
ENDBRANCH  27  32
ENDBRANCH  26  27
ENDBRANCH  24  26
ENDBRANCH  23  24
ENDBRANCH   4  23
TORSDOF 8
ENDMDL
MODEL 4
REMARK VINA RESULT:    -6.591      2.392      3.084
REMARK INTER + INTRA:         -11.261
REMARK INTER:                 -10.001
REMARK INTRA:                  -1.261
REMARK UNBOUND:                -1.780
REMARK  Name = 
REMARK  9 active torsions:
REMARK  status: ('A' for Active; 'I' for Inactive)
REMARK    1  A    between atoms: C_1  and  N_2
REMARK    2  A    between atoms: N_2  and  C_3
REMARK    3  A    between atoms: C_3  and  C_4
REMARK    4  A    between atoms: C_7  and  C_8
REMARK    5  A    between atoms: C_8  and  N_9
REMARK    6  A    between atoms: N_9  and  C_10
REMARK    7  A    between atoms: C_10  and  C_11
REMARK    8  A    between atoms: C_11  and  O_12
REMARK    9  A    between atoms: C_19  and  C_21
REMARK                            x       y       z     vdW  Elec       q    Type
REMARK                         _______ _______ _______ _____ _____    ______ ____
ROOT
ATOM      1  C   UNL     1      47.463   5.748  13.945  0.00  0.00    +0.000 A 
ATOM      2  C   UNL     1      48.340   6.507  14.737  0.00  0.00    +0.000 A 
ATOM      3  C   UNL     1      48.640   6.112  16.037  0.00  0.00    +0.000 A 
ATOM      4  C   UNL     1      48.048   4.966  16.587  0.00  0.00    +0.000 A 
ATOM      5  C   UNL     1      47.169   4.212  15.792  0.00  0.00    +0.000 A 
ATOM      6  C   UNL     1      46.880   4.596  14.483  0.00  0.00    +0.000 A 
ENDROOT
BRANCH   1   7
ATOM      7  C   UNL     1      47.188   6.142  12.518  0.00  0.00    +0.000 C 
BRANCH   7   9
ATOM      8  C   UNL     1      46.295   8.511  12.412  0.00  0.00    +0.000 C 
ATOM      9  N   UNL     1      46.077   7.073  12.288  0.00  0.00    +0.000 N 
ATOM     10  C   UNL     1      44.855   6.686  11.713  0.00  0.00    +0.000 C 
ATOM     11  O   UNL     1      44.025   7.521  11.358  0.00  0.00    +0.000 OA
BRANCH  10  12
ATOM     12  C   UNL     1      44.542   5.256  11.573  0.00  0.00    +0.000 A 
ATOM     13  C   UNL     1      43.801   4.521  12.483  0.00  0.00    +0.000 A 
ATOM     14  S   UNL     1      43.543   2.902  12.005  0.00  0.00    +0.000 S 
ATOM     15  C   UNL     1      44.286   3.174  10.499  0.00  0.00    +0.000 A 
ATOM     16  N   UNL     1      44.302   2.207   9.542  0.00  0.00    +0.000 NA
ATOM     17  C   UNL     1      44.835   2.584   8.426  0.00  0.00    +0.000 A 
ATOM     18  N   UNL     1      45.385   3.821   8.197  0.00  0.00    +0.000 N 
ATOM     19  C   UNL     1      45.524   4.773   9.185  0.00  0.00    +0.000 A 
ATOM     20  O   UNL     1      46.239   5.755   9.022  0.00  0.00    +0.000 OA
ATOM     21  C   UNL     1      44.815   4.448  10.410  0.00  0.00    +0.000 A 
ATOM     22  H   UNL     1      45.853   4.023   7.326  0.00  0.00    +0.000 HD
ENDBRANCH  10  12
ENDBRANCH   7   9
ENDBRANCH   1   7
BRANCH   4  23
ATOM     23  C   UNL     1      48.404   4.464  17.967  0.00  0.00    +0.000 C 
BRANCH  23  24
ATOM     24  N   UNL     1      49.829   4.611  18.279  0.00  0.00    +0.000 NA
ATOM     25  H   UNL     1      49.921   4.670  19.294  0.00  0.00    +0.000 HD
BRANCH  24  26
ATOM     26  C   UNL     1      50.576   3.440  17.786  0.00  0.00    +0.000 C 
BRANCH  26  27
ATOM     27  C   UNL     1      52.053   3.525  18.208  0.00  0.00    +0.000 C 
ATOM     28  C   UNL     1      52.888   2.294  17.854  0.00  0.00    +0.000 C 
ATOM     29  C   UNL     1      54.329   2.785  17.984  0.00  0.00    +0.000 C 
ATOM     30  C   UNL     1      54.286   4.294  17.735  0.00  0.00    +0.000 C 
ATOM     31  C   UNL     1      52.815   4.643  17.500  0.00  0.00    +0.000 C 
BRANCH  27  32
ATOM     32  O   UNL     1      52.117   3.736  19.623  0.00  0.00    +0.000 OA
ATOM     33  H   UNL     1      51.193   3.907  19.895  0.00  0.00    +0.000 HD
ENDBRANCH  27  32
ENDBRANCH  26  27
ENDBRANCH  24  26
ENDBRANCH  23  24
ENDBRANCH   4  23
TORSDOF 8
ENDMDL
MODEL 5
REMARK VINA RESULT:    -6.359      3.089      9.000
REMARK INTER + INTRA:         -10.927
REMARK INTER:                  -9.917
REMARK INTRA:                  -1.010
REMARK UNBOUND:                -1.780
REMARK  Name = 
REMARK  9 active torsions:
REMARK  status: ('A' for Active; 'I' for Inactive)
REMARK    1  A    between atoms: C_1  and  N_2
REMARK    2  A    between atoms: N_2  and  C_3
REMARK    3  A    between atoms: C_3  and  C_4
REMARK    4  A    between atoms: C_7  and  C_8
REMARK    5  A    between atoms: C_8  and  N_9
REMARK    6  A    between atoms: N_9  and  C_10
REMARK    7  A    between atoms: C_10  and  C_11
REMARK    8  A    between atoms: C_11  and  O_12
REMARK    9  A    between atoms: C_19  and  C_21
REMARK                            x       y       z     vdW  Elec       q    Type
REMARK                         _______ _______ _______ _____ _____    ______ ____
ROOT
ATOM      1  C   UNL     1      48.348   7.225  13.771  0.00  0.00    +0.000 A 
ATOM      2  C   UNL     1      47.943   8.165  12.810  0.00  0.00    +0.000 A 
ATOM      3  C   UNL     1      46.930   7.860  11.905  0.00  0.00    +0.000 A 
ATOM      4  C   UNL     1      46.320   6.598  11.920  0.00  0.00    +0.000 A 
ATOM      5  C   UNL     1      46.733   5.659  12.881  0.00  0.00    +0.000 A 
ATOM      6  C   UNL     1      47.734   5.969  13.799  0.00  0.00    +0.000 A 
ENDROOT
BRANCH   1   7
ATOM      7  C   UNL     1      49.400   7.578  14.789  0.00  0.00    +0.000 C 
BRANCH   7   9
ATOM      8  C   UNL     1      47.943   9.112  16.184  0.00  0.00    +0.000 C 
ATOM      9  N   UNL     1      48.927   8.038  16.100  0.00  0.00    +0.000 N 
ATOM     10  C   UNL     1      49.179   7.343  17.296  0.00  0.00    +0.000 C 
ATOM     11  O   UNL     1      48.609   7.648  18.342  0.00  0.00    +0.000 OA
BRANCH  10  12
ATOM     12  C   UNL     1      50.175   6.262  17.308  0.00  0.00    +0.000 A 
ATOM     13  C   UNL     1      51.528   6.442  17.544  0.00  0.00    +0.000 A 
ATOM     14  S   UNL     1      52.417   4.985  17.569  0.00  0.00    +0.000 S 
ATOM     15  C   UNL     1      51.000   4.057  17.413  0.00  0.00    +0.000 A 
ATOM     16  N   UNL     1      51.042   2.699  17.478  0.00  0.00    +0.000 NA
ATOM     17  C   UNL     1      49.879   2.136  17.418  0.00  0.00    +0.000 A 
ATOM     18  N   UNL     1      48.691   2.804  17.259  0.00  0.00    +0.000 N 
ATOM     19  C   UNL     1      48.620   4.163  17.037  0.00  0.00    +0.000 A 
ATOM     20  O   UNL     1      47.583   4.687  16.647  0.00  0.00    +0.000 OA
ATOM     21  C   UNL     1      49.882   4.852  17.237  0.00  0.00    +0.000 A 
ATOM     22  H   UNL     1      47.826   2.296  17.144  0.00  0.00    +0.000 HD
ENDBRANCH  10  12
ENDBRANCH   7   9
ENDBRANCH   1   7
BRANCH   4  23
ATOM     23  C   UNL     1      45.169   6.253  11.004  0.00  0.00    +0.000 C 
BRANCH  23  24
ATOM     24  N   UNL     1      45.596   5.546   9.792  0.00  0.00    +0.000 NA
ATOM     25  H   UNL     1      46.613   5.464   9.821  0.00  0.00    +0.000 HD
BRANCH  24  26
ATOM     26  C   UNL     1      44.995   4.201   9.757  0.00  0.00    +0.000 C 
BRANCH  26  27
ATOM     27  C   UNL     1      45.355   3.483   8.444  0.00  0.00    +0.000 C 
ATOM     28  C   UNL     1      46.490   4.135   7.653  0.00  0.00    +0.000 C 
ATOM     29  C   UNL     1      46.918   3.046   6.671  0.00  0.00    +0.000 C 
ATOM     30  C   UNL     1      46.551   1.714   7.330  0.00  0.00    +0.000 C 
ATOM     31  C   UNL     1      45.889   2.069   8.662  0.00  0.00    +0.000 C 
BRANCH  27  32
ATOM     32  O   UNL     1      44.189   3.423   7.616  0.00  0.00    +0.000 OA
ATOM     33  H   UNL     1      43.933   2.479   7.607  0.00  0.00    +0.000 HD
ENDBRANCH  27  32
ENDBRANCH  26  27
ENDBRANCH  24  26
ENDBRANCH  23  24
ENDBRANCH   4  23
TORSDOF 8
ENDMDL
MODEL 6
REMARK VINA RESULT:    -6.038      2.779      8.067
REMARK INTER + INTRA:         -10.466
REMARK INTER:                  -9.063
REMARK INTRA:                  -1.402
REMARK UNBOUND:                -1.780
REMARK  Name = 
REMARK  9 active torsions:
REMARK  status: ('A' for Active; 'I' for Inactive)
REMARK    1  A    between atoms: C_1  and  N_2
REMARK    2  A    between atoms: N_2  and  C_3
REMARK    3  A    between atoms: C_3  and  C_4
REMARK    4  A    between atoms: C_7  and  C_8
REMARK    5  A    between atoms: C_8  and  N_9
REMARK    6  A    between atoms: N_9  and  C_10
REMARK    7  A    between atoms: C_10  and  C_11
REMARK    8  A    between atoms: C_11  and  O_12
REMARK    9  A    between atoms: C_19  and  C_21
REMARK                            x       y       z     vdW  Elec       q    Type
REMARK                         _______ _______ _______ _____ _____    ______ ____
ROOT
ATOM      1  C   UNL     1      49.364   7.553  15.508  0.00  0.00    +0.000 A 
ATOM      2  C   UNL     1      48.812   8.844  15.521  0.00  0.00    +0.000 A 
ATOM      3  C   UNL     1      47.862   9.216  14.574  0.00  0.00    +0.000 A 
ATOM      4  C   UNL     1      47.464   8.317  13.575  0.00  0.00    +0.000 A 
ATOM      5  C   UNL     1      48.022   7.028  13.564  0.00  0.00    +0.000 A 
ATOM      6  C   UNL     1      48.960   6.647  14.522  0.00  0.00    +0.000 A 
ENDROOT
BRANCH   1   7
ATOM      7  C   UNL     1      50.344   7.131  16.571  0.00  0.00    +0.000 C 
BRANCH   7   9
ATOM      8  C   UNL     1      50.202   8.544  18.670  0.00  0.00    +0.000 C 
ATOM      9  N   UNL     1      49.923   7.296  17.966  0.00  0.00    +0.000 N 
ATOM     10  C   UNL     1      49.042   6.412  18.614  0.00  0.00    +0.000 C 
ATOM     11  O   UNL     1      48.560   6.684  19.711  0.00  0.00    +0.000 OA
BRANCH  10  12
ATOM     12  C   UNL     1      48.724   5.120  17.988  0.00  0.00    +0.000 A 
ATOM     13  C   UNL     1      47.556   4.847  17.298  0.00  0.00    +0.000 A 
ATOM     14  S   UNL     1      47.513   3.280  16.619  0.00  0.00    +0.000 S 
ATOM     15  C   UNL     1      49.115   2.972  17.100  0.00  0.00    +0.000 A 
ATOM     16  N   UNL     1      49.749   1.826  16.730  0.00  0.00    +0.000 NA
ATOM     17  C   UNL     1      50.985   1.767  17.106  0.00  0.00    +0.000 A 
ATOM     18  N   UNL     1      51.626   2.727  17.849  0.00  0.00    +0.000 N 
ATOM     19  C   UNL     1      50.979   3.827  18.370  0.00  0.00    +0.000 A 
ATOM     20  O   UNL     1      51.506   4.523  19.230  0.00  0.00    +0.000 OA
ATOM     21  C   UNL     1      49.633   4.007  17.858  0.00  0.00    +0.000 A 
ATOM     22  H   UNL     1      52.571   2.581  18.172  0.00  0.00    +0.000 HD
ENDBRANCH  10  12
ENDBRANCH   7   9
ENDBRANCH   1   7
BRANCH   4  23
ATOM     23  C   UNL     1      46.384   8.658  12.575  0.00  0.00    +0.000 C 
BRANCH  23  24
ATOM     24  N   UNL     1      45.119   7.965  12.841  0.00  0.00    +0.000 NA
ATOM     25  H   UNL     1      44.413   8.673  13.046  0.00  0.00    +0.000 HD
BRANCH  24  26
ATOM     26  C   UNL     1      44.709   7.192  11.654  0.00  0.00    +0.000 C 
BRANCH  26  27
ATOM     27  C   UNL     1      44.243   5.783  12.062  0.00  0.00    +0.000 C 
ATOM     28  C   UNL     1      43.402   5.062  11.009  0.00  0.00    +0.000 C 
ATOM     29  C   UNL     1      43.433   3.603  11.459  0.00  0.00    +0.000 C 
ATOM     30  C   UNL     1      44.729   3.433  12.254  0.00  0.00    +0.000 C 
ATOM     31  C   UNL     1      45.399   4.807  12.271  0.00  0.00    +0.000 C 
BRANCH  27  32
ATOM     32  O   UNL     1      43.485   5.881  13.273  0.00  0.00    +0.000 OA
ATOM     33  H   UNL     1      42.557   5.735  13.002  0.00  0.00    +0.000 HD
ENDBRANCH  27  32
ENDBRANCH  26  27
ENDBRANCH  24  26
ENDBRANCH  23  24
ENDBRANCH   4  23
TORSDOF 8
ENDMDL
MODEL 7
REMARK VINA RESULT:    -5.685      3.342      9.300
REMARK INTER + INTRA:          -9.958
REMARK INTER:                  -8.743
REMARK INTRA:                  -1.215
REMARK UNBOUND:                -1.780
REMARK  Name = 
REMARK  9 active torsions:
REMARK  status: ('A' for Active; 'I' for Inactive)
REMARK    1  A    between atoms: C_1  and  N_2
REMARK    2  A    between atoms: N_2  and  C_3
REMARK    3  A    between atoms: C_3  and  C_4
REMARK    4  A    between atoms: C_7  and  C_8
REMARK    5  A    between atoms: C_8  and  N_9
REMARK    6  A    between atoms: N_9  and  C_10
REMARK    7  A    between atoms: C_10  and  C_11
REMARK    8  A    between atoms: C_11  and  O_12
REMARK    9  A    between atoms: C_19  and  C_21
REMARK                            x       y       z     vdW  Elec       q    Type
REMARK                         _______ _______ _______ _____ _____    ______ ____
ROOT
ATOM      1  C   UNL     1      48.134   5.039  16.317  0.00  0.00    +0.000 A 
ATOM      2  C   UNL     1      48.640   6.207  15.725  0.00  0.00    +0.000 A 
ATOM      3  C   UNL     1      48.240   6.581  14.445  0.00  0.00    +0.000 A 
ATOM      4  C   UNL     1      47.349   5.781  13.716  0.00  0.00    +0.000 A 
ATOM      5  C   UNL     1      46.849   4.611  14.312  0.00  0.00    +0.000 A 
ATOM      6  C   UNL     1      47.234   4.244  15.600  0.00  0.00    +0.000 A 
ENDROOT
BRANCH   1   7
ATOM      7  C   UNL     1      48.519   4.668  17.725  0.00  0.00    +0.000 C 
BRANCH   7   9
ATOM      8  C   UNL     1      47.353   6.295  19.281  0.00  0.00    +0.000 C 
ATOM      9  N   UNL     1      48.583   5.759  18.705  0.00  0.00    +0.000 N 
ATOM     10  C   UNL     1      49.777   6.171  19.320  0.00  0.00    +0.000 C 
ATOM     11  O   UNL     1      49.767   6.949  20.272  0.00  0.00    +0.000 OA
BRANCH  10  12
ATOM     12  C   UNL     1      51.064   5.700  18.789  0.00  0.00    +0.000 A 
ATOM     13  C   UNL     1      51.655   4.491  19.117  0.00  0.00    +0.000 A 
ATOM     14  S   UNL     1      53.112   4.191  18.278  0.00  0.00    +0.000 S 
ATOM     15  C   UNL     1      52.920   5.598  17.340  0.00  0.00    +0.000 A 
ATOM     16  N   UNL     1      53.781   5.886  16.326  0.00  0.00    +0.000 NA
ATOM     17  C   UNL     1      53.465   6.946  15.657  0.00  0.00    +0.000 A 
ATOM     18  N   UNL     1      52.396   7.761  15.935  0.00  0.00    +0.000 N 
ATOM     19  C   UNL     1      51.592   7.589  17.041  0.00  0.00    +0.000 A 
ATOM     20  O   UNL     1      50.816   8.466  17.402  0.00  0.00    +0.000 OA
ATOM     21  C   UNL     1      51.821   6.336  17.738  0.00  0.00    +0.000 A 
ATOM     22  H   UNL     1      52.252   8.615  15.417  0.00  0.00    +0.000 HD
ENDBRANCH  10  12
ENDBRANCH   7   9
ENDBRANCH   1   7
BRANCH   4  23
ATOM     23  C   UNL     1      46.835   6.189  12.355  0.00  0.00    +0.000 C 
BRANCH  23  24
ATOM     24  N   UNL     1      45.792   5.293  11.846  0.00  0.00    +0.000 NA
ATOM     25  H   UNL     1      45.013   5.314  12.506  0.00  0.00    +0.000 HD
BRANCH  24  26
ATOM     26  C   UNL     1      45.329   5.758  10.526  0.00  0.00    +0.000 C 
BRANCH  26  27
ATOM     27  C   UNL     1      44.902   4.565   9.653  0.00  0.00    +0.000 C 
ATOM     28  C   UNL     1      45.781   4.330   8.424  0.00  0.00    +0.000 C 
ATOM     29  C   UNL     1      45.424   2.909   7.992  0.00  0.00    +0.000 C 
ATOM     30  C   UNL     1      44.942   2.191   9.254  0.00  0.00    +0.000 C 
ATOM     31  C   UNL     1      45.001   3.226  10.378  0.00  0.00    +0.000 C 
BRANCH  27  32
ATOM     32  O   UNL     1      43.552   4.769   9.223  0.00  0.00    +0.000 OA
ATOM     33  H   UNL     1      43.216   5.500   9.779  0.00  0.00    +0.000 HD
ENDBRANCH  27  32
ENDBRANCH  26  27
ENDBRANCH  24  26
ENDBRANCH  23  24
ENDBRANCH   4  23
TORSDOF 8
ENDMDL
MODEL 8
REMARK VINA RESULT:    -5.457      3.164      8.911
REMARK INTER + INTRA:          -9.629
REMARK INTER:                  -8.394
REMARK INTRA:                  -1.236
REMARK UNBOUND:                -1.780
REMARK  Name = 
REMARK  9 active torsions:
REMARK  status: ('A' for Active; 'I' for Inactive)
REMARK    1  A    between atoms: C_1  and  N_2
REMARK    2  A    between atoms: N_2  and  C_3
REMARK    3  A    between atoms: C_3  and  C_4
REMARK    4  A    between atoms: C_7  and  C_8
REMARK    5  A    between atoms: C_8  and  N_9
REMARK    6  A    between atoms: N_9  and  C_10
REMARK    7  A    between atoms: C_10  and  C_11
REMARK    8  A    between atoms: C_11  and  O_12
REMARK    9  A    between atoms: C_19  and  C_21
REMARK                            x       y       z     vdW  Elec       q    Type
REMARK                         _______ _______ _______ _____ _____    ______ ____
ROOT
ATOM      1  C   UNL     1      49.116   8.584  14.413  0.00  0.00    +0.000 A 
ATOM      2  C   UNL     1      48.457   9.484  13.561  0.00  0.00    +0.000 A 
ATOM      3  C   UNL     1      47.469   9.037  12.688  0.00  0.00    +0.000 A 
ATOM      4  C   UNL     1      47.138   7.677  12.624  0.00  0.00    +0.000 A 
ATOM      5  C   UNL     1      47.804   6.779  13.476  0.00  0.00    +0.000 A 
ATOM      6  C   UNL     1      48.781   7.227  14.364  0.00  0.00    +0.000 A 
ENDROOT
BRANCH   1   7
ATOM      7  C   UNL     1      50.139   9.077  15.401  0.00  0.00    +0.000 C 
BRANCH   7   9
ATOM      8  C   UNL     1      52.391   8.118  14.741  0.00  0.00    +0.000 C 
ATOM      9  N   UNL     1      51.275   8.191  15.680  0.00  0.00    +0.000 N 
ATOM     10  C   UNL     1      51.482   7.574  16.926  0.00  0.00    +0.000 C 
ATOM     11  O   UNL     1      52.537   6.999  17.184  0.00  0.00    +0.000 OA
BRANCH  10  12
ATOM     12  C   UNL     1      50.401   7.577  17.922  0.00  0.00    +0.000 A 
ATOM     13  C   UNL     1      50.136   8.622  18.791  0.00  0.00    +0.000 A 
ATOM     14  S   UNL     1      48.767   8.361  19.778  0.00  0.00    +0.000 S 
ATOM     15  C   UNL     1      48.399   6.909  18.971  0.00  0.00    +0.000 A 
ATOM     16  N   UNL     1      47.261   6.220  19.255  0.00  0.00    +0.000 NA
ATOM     17  C   UNL     1      47.080   5.179  18.509  0.00  0.00    +0.000 A 
ATOM     18  N   UNL     1      47.950   4.746  17.541  0.00  0.00    +0.000 N 
ATOM     19  C   UNL     1      49.182   5.328  17.327  0.00  0.00    +0.000 A 
ATOM     20  O   UNL     1      50.034   4.773  16.643  0.00  0.00    +0.000 OA
ATOM     21  C   UNL     1      49.366   6.579  18.039  0.00  0.00    +0.000 A 
ATOM     22  H   UNL     1      47.783   3.881  17.047  0.00  0.00    +0.000 HD
ENDBRANCH  10  12
ENDBRANCH   7   9
ENDBRANCH   1   7
BRANCH   4  23
ATOM     23  C   UNL     1      46.023   7.163  11.744  0.00  0.00    +0.000 C 
BRANCH  23  24
ATOM     24  N   UNL     1      46.119   5.723  11.482  0.00  0.00    +0.000 NA
ATOM     25  H   UNL     1      46.561   5.288  12.292  0.00  0.00    +0.000 HD
BRANCH  24  26
ATOM     26  C   UNL     1      44.772   5.155  11.292  0.00  0.00    +0.000 C 
BRANCH  26  27
ATOM     27  C   UNL     1      44.674   4.440   9.934  0.00  0.00    +0.000 C 
ATOM     28  C   UNL     1      45.786   4.794   8.946  0.00  0.00    +0.000 C 
ATOM     29  C   UNL     1      45.705   3.685   7.898  0.00  0.00    +0.000 C 
ATOM     30  C   UNL     1      45.101   2.474   8.610  0.00  0.00    +0.000 C 
ATOM     31  C   UNL     1      44.816   2.924  10.044  0.00  0.00    +0.000 C 
BRANCH  27  32
ATOM     32  O   UNL     1      43.410   4.752   9.338  0.00  0.00    +0.000 OA
ATOM     33  H   UNL     1      42.903   5.202  10.043  0.00  0.00    +0.000 HD
ENDBRANCH  27  32
ENDBRANCH  26  27
ENDBRANCH  24  26
ENDBRANCH  23  24
ENDBRANCH   4  23
TORSDOF 8
ENDMDL
MODEL 9
REMARK VINA RESULT:    -5.456      2.580      3.833
REMARK INTER + INTRA:          -9.628
REMARK INTER:                  -7.826
REMARK INTRA:                  -1.803
REMARK UNBOUND:                -1.780
REMARK  Name = 
REMARK  9 active torsions:
REMARK  status: ('A' for Active; 'I' for Inactive)
REMARK    1  A    between atoms: C_1  and  N_2
REMARK    2  A    between atoms: N_2  and  C_3
REMARK    3  A    between atoms: C_3  and  C_4
REMARK    4  A    between atoms: C_7  and  C_8
REMARK    5  A    between atoms: C_8  and  N_9
REMARK    6  A    between atoms: N_9  and  C_10
REMARK    7  A    between atoms: C_10  and  C_11
REMARK    8  A    between atoms: C_11  and  O_12
REMARK    9  A    between atoms: C_19  and  C_21
REMARK                            x       y       z     vdW  Elec       q    Type
REMARK                         _______ _______ _______ _____ _____    ______ ____
ROOT
ATOM      1  C   UNL     1      48.187   8.298  15.323  0.00  0.00    +0.000 A 
ATOM      2  C   UNL     1      47.981   8.814  16.613  0.00  0.00    +0.000 A 
ATOM      3  C   UNL     1      48.843   8.479  17.653  0.00  0.00    +0.000 A 
ATOM      4  C   UNL     1      49.912   7.599  17.436  0.00  0.00    +0.000 A 
ATOM      5  C   UNL     1      50.111   7.083  16.145  0.00  0.00    +0.000 A 
ATOM      6  C   UNL     1      49.260   7.431  15.097  0.00  0.00    +0.000 A 
ENDROOT
BRANCH   1   7
ATOM      7  C   UNL     1      47.292   8.710  14.184  0.00  0.00    +0.000 C 
BRANCH   7   9
ATOM      8  C   UNL     1      48.656   9.769  12.329  0.00  0.00    +0.000 C 
ATOM      9  N   UNL     1      47.864   8.652  12.834  0.00  0.00    +0.000 N 
ATOM     10  C   UNL     1      47.908   7.475  12.067  0.00  0.00    +0.000 C 
ATOM     11  O   UNL     1      48.563   7.415  11.029  0.00  0.00    +0.000 OA
BRANCH  10  12
ATOM     12  C   UNL     1      47.120   6.307  12.490  0.00  0.00    +0.000 A 
ATOM     13  C   UNL     1      47.620   5.245  13.222  0.00  0.00    +0.000 A 
ATOM     14  S   UNL     1      46.442   4.077  13.626  0.00  0.00    +0.000 S 
ATOM     15  C   UNL     1      45.197   5.029  12.962  0.00  0.00    +0.000 A 
ATOM     16  N   UNL     1      43.894   4.655  13.075  0.00  0.00    +0.000 NA
ATOM     17  C   UNL     1      43.059   5.514  12.589  0.00  0.00    +0.000 A 
ATOM     18  N   UNL     1      43.411   6.686  11.967  0.00  0.00    +0.000 N 
ATOM     19  C   UNL     1      44.720   7.027  11.699  0.00  0.00    +0.000 A 
ATOM     20  O   UNL     1      44.991   7.939  10.927  0.00  0.00    +0.000 OA
ATOM     21  C   UNL     1      45.691   6.166  12.349  0.00  0.00    +0.000 A 
ATOM     22  H   UNL     1      42.710   7.275  11.543  0.00  0.00    +0.000 HD
ENDBRANCH  10  12
ENDBRANCH   7   9
ENDBRANCH   1   7
BRANCH   4  23
ATOM     23  C   UNL     1      50.911   7.269  18.520  0.00  0.00    +0.000 C 
BRANCH  23  24
ATOM     24  N   UNL     1      50.968   5.836  18.828  0.00  0.00    +0.000 NA
ATOM     25  H   UNL     1      51.835   5.661  19.337  0.00  0.00    +0.000 HD
BRANCH  24  26
ATOM     26  C   UNL     1      49.820   5.456  19.671  0.00  0.00    +0.000 C 
BRANCH  26  27
ATOM     27  C   UNL     1      48.943   4.416  18.952  0.00  0.00    +0.000 C 
ATOM     28  C   UNL     1      47.673   4.985  18.317  0.00  0.00    +0.000 C 
ATOM     29  C   UNL     1      47.229   3.887  17.352  0.00  0.00    +0.000 C 
ATOM     30  C   UNL     1      48.497   3.119  16.972  0.00  0.00    +0.000 C 
ATOM     31  C   UNL     1      49.637   3.772  17.754  0.00  0.00    +0.000 C 
BRANCH  27  32
ATOM     32  O   UNL     1      48.576   3.397  19.887  0.00  0.00    +0.000 OA
ATOM     33  H   UNL     1      47.887   2.872  19.432  0.00  0.00    +0.000 HD
ENDBRANCH  27  32
ENDBRANCH  26  27
ENDBRANCH  24  26
ENDBRANCH  23  24
ENDBRANCH   4  23
TORSDOF 8
ENDMDL
