MODEL 1
REMARK VINA RESULT:    -8.482      0.000      0.000
REMARK INTER + INTRA:         -12.125
REMARK INTER:                 -11.210
REMARK INTRA:                  -0.915
REMARK UNBOUND:                -0.915
REMARK  Name = 
REMARK  6 active torsions:
REMARK  status: ('A' for Active; 'I' for Inactive)
REMARK    1  A    between atoms: C_2  and  C_4
REMARK    2  A    between atoms: C_7  and  O_8
REMARK    3  A    between atoms: O_8  and  C_9
REMARK    4  A    between atoms: C_9  and  C_10
REMARK    5  A    between atoms: C_14  and  N_15
REMARK    6  A    between atoms: C_18  and  N_19
REMARK                            x       y       z     vdW  Elec       q    Type
REMARK                         _______ _______ _______ _____ _____    ______ ____
ROOT
ATOM      1  C   UNL     1      44.593   4.634  12.132  0.00  0.00    +0.000 A 
ATOM      2  C   UNL     1      45.299   3.718  12.896  0.00  0.00    +0.000 A 
ATOM      3  N   UNL     1      46.424   4.019  13.577  0.00  0.00    +0.000 NA
ATOM      4  C   UNL     1      46.857   5.306  13.495  0.00  0.00    +0.000 A 
ATOM      5  C   UNL     1      46.237   6.330  12.775  0.00  0.00    +0.000 A 
ATOM      6  C   UNL     1      45.065   5.952  12.109  0.00  0.00    +0.000 A 
ENDROOT
BRANCH   5   7
ATOM      7  N   UNL     1      46.678   7.641  12.726  0.00  0.00    +0.000 N 
ATOM      8  C   UNL     1      45.786   8.766  13.002  0.00  0.00    +0.000 C 
ATOM      9  C   UNL     1      46.145   9.912  12.052  0.00  0.00    +0.000 C 
ATOM     10  C   UNL     1      47.637  10.276  12.079  0.00  0.00    +0.000 C 
ATOM     11  C   UNL     1      48.509   9.023  11.930  0.00  0.00    +0.000 C 
ATOM     12  C   UNL     1      48.108   7.925  12.909  0.00  0.00    +0.000 C 
BRANCH  10  13
ATOM     13  N   UNL     1      47.998  11.021  13.290  0.00  0.00    +0.000 NA
ATOM     14  H   UNL     1      47.926  12.025  13.134  0.00  0.00    +0.000 HD
ATOM     15  H   UNL     1      48.973  10.840  13.525  0.00  0.00    +0.000 HD
ENDBRANCH  10  13
ENDBRANCH   5   7
BRANCH   1  16
ATOM     16  C   UNL     1      43.391   4.236  11.329  0.00  0.00    +0.000 C 
BRANCH  16  17
ATOM     17  O   UNL     1      43.571   4.561   9.953  0.00  0.00    +0.000 OA
BRANCH  17  21
ATOM     18  C   UNL     1      46.398   2.420   7.741  0.00  0.00    +0.000 A 
ATOM     19  C   UNL     1      45.569   1.719   8.621  0.00  0.00    +0.000 A 
ATOM     20  C   UNL     1      44.612   2.403   9.381  0.00  0.00    +0.000 A 
ATOM     21  C   UNL     1      44.477   3.791   9.271  0.00  0.00    +0.000 A 
ATOM     22  C   UNL     1      45.325   4.490   8.407  0.00  0.00    +0.000 A 
ATOM     23  C   UNL     1      46.287   3.811   7.649  0.00  0.00    +0.000 A 
BRANCH  18  25
ATOM     24  N   UNL     1      48.497   2.452   6.508  0.00  0.00    +0.000 N 
ATOM     25  C   UNL     1      47.412   1.723   6.910  0.00  0.00    +0.000 C 
ATOM     26  O   UNL     1      47.310   0.536   6.628  0.00  0.00    +0.000 OA
ATOM     27  H   UNL     1      49.235   1.938   6.044  0.00  0.00    +0.000 HD
ATOM     28  H   UNL     1      48.742   3.336   6.936  0.00  0.00    +0.000 HD
ENDBRANCH  18  25
ENDBRANCH  17  21
ENDBRANCH  16  17
ENDBRANCH   1  16
TORSDOF 6
ENDMDL
MODEL 2
REMARK VINA RESULT:    -8.247      1.894      3.591
REMARK INTER + INTRA:         -11.814
REMARK INTER:                 -10.955
REMARK INTRA:                  -0.859
REMARK UNBOUND:                -0.915
REMARK  Name = 
REMARK  6 active torsions:
REMARK  status: ('A' for Active; 'I' for Inactive)
REMARK    1  A    between atoms: C_2  and  C_4
REMARK    2  A    between atoms: C_7  and  O_8
REMARK    3  A    between atoms: O_8  and  C_9
REMARK    4  A    between atoms: C_9  and  C_10
REMARK    5  A    between atoms: C_14  and  N_15
REMARK    6  A    between atoms: C_18  and  N_19
REMARK                            x       y       z     vdW  Elec       q    Type
REMARK                         _______ _______ _______ _____ _____    ______ ____
ROOT
ATOM      1  C   UNL     1      44.839   5.402  11.954  0.00  0.00    +0.000 A 
ATOM      2  C   UNL     1      45.140   6.664  11.470  0.00  0.00    +0.000 A 
ATOM      3  N   UNL     1      46.093   7.461  11.995  0.00  0.00    +0.000 NA
ATOM      4  C   UNL     1      46.787   6.962  13.054  0.00  0.00    +0.000 A 
ATOM      5  C   UNL     1      46.596   5.705  13.632  0.00  0.00    +0.000 A 
ATOM      6  C   UNL     1      45.604   4.925  13.025  0.00  0.00    +0.000 A 
ENDROOT
BRANCH   5   7
ATOM      7  N   UNL     1      47.329   5.203  14.693  0.00  0.00    +0.000 N 
ATOM      8  C   UNL     1      47.439   3.767  14.944  0.00  0.00    +0.000 C 
ATOM      9  C   UNL     1      47.420   3.538  16.459  0.00  0.00    +0.000 C 
ATOM     10  C   UNL     1      48.457   4.386  17.211  0.00  0.00    +0.000 C 
ATOM     11  C   UNL     1      48.376   5.857  16.785  0.00  0.00    +0.000 C 
ATOM     12  C   UNL     1      48.409   6.016  15.268  0.00  0.00    +0.000 C 
BRANCH  10  13
ATOM     13  N   UNL     1      49.818   3.867  17.039  0.00  0.00    +0.000 NA
ATOM     14  H   UNL     1      50.510   4.578  17.270  0.00  0.00    +0.000 HD
ATOM     15  H   UNL     1      49.972   3.630  16.060  0.00  0.00    +0.000 HD
ENDBRANCH  10  13
ENDBRANCH   5   7
BRANCH   1  16
ATOM     16  C   UNL     1      43.717   4.583  11.388  0.00  0.00    +0.000 C 
BRANCH  16  17
ATOM     17  O   UNL     1      43.691   4.674   9.966  0.00  0.00    +0.000 OA
BRANCH  17  21
ATOM     18  C   UNL     1      46.352   2.296   7.790  0.00  0.00    +0.000 A 
ATOM     19  C   UNL     1      45.487   1.674   8.694  0.00  0.00    +0.000 A 
ATOM     20  C   UNL     1      44.584   2.438   9.443  0.00  0.00    +0.000 A 
ATOM     21  C   UNL     1      44.539   3.828   9.298  0.00  0.00    +0.000 A 
ATOM     22  C   UNL     1      45.423   4.448   8.409  0.00  0.00    +0.000 A 
ATOM     23  C   UNL     1      46.331   3.688   7.662  0.00  0.00    +0.000 A 
BRANCH  18  25
ATOM     24  N   UNL     1      48.426   2.165   6.523  0.00  0.00    +0.000 N 
ATOM     25  C   UNL     1      47.311   1.513   6.970  0.00  0.00    +0.000 C 
ATOM     26  O   UNL     1      47.138   0.324   6.735  0.00  0.00    +0.000 OA
ATOM     27  H   UNL     1      49.126   1.594   6.067  0.00  0.00    +0.000 HD
ATOM     28  H   UNL     1      48.727   3.049   6.912  0.00  0.00    +0.000 HD
ENDBRANCH  18  25
ENDBRANCH  17  21
ENDBRANCH  16  17
ENDBRANCH   1  16
TORSDOF 6
ENDMDL
MODEL 3
REMARK VINA RESULT:    -7.692      1.571      2.473
REMARK INTER + INTRA:         -11.080
REMARK INTER:                 -10.376
REMARK INTRA:                  -0.704
REMARK UNBOUND:                -0.915
REMARK  Name = 
REMARK  6 active torsions:
REMARK  status: ('A' for Active; 'I' for Inactive)
REMARK    1  A    between atoms: C_2  and  C_4
REMARK    2  A    between atoms: C_7  and  O_8
REMARK    3  A    between atoms: O_8  and  C_9
REMARK    4  A    between atoms: C_9  and  C_10
REMARK    5  A    between atoms: C_14  and  N_15
REMARK    6  A    between atoms: C_18  and  N_19
REMARK                            x       y       z     vdW  Elec       q    Type
REMARK                         _______ _______ _______ _____ _____    ______ ____
ROOT
ATOM      1  C   UNL     1      44.453   5.176  11.692  0.00  0.00    +0.000 A 
ATOM      2  C   UNL     1      43.587   6.192  11.322  0.00  0.00    +0.000 A 
ATOM      3  N   UNL     1      43.900   7.503  11.384  0.00  0.00    +0.000 NA
ATOM      4  C   UNL     1      45.148   7.809  11.830  0.00  0.00    +0.000 A 
ATOM      5  C   UNL     1      46.122   6.887  12.220  0.00  0.00    +0.000 A 
ATOM      6  C   UNL     1      45.736   5.546  12.113  0.00  0.00    +0.000 A 
ENDROOT
BRANCH   5   7
ATOM      7  N   UNL     1      47.397   7.218  12.646  0.00  0.00    +0.000 N 
ATOM      8  C   UNL     1      48.143   6.370  13.576  0.00  0.00    +0.000 C 
ATOM      9  C   UNL     1      48.930   7.275  14.529  0.00  0.00    +0.000 C 
ATOM     10  C   UNL     1      49.793   8.315  13.801  0.00  0.00    +0.000 C 
ATOM     11  C   UNL     1      48.974   9.062  12.740  0.00  0.00    +0.000 C 
ATOM     12  C   UNL     1      48.223   8.106  11.819  0.00  0.00    +0.000 C 
BRANCH  10  13
ATOM     13  N   UNL     1      50.992   7.714  13.206  0.00  0.00    +0.000 NA
ATOM     14  H   UNL     1      51.718   8.414  13.066  0.00  0.00    +0.000 HD
ATOM     15  H   UNL     1      50.767   7.350  12.281  0.00  0.00    +0.000 HD
ENDBRANCH  10  13
ENDBRANCH   5   7
BRANCH   1  16
ATOM     16  C   UNL     1      44.036   3.735  11.680  0.00  0.00    +0.000 C 
BRANCH  16  17
ATOM     17  O   UNL     1      43.541   3.361  10.397  0.00  0.00    +0.000 OA
BRANCH  17  21
ATOM     18  C   UNL     1      46.462   2.637   7.496  0.00  0.00    +0.000 A 
ATOM     19  C   UNL     1      45.934   3.927   7.605  0.00  0.00    +0.000 A 
ATOM     20  C   UNL     1      44.952   4.206   8.563  0.00  0.00    +0.000 A 
ATOM     21  C   UNL     1      44.487   3.202   9.417  0.00  0.00    +0.000 A 
ATOM     22  C   UNL     1      45.001   1.908   9.288  0.00  0.00    +0.000 A 
ATOM     23  C   UNL     1      45.979   1.623   8.328  0.00  0.00    +0.000 A 
BRANCH  18  25
ATOM     24  N   UNL     1      47.441   2.940   5.288  0.00  0.00    +0.000 N 
ATOM     25  C   UNL     1      47.514   2.312   6.501  0.00  0.00    +0.000 C 
ATOM     26  O   UNL     1      48.435   1.548   6.761  0.00  0.00    +0.000 OA
ATOM     27  H   UNL     1      48.225   2.801   4.664  0.00  0.00    +0.000 HD
ATOM     28  H   UNL     1      46.864   3.758   5.138  0.00  0.00    +0.000 HD
ENDBRANCH  18  25
ENDBRANCH  17  21
ENDBRANCH  16  17
ENDBRANCH   1  16
TORSDOF 6
ENDMDL
MODEL 4
REMARK VINA RESULT:    -7.130      1.562      2.399
REMARK INTER + INTRA:         -10.338
REMARK INTER:                  -9.545
REMARK INTRA:                  -0.793
REMARK UNBOUND:                -0.915
REMARK  Name = 
REMARK  6 active torsions:
REMARK  status: ('A' for Active; 'I' for Inactive)
REMARK    1  A    between atoms: C_2  and  C_4
REMARK    2  A    between atoms: C_7  and  O_8
REMARK    3  A    between atoms: O_8  and  C_9
REMARK    4  A    between atoms: C_9  and  C_10
REMARK    5  A    between atoms: C_14  and  N_15
REMARK    6  A    between atoms: C_18  and  N_19
REMARK                            x       y       z     vdW  Elec       q    Type
REMARK                         _______ _______ _______ _____ _____    ______ ____
ROOT
ATOM      1  C   UNL     1      44.152   4.355  11.566  0.00  0.00    +0.000 A 
ATOM      2  C   UNL     1      42.970   5.057  11.398  0.00  0.00    +0.000 A 
ATOM      3  N   UNL     1      42.864   6.394  11.545  0.00  0.00    +0.000 NA
ATOM      4  C   UNL     1      44.005   7.061  11.868  0.00  0.00    +0.000 A 
ATOM      5  C   UNL     1      45.262   6.482  12.053  0.00  0.00    +0.000 A 
ATOM      6  C   UNL     1      45.302   5.095  11.866  0.00  0.00    +0.000 A 
ENDROOT
BRANCH   5   7
ATOM      7  N   UNL     1      46.418   7.181  12.355  0.00  0.00    +0.000 N 
ATOM      8  C   UNL     1      47.717   6.800  11.802  0.00  0.00    +0.000 C 
ATOM      9  C   UNL     1      48.783   7.014  12.881  0.00  0.00    +0.000 C 
ATOM     10  C   UNL     1      48.752   8.425  13.489  0.00  0.00    +0.000 C 
ATOM     11  C   UNL     1      47.328   8.808  13.911  0.00  0.00    +0.000 C 
ATOM     12  C   UNL     1      46.318   8.580  12.791  0.00  0.00    +0.000 C 
BRANCH  10  13
ATOM     13  N   UNL     1      49.314   9.427  12.579  0.00  0.00    +0.000 NA
ATOM     14  H   UNL     1      50.280   9.638  12.821  0.00  0.00    +0.000 HD
ATOM     15  H   UNL     1      48.801  10.303  12.675  0.00  0.00    +0.000 HD
ENDBRANCH  10  13
ENDBRANCH   5   7
BRANCH   1  16
ATOM     16  C   UNL     1      44.206   2.859  11.469  0.00  0.00    +0.000 C 
BRANCH  16  17
ATOM     17  O   UNL     1      43.733   2.417  10.199  0.00  0.00    +0.000 OA
BRANCH  17  21
ATOM     18  C   UNL     1      46.510   2.648   7.084  0.00  0.00    +0.000 A 
ATOM     19  C   UNL     1      45.629   3.716   7.274  0.00  0.00    +0.000 A 
ATOM     20  C   UNL     1      44.683   3.673   8.306  0.00  0.00    +0.000 A 
ATOM     21  C   UNL     1      44.606   2.563   9.153  0.00  0.00    +0.000 A 
ATOM     22  C   UNL     1      45.474   1.487   8.944  0.00  0.00    +0.000 A 
ATOM     23  C   UNL     1      46.418   1.524   7.911  0.00  0.00    +0.000 A 
BRANCH  18  25
ATOM     24  N   UNL     1      48.801   2.282   6.348  0.00  0.00    +0.000 N 
ATOM     25  C   UNL     1      47.534   2.670   6.009  0.00  0.00    +0.000 C 
ATOM     26  O   UNL     1      47.255   2.980   4.858  0.00  0.00    +0.000 OA
ATOM     27  H   UNL     1      49.459   2.190   5.586  0.00  0.00    +0.000 HD
ATOM     28  H   UNL     1      49.001   1.777   7.201  0.00  0.00    +0.000 HD
ENDBRANCH  18  25
ENDBRANCH  17  21
ENDBRANCH  16  17
ENDBRANCH   1  16
TORSDOF 6
ENDMDL
MODEL 5
REMARK VINA RESULT:    -6.723      3.789      7.875
REMARK INTER + INTRA:          -9.800
REMARK INTER:                  -9.099
REMARK INTRA:                  -0.701
REMARK UNBOUND:                -0.915
REMARK  Name = 
REMARK  6 active torsions:
REMARK  status: ('A' for Active; 'I' for Inactive)
REMARK    1  A    between atoms: C_2  and  C_4
REMARK    2  A    between atoms: C_7  and  O_8
REMARK    3  A    between atoms: O_8  and  C_9
REMARK    4  A    between atoms: C_9  and  C_10
REMARK    5  A    between atoms: C_14  and  N_15
REMARK    6  A    between atoms: C_18  and  N_19
REMARK                            x       y       z     vdW  Elec       q    Type
REMARK                         _______ _______ _______ _____ _____    ______ ____
ROOT
ATOM      1  C   UNL     1      44.758   4.240  12.372  0.00  0.00    +0.000 A 
ATOM      2  C   UNL     1      43.646   3.470  12.670  0.00  0.00    +0.000 A 
ATOM      3  N   UNL     1      43.112   2.565  11.824  0.00  0.00    +0.000 NA
ATOM      4  C   UNL     1      43.731   2.419  10.621  0.00  0.00    +0.000 A 
ATOM      5  C   UNL     1      44.863   3.118  10.198  0.00  0.00    +0.000 A 
ATOM      6  C   UNL     1      45.375   4.026  11.133  0.00  0.00    +0.000 A 
ENDROOT
BRANCH   5   7
ATOM      7  N   UNL     1      45.494   2.937   8.980  0.00  0.00    +0.000 N 
ATOM      8  C   UNL     1      45.653   1.611   8.384  0.00  0.00    +0.000 C 
ATOM      9  C   UNL     1      47.023   1.548   7.701  0.00  0.00    +0.000 C 
ATOM     10  C   UNL     1      47.264   2.707   6.722  0.00  0.00    +0.000 C 
ATOM     11  C   UNL     1      46.936   4.055   7.377  0.00  0.00    +0.000 C 
ATOM     12  C   UNL     1      45.557   4.054   8.029  0.00  0.00    +0.000 C 
BRANCH  10  13
ATOM     13  N   UNL     1      46.512   2.536   5.475  0.00  0.00    +0.000 NA
ATOM     14  H   UNL     1      47.118   2.199   4.729  0.00  0.00    +0.000 HD
ATOM     15  H   UNL     1      46.156   3.440   5.164  0.00  0.00    +0.000 HD
ENDBRANCH  10  13
ENDBRANCH   5   7
BRANCH   1  16
ATOM     16  C   UNL     1      45.271   5.290  13.312  0.00  0.00    +0.000 C 
BRANCH  16  17
ATOM     17  O   UNL     1      46.696   5.327  13.301  0.00  0.00    +0.000 OA
BRANCH  17  21
ATOM     18  C   UNL     1      48.432   4.539  17.021  0.00  0.00    +0.000 A 
ATOM     19  C   UNL     1      48.668   5.780  16.423  0.00  0.00    +0.000 A 
ATOM     20  C   UNL     1      48.106   6.079  15.177  0.00  0.00    +0.000 A 
ATOM     21  C   UNL     1      47.307   5.141  14.515  0.00  0.00    +0.000 A 
ATOM     22  C   UNL     1      47.093   3.892  15.106  0.00  0.00    +0.000 A 
ATOM     23  C   UNL     1      47.657   3.587  16.350  0.00  0.00    +0.000 A 
BRANCH  18  25
ATOM     24  N   UNL     1      48.338   3.256  19.088  0.00  0.00    +0.000 N 
ATOM     25  C   UNL     1      49.001   4.197  18.349  0.00  0.00    +0.000 C 
ATOM     26  O   UNL     1      50.041   4.701  18.754  0.00  0.00    +0.000 OA
ATOM     27  H   UNL     1      48.797   2.948  19.935  0.00  0.00    +0.000 HD
ATOM     28  H   UNL     1      47.646   2.641  18.681  0.00  0.00    +0.000 HD
ENDBRANCH  18  25
ENDBRANCH  17  21
ENDBRANCH  16  17
ENDBRANCH   1  16
TORSDOF 6
ENDMDL
MODEL 6
REMARK VINA RESULT:    -6.619      4.835      7.897
REMARK INTER + INTRA:          -9.662
REMARK INTER:                  -8.847
REMARK INTRA:                  -0.815
REMARK UNBOUND:                -0.915
REMARK  Name = 
REMARK  6 active torsions:
REMARK  status: ('A' for Active; 'I' for Inactive)
REMARK    1  A    between atoms: C_2  and  C_4
REMARK    2  A    between atoms: C_7  and  O_8
REMARK    3  A    between atoms: O_8  and  C_9
REMARK    4  A    between atoms: C_9  and  C_10
REMARK    5  A    between atoms: C_14  and  N_15
REMARK    6  A    between atoms: C_18  and  N_19
REMARK                            x       y       z     vdW  Elec       q    Type
REMARK                         _______ _______ _______ _____ _____    ______ ____
ROOT
ATOM      1  C   UNL     1      48.305   6.739  14.377  0.00  0.00    +0.000 A 
ATOM      2  C   UNL     1      48.948   7.512  13.425  0.00  0.00    +0.000 A 
ATOM      3  N   UNL     1      48.557   7.593  12.136  0.00  0.00    +0.000 NA
ATOM      4  C   UNL     1      47.459   6.870  11.788  0.00  0.00    +0.000 A 
ATOM      5  C   UNL     1      46.710   6.063  12.647  0.00  0.00    +0.000 A 
ATOM      6  C   UNL     1      47.161   6.040  13.972  0.00  0.00    +0.000 A 
ENDROOT
BRANCH   5   7
ATOM      7  N   UNL     1      45.579   5.354  12.281  0.00  0.00    +0.000 N 
ATOM      8  C   UNL     1      45.283   5.044  10.883  0.00  0.00    +0.000 C 
ATOM      9  C   UNL     1      43.771   5.157  10.671  0.00  0.00    +0.000 C 
ATOM     10  C   UNL     1      42.956   4.334  11.681  0.00  0.00    +0.000 C 
ATOM     11  C   UNL     1      43.425   4.607  13.116  0.00  0.00    +0.000 C 
ATOM     12  C   UNL     1      44.937   4.469  13.260  0.00  0.00    +0.000 C 
BRANCH  10  13
ATOM     13  N   UNL     1      43.000   2.900  11.382  0.00  0.00    +0.000 NA
ATOM     14  H   UNL     1      42.190   2.421  11.772  0.00  0.00    +0.000 HD
ATOM     15  H   UNL     1      43.817   2.483  11.828  0.00  0.00    +0.000 HD
ENDBRANCH  10  13
ENDBRANCH   5   7
BRANCH   1  16
ATOM     16  C   UNL     1      48.821   6.618  15.780  0.00  0.00    +0.000 C 
BRANCH  16  17
ATOM     17  O   UNL     1      48.212   5.517  16.451  0.00  0.00    +0.000 OA
BRANCH  17  21
ATOM     18  C   UNL     1      50.928   2.486  17.403  0.00  0.00    +0.000 A 
ATOM     19  C   UNL     1      49.662   2.125  16.933  0.00  0.00    +0.000 A 
ATOM     20  C   UNL     1      48.725   3.113  16.607  0.00  0.00    +0.000 A 
ATOM     21  C   UNL     1      49.041   4.467  16.750  0.00  0.00    +0.000 A 
ATOM     22  C   UNL     1      50.301   4.823  17.242  0.00  0.00    +0.000 A 
ATOM     23  C   UNL     1      51.239   3.839  17.574  0.00  0.00    +0.000 A 
BRANCH  18  25
ATOM     24  N   UNL     1      51.494   0.230  18.119  0.00  0.00    +0.000 N 
ATOM     25  C   UNL     1      51.949   1.464  17.743  0.00  0.00    +0.000 C 
ATOM     26  O   UNL     1      53.148   1.695  17.654  0.00  0.00    +0.000 OA
ATOM     27  H   UNL     1      52.196  -0.489  18.235  0.00  0.00    +0.000 HD
ATOM     28  H   UNL     1      50.543  -0.069  17.950  0.00  0.00    +0.000 HD
ENDBRANCH  18  25
ENDBRANCH  17  21
ENDBRANCH  16  17
ENDBRANCH   1  16
TORSDOF 6
ENDMDL
MODEL 7
REMARK VINA RESULT:    -6.396      3.427      6.073
REMARK INTER + INTRA:          -9.367
REMARK INTER:                  -8.530
REMARK INTRA:                  -0.838
REMARK UNBOUND:                -0.915
REMARK  Name = 
REMARK  6 active torsions:
REMARK  status: ('A' for Active; 'I' for Inactive)
REMARK    1  A    between atoms: C_2  and  C_4
REMARK    2  A    between atoms: C_7  and  O_8
REMARK    3  A    between atoms: O_8  and  C_9
REMARK    4  A    between atoms: C_9  and  C_10
REMARK    5  A    between atoms: C_14  and  N_15
REMARK    6  A    between atoms: C_18  and  N_19
REMARK                            x       y       z     vdW  Elec       q    Type
REMARK                         _______ _______ _______ _____ _____    ______ ____
ROOT
ATOM      1  C   UNL     1      48.438   7.811  13.768  0.00  0.00    +0.000 A 
ATOM      2  C   UNL     1      49.349   8.804  14.092  0.00  0.00    +0.000 A 
ATOM      3  N   UNL     1      50.124   8.779  15.196  0.00  0.00    +0.000 NA
ATOM      4  C   UNL     1      49.986   7.698  16.011  0.00  0.00    +0.000 A 
ATOM      5  C   UNL     1      49.119   6.624  15.798  0.00  0.00    +0.000 A 
ATOM      6  C   UNL     1      48.359   6.707  14.625  0.00  0.00    +0.000 A 
ENDROOT
BRANCH   5   7
ATOM      7  N   UNL     1      49.011   5.520  16.626  0.00  0.00    +0.000 N 
ATOM      8  C   UNL     1      49.972   5.262  17.697  0.00  0.00    +0.000 C 
ATOM      9  C   UNL     1      50.213   3.751  17.777  0.00  0.00    +0.000 C 
ATOM     10  C   UNL     1      48.916   2.937  17.892  0.00  0.00    +0.000 C 
ATOM     11  C   UNL     1      47.902   3.368  16.824  0.00  0.00    +0.000 C 
ATOM     12  C   UNL     1      47.701   4.880  16.803  0.00  0.00    +0.000 C 
BRANCH  10  13
ATOM     13  N   UNL     1      48.330   3.026  19.233  0.00  0.00    +0.000 NA
ATOM     14  H   UNL     1      48.237   3.996  19.526  0.00  0.00    +0.000 HD
ATOM     15  H   UNL     1      48.954   2.584  19.908  0.00  0.00    +0.000 HD
ENDBRANCH  10  13
ENDBRANCH   5   7
BRANCH   1  16
ATOM     16  C   UNL     1      47.541   7.919  12.571  0.00  0.00    +0.000 C 
BRANCH  16  17
ATOM     17  O   UNL     1      46.193   7.618  12.920  0.00  0.00    +0.000 OA
BRANCH  17  21
ATOM     18  C   UNL     1      44.547   4.083  11.414  0.00  0.00    +0.000 A 
ATOM     19  C   UNL     1      45.123   4.987  10.517  0.00  0.00    +0.000 A 
ATOM     20  C   UNL     1      45.681   6.183  10.984  0.00  0.00    +0.000 A 
ATOM     21  C   UNL     1      45.667   6.488  12.349  0.00  0.00    +0.000 A 
ATOM     22  C   UNL     1      45.068   5.591  13.239  0.00  0.00    +0.000 A 
ATOM     23  C   UNL     1      44.504   4.397  12.776  0.00  0.00    +0.000 A 
BRANCH  18  25
ATOM     24  N   UNL     1      44.577   2.174   9.904  0.00  0.00    +0.000 N 
ATOM     25  C   UNL     1      43.960   2.800  10.951  0.00  0.00    +0.000 C 
ATOM     26  O   UNL     1      42.990   2.298  11.505  0.00  0.00    +0.000 OA
ATOM     27  H   UNL     1      44.240   1.248   9.675  0.00  0.00    +0.000 HD
ATOM     28  H   UNL     1      45.512   2.418   9.604  0.00  0.00    +0.000 HD
ENDBRANCH  18  25
ENDBRANCH  17  21
ENDBRANCH  16  17
ENDBRANCH   1  16
TORSDOF 6
ENDMDL
MODEL 8
REMARK VINA RESULT:    -6.293      4.261      6.908
REMARK INTER + INTRA:          -9.231
REMARK INTER:                  -8.398
REMARK INTRA:                  -0.834
REMARK UNBOUND:                -0.915
REMARK  Name = 
REMARK  6 active torsions:
REMARK  status: ('A' for Active; 'I' for Inactive)
REMARK    1  A    between atoms: C_2  and  C_4
REMARK    2  A    between atoms: C_7  and  O_8
REMARK    3  A    between atoms: O_8  and  C_9
REMARK    4  A    between atoms: C_9  and  C_10
REMARK    5  A    between atoms: C_14  and  N_15
REMARK    6  A    between atoms: C_18  and  N_19
REMARK                            x       y       z     vdW  Elec       q    Type
REMARK                         _______ _______ _______ _____ _____    ______ ____
ROOT
ATOM      1  C   UNL     1      48.981   7.631  14.684  0.00  0.00    +0.000 A 
ATOM      2  C   UNL     1      48.929   8.982  14.984  0.00  0.00    +0.000 A 
ATOM      3  N   UNL     1      48.787   9.468  16.234  0.00  0.00    +0.000 NA
ATOM      4  C   UNL     1      48.705   8.551  17.236  0.00  0.00    +0.000 A 
ATOM      5  C   UNL     1      48.757   7.164  17.076  0.00  0.00    +0.000 A 
ATOM      6  C   UNL     1      48.923   6.732  15.756  0.00  0.00    +0.000 A 
ENDROOT
BRANCH   5   7
ATOM      7  N   UNL     1      48.697   6.247  18.111  0.00  0.00    +0.000 N 
ATOM      8  C   UNL     1      47.460   5.996  18.849  0.00  0.00    +0.000 C 
ATOM      9  C   UNL     1      47.812   5.774  20.323  0.00  0.00    +0.000 C 
ATOM     10  C   UNL     1      48.893   4.702  20.532  0.00  0.00    +0.000 C 
ATOM     11  C   UNL     1      50.098   4.954  19.616  0.00  0.00    +0.000 C 
ATOM     12  C   UNL     1      49.680   5.157  18.163  0.00  0.00    +0.000 C 
BRANCH  10  13
ATOM     13  N   UNL     1      48.366   3.348  20.340  0.00  0.00    +0.000 NA
ATOM     14  H   UNL     1      47.433   3.374  19.933  0.00  0.00    +0.000 HD
ATOM     15  H   UNL     1      48.267   2.888  21.245  0.00  0.00    +0.000 HD
ENDBRANCH  10  13
ENDBRANCH   5   7
BRANCH   1  16
ATOM     16  C   UNL     1      49.060   7.136  13.271  0.00  0.00    +0.000 C 
BRANCH  16  17
ATOM     17  O   UNL     1      48.480   5.838  13.156  0.00  0.00    +0.000 OA
BRANCH  17  21
ATOM     18  C   UNL     1      44.463   5.924  12.005  0.00  0.00    +0.000 A 
ATOM     19  C   UNL     1      44.826   5.143  13.106  0.00  0.00    +0.000 A 
ATOM     20  C   UNL     1      46.162   5.088  13.519  0.00  0.00    +0.000 A 
ATOM     21  C   UNL     1      47.147   5.807  12.836  0.00  0.00    +0.000 A 
ATOM     22  C   UNL     1      46.783   6.567  11.720  0.00  0.00    +0.000 A 
ATOM     23  C   UNL     1      45.449   6.622  11.301  0.00  0.00    +0.000 A 
BRANCH  18  25
ATOM     24  N   UNL     1      42.608   7.243  11.143  0.00  0.00    +0.000 N 
ATOM     25  C   UNL     1      43.052   6.016  11.551  0.00  0.00    +0.000 C 
ATOM     26  O   UNL     1      42.324   5.033  11.503  0.00  0.00    +0.000 OA
ATOM     27  H   UNL     1      41.686   7.269  10.728  0.00  0.00    +0.000 HD
ATOM     28  H   UNL     1      43.241   8.000  10.921  0.00  0.00    +0.000 HD
ENDBRANCH  18  25
ENDBRANCH  17  21
ENDBRANCH  16  17
ENDBRANCH   1  16
TORSDOF 6
ENDMDL
MODEL 9
REMARK VINA RESULT:    -6.086      4.389      8.550
REMARK INTER + INTRA:          -8.959
REMARK INTER:                  -8.138
REMARK INTRA:                  -0.820
REMARK UNBOUND:                -0.915
REMARK  Name = 
REMARK  6 active torsions:
REMARK  status: ('A' for Active; 'I' for Inactive)
REMARK    1  A    between atoms: C_2  and  C_4
REMARK    2  A    between atoms: C_7  and  O_8
REMARK    3  A    between atoms: O_8  and  C_9
REMARK    4  A    between atoms: C_9  and  C_10
REMARK    5  A    between atoms: C_14  and  N_15
REMARK    6  A    between atoms: C_18  and  N_19
REMARK                            x       y       z     vdW  Elec       q    Type
REMARK                         _______ _______ _______ _____ _____    ______ ____
ROOT
ATOM      1  C   UNL     1      47.465   7.909  13.521  0.00  0.00    +0.000 A 
ATOM      2  C   UNL     1      46.905   9.109  13.115  0.00  0.00    +0.000 A 
ATOM      3  N   UNL     1      45.780   9.199  12.376  0.00  0.00    +0.000 NA
ATOM      4  C   UNL     1      45.180   8.026  12.037  0.00  0.00    +0.000 A 
ATOM      5  C   UNL     1      45.628   6.752  12.390  0.00  0.00    +0.000 A 
ATOM      6  C   UNL     1      46.789   6.733  13.171  0.00  0.00    +0.000 A 
ENDROOT
BRANCH   5   7
ATOM      7  N   UNL     1      44.989   5.570  12.057  0.00  0.00    +0.000 N 
ATOM      8  C   UNL     1      45.133   4.361  12.867  0.00  0.00    +0.000 C 
ATOM      9  C   UNL     1      45.184   3.152  11.927  0.00  0.00    +0.000 C 
ATOM     10  C   UNL     1      44.010   3.106  10.937  0.00  0.00    +0.000 C 
ATOM     11  C   UNL     1      43.833   4.457  10.234  0.00  0.00    +0.000 C 
ATOM     12  C   UNL     1      43.780   5.616  11.224  0.00  0.00    +0.000 C 
BRANCH  10  13
ATOM     13  N   UNL     1      42.763   2.687  11.585  0.00  0.00    +0.000 NA
ATOM     14  H   UNL     1      42.430   3.402  12.230  0.00  0.00    +0.000 HD
ATOM     15  H   UNL     1      42.934   1.855  12.149  0.00  0.00    +0.000 HD
ENDBRANCH  10  13
ENDBRANCH   5   7
BRANCH   1  16
ATOM     16  C   UNL     1      48.760   7.853  14.274  0.00  0.00    +0.000 C 
BRANCH  16  17
ATOM     17  O   UNL     1      49.060   6.516  14.668  0.00  0.00    +0.000 OA
BRANCH  17  21
ATOM     18  C   UNL     1      48.553   5.527  18.698  0.00  0.00    +0.000 A 
ATOM     19  C   UNL     1      49.350   6.630  18.376  0.00  0.00    +0.000 A 
ATOM     20  C   UNL     1      49.545   6.989  17.037  0.00  0.00    +0.000 A 
ATOM     21  C   UNL     1      48.950   6.251  16.009  0.00  0.00    +0.000 A 
ATOM     22  C   UNL     1      48.173   5.135  16.336  0.00  0.00    +0.000 A 
ATOM     23  C   UNL     1      47.979   4.769  17.673  0.00  0.00    +0.000 A 
BRANCH  18  25
ATOM     24  N   UNL     1      48.509   3.813  20.425  0.00  0.00    +0.000 N 
ATOM     25  C   UNL     1      48.314   5.129  20.108  0.00  0.00    +0.000 C 
ATOM     26  O   UNL     1      47.996   5.945  20.964  0.00  0.00    +0.000 OA
ATOM     27  H   UNL     1      48.458   3.578  21.408  0.00  0.00    +0.000 HD
ATOM     28  H   UNL     1      49.018   3.182  19.821  0.00  0.00    +0.000 HD
ENDBRANCH  18  25
ENDBRANCH  17  21
ENDBRANCH  16  17
ENDBRANCH   1  16
TORSDOF 6
ENDMDL
