MODEL 1
REMARK VINA RESULT:    -8.982      0.000      0.000
REMARK INTER + INTRA:         -13.182
REMARK INTER:                 -12.133
REMARK INTRA:                  -1.049
REMARK UNBOUND:                -1.049
REMARK  Name = 
REMARK  6 active torsions:
REMARK  status: ('A' for Active; 'I' for Inactive)
REMARK    1  A    between atoms: C_2  and  C_3
REMARK    2  A    between atoms: N_7  and  C_8
REMARK    3  A    between atoms: C_8  and  C_9
REMARK    4  A    between atoms: C_9  and  C_12
REMARK    5  A    between atoms: C_16  and  N_17
REMARK    6  A    between atoms: N_17  and  C_18
REMARK                            x       y       z     vdW  Elec       q    Type
REMARK                         _______ _______ _______ _____ _____    ______ ____
ROOT
ATOM      1  C   UNL     1      43.620   4.693  12.173  0.00  0.00    +0.000 C 
ATOM      2  F   UNL     1      42.617   5.522  12.591  0.00  0.00    +0.000 F 
ATOM      3  F   UNL     1      43.444   3.535  12.875  0.00  0.00    +0.000 F 
ENDROOT
BRANCH   1   4
ATOM      4  C   UNL     1      44.990   5.303  12.413  0.00  0.00    +0.000 A 
ATOM      5  C   UNL     1      45.606   6.092  11.434  0.00  0.00    +0.000 A 
ATOM      6  C   UNL     1      46.873   6.634  11.661  0.00  0.00    +0.000 A 
ATOM      7  C   UNL     1      47.542   6.389  12.865  0.00  0.00    +0.000 A 
ATOM      8  C   UNL     1      46.941   5.620  13.863  0.00  0.00    +0.000 A 
ATOM      9  C   UNL     1      45.671   5.075  13.621  0.00  0.00    +0.000 A 
BRANCH   8  10
ATOM     10  N   UNL     1      47.561   5.328  15.096  0.00  0.00    +0.000 N 
ATOM     11  H   UNL     1      48.574   5.353  14.972  0.00  0.00    +0.000 HD
BRANCH  10  12
ATOM     12  C   UNL     1      47.140   4.362  16.065  0.00  0.00    +0.000 C 
ATOM     13  C   UNL     1      47.834   4.546  17.431  0.00  0.00    +0.000 C 
ATOM     14  C   UNL     1      48.092   3.025  17.443  0.00  0.00    +0.000 C 
ATOM     15  F   UNL     1      49.305   2.638  17.897  0.00  0.00    +0.000 F 
ATOM     16  F   UNL     1      47.174   2.287  18.110  0.00  0.00    +0.000 F 
ATOM     17  C   UNL     1      47.930   3.044  15.911  0.00  0.00    +0.000 C 
ENDBRANCH  10  12
ENDBRANCH   8  10
ENDBRANCH   1   4
BRANCH   1  18
ATOM     18  C   UNL     1      43.413   4.391  10.665  0.00  0.00    +0.000 C 
BRANCH  18  23
ATOM     19  C   UNL     1      46.756   2.414   7.277  0.00  0.00    +0.000 A 
ATOM     20  C   UNL     1      46.318   3.715   7.482  0.00  0.00    +0.000 A 
ATOM     21  C   UNL     1      45.373   3.970   8.480  0.00  0.00    +0.000 A 
ATOM     22  C   UNL     1      44.881   2.926   9.256  0.00  0.00    +0.000 A 
ATOM     23  N   UNL     1      43.947   3.098  10.239  0.00  0.00    +0.000 N 
ATOM     24  N   UNL     1      45.304   1.661   9.067  0.00  0.00    +0.000 NA
ATOM     25  C   UNL     1      46.226   1.431   8.094  0.00  0.00    +0.000 A 
ATOM     26  H   UNL     1      43.691   2.254  10.742  0.00  0.00    +0.000 HD
BRANCH  19  28
ATOM     27  N   UNL     1      48.489   1.826   5.447  0.00  0.00    +0.000 NA
ATOM     28  C   UNL     1      47.714   2.097   6.268  0.00  0.00    +0.000 C 
ENDBRANCH  19  28
ENDBRANCH  18  23
ENDBRANCH   1  18
TORSDOF 6
ENDMDL
MODEL 2
REMARK VINA RESULT:    -8.037      2.914      4.408
REMARK INTER + INTRA:         -11.905
REMARK INTER:                 -10.919
REMARK INTRA:                  -0.987
REMARK UNBOUND:                -1.049
REMARK  Name = 
REMARK  6 active torsions:
REMARK  status: ('A' for Active; 'I' for Inactive)
REMARK    1  A    between atoms: C_2  and  C_3
REMARK    2  A    between atoms: N_7  and  C_8
REMARK    3  A    between atoms: C_8  and  C_9
REMARK    4  A    between atoms: C_9  and  C_12
REMARK    5  A    between atoms: C_16  and  N_17
REMARK    6  A    between atoms: N_17  and  C_18
REMARK                            x       y       z     vdW  Elec       q    Type
REMARK                         _______ _______ _______ _____ _____    ______ ____
ROOT
ATOM      1  C   UNL     1      43.342   4.571  12.546  0.00  0.00    +0.000 C 
ATOM      2  F   UNL     1      42.556   5.685  12.637  0.00  0.00    +0.000 F 
ATOM      3  F   UNL     1      42.806   3.680  13.432  0.00  0.00    +0.000 F 
ENDROOT
BRANCH   1   4
ATOM      4  C   UNL     1      44.796   4.881  12.858  0.00  0.00    +0.000 A 
ATOM      5  C   UNL     1      45.722   3.850  13.062  0.00  0.00    +0.000 A 
ATOM      6  C   UNL     1      47.052   4.148  13.364  0.00  0.00    +0.000 A 
ATOM      7  C   UNL     1      47.472   5.478  13.473  0.00  0.00    +0.000 A 
ATOM      8  C   UNL     1      46.571   6.523  13.256  0.00  0.00    +0.000 A 
ATOM      9  C   UNL     1      45.236   6.211  12.960  0.00  0.00    +0.000 A 
BRANCH   8  10
ATOM     10  N   UNL     1      46.926   7.885  13.355  0.00  0.00    +0.000 N 
ATOM     11  H   UNL     1      46.336   8.331  14.058  0.00  0.00    +0.000 HD
BRANCH  10  12
ATOM     12  C   UNL     1      47.275   8.764  12.280  0.00  0.00    +0.000 C 
ATOM     13  C   UNL     1      48.659   8.446  11.676  0.00  0.00    +0.000 C 
ATOM     14  C   UNL     1      48.971   9.956  11.734  0.00  0.00    +0.000 C 
ATOM     15  F   UNL     1      50.221  10.283  12.127  0.00  0.00    +0.000 F 
ATOM     16  F   UNL     1      48.730  10.642  10.592  0.00  0.00    +0.000 F 
ATOM     17  C   UNL     1      47.880  10.080  12.816  0.00  0.00    +0.000 C 
ENDBRANCH  10  12
ENDBRANCH   8  10
ENDBRANCH   1   4
BRANCH   1  18
ATOM     18  C   UNL     1      43.203   3.986  11.115  0.00  0.00    +0.000 C 
BRANCH  18  23
ATOM     19  C   UNL     1      46.664   2.663   7.534  0.00  0.00    +0.000 A 
ATOM     20  C   UNL     1      45.955   1.901   8.451  0.00  0.00    +0.000 A 
ATOM     21  C   UNL     1      45.077   2.533   9.335  0.00  0.00    +0.000 A 
ATOM     22  C   UNL     1      44.921   3.915   9.290  0.00  0.00    +0.000 A 
ATOM     23  N   UNL     1      44.092   4.603  10.131  0.00  0.00    +0.000 N 
ATOM     24  N   UNL     1      45.602   4.663   8.401  0.00  0.00    +0.000 NA
ATOM     25  C   UNL     1      46.449   4.031   7.545  0.00  0.00    +0.000 A 
ATOM     26  H   UNL     1      44.058   5.606   9.977  0.00  0.00    +0.000 HD
BRANCH  19  28
ATOM     27  N   UNL     1      48.329   1.596   5.864  0.00  0.00    +0.000 NA
ATOM     28  C   UNL     1      47.579   2.068   6.613  0.00  0.00    +0.000 C 
ENDBRANCH  19  28
ENDBRANCH  18  23
ENDBRANCH   1  18
TORSDOF 6
ENDMDL
MODEL 3
REMARK VINA RESULT:    -7.791      2.060      2.401
REMARK INTER + INTRA:         -11.574
REMARK INTER:                 -10.701
REMARK INTRA:                  -0.873
REMARK UNBOUND:                -1.049
REMARK  Name = 
REMARK  6 active torsions:
REMARK  status: ('A' for Active; 'I' for Inactive)
REMARK    1  A    between atoms: C_2  and  C_3
REMARK    2  A    between atoms: N_7  and  C_8
REMARK    3  A    between atoms: C_8  and  C_9
REMARK    4  A    between atoms: C_9  and  C_12
REMARK    5  A    between atoms: C_16  and  N_17
REMARK    6  A    between atoms: N_17  and  C_18
REMARK                            x       y       z     vdW  Elec       q    Type
REMARK                         _______ _______ _______ _____ _____    ______ ____
ROOT
ATOM      1  C   UNL     1      43.672   4.827  12.328  0.00  0.00    +0.000 C 
ATOM      2  F   UNL     1      42.512   5.229  12.929  0.00  0.00    +0.000 F 
ATOM      3  F   UNL     1      43.999   3.647  12.933  0.00  0.00    +0.000 F 
ENDROOT
BRANCH   1   4
ATOM      4  C   UNL     1      44.770   5.866  12.473  0.00  0.00    +0.000 A 
ATOM      5  C   UNL     1      44.689   7.094  11.804  0.00  0.00    +0.000 A 
ATOM      6  C   UNL     1      45.713   8.034  11.933  0.00  0.00    +0.000 A 
ATOM      7  C   UNL     1      46.832   7.758  12.725  0.00  0.00    +0.000 A 
ATOM      8  C   UNL     1      46.927   6.548  13.415  0.00  0.00    +0.000 A 
ATOM      9  C   UNL     1      45.895   5.607  13.273  0.00  0.00    +0.000 A 
BRANCH   8  10
ATOM     10  N   UNL     1      48.029   6.202  14.226  0.00  0.00    +0.000 N 
ATOM     11  H   UNL     1      47.903   5.249  14.568  0.00  0.00    +0.000 HD
BRANCH  10  12
ATOM     12  C   UNL     1      48.708   7.046  15.162  0.00  0.00    +0.000 C 
ATOM     13  C   UNL     1      50.152   7.376  14.728  0.00  0.00    +0.000 C 
ATOM     14  C   UNL     1      50.602   7.047  16.166  0.00  0.00    +0.000 C 
ATOM     15  F   UNL     1      51.756   6.353  16.277  0.00  0.00    +0.000 F 
ATOM     16  F   UNL     1      50.704   8.109  16.999  0.00  0.00    +0.000 F 
ATOM     17  C   UNL     1      49.311   6.218  16.318  0.00  0.00    +0.000 C 
ENDBRANCH  10  12
ENDBRANCH   8  10
ENDBRANCH   1   4
BRANCH   1  18
ATOM     18  C   UNL     1      43.379   4.547  10.830  0.00  0.00    +0.000 C 
BRANCH  18  23
ATOM     19  C   UNL     1      46.641   2.440   7.443  0.00  0.00    +0.000 A 
ATOM     20  C   UNL     1      46.294   3.762   7.682  0.00  0.00    +0.000 A 
ATOM     21  C   UNL     1      45.349   4.054   8.669  0.00  0.00    +0.000 A 
ATOM     22  C   UNL     1      44.767   3.024   9.402  0.00  0.00    +0.000 A 
ATOM     23  N   UNL     1      43.827   3.233  10.371  0.00  0.00    +0.000 N 
ATOM     24  N   UNL     1      45.101   1.739   9.178  0.00  0.00    +0.000 NA
ATOM     25  C   UNL     1      46.024   1.473   8.217  0.00  0.00    +0.000 A 
ATOM     26  H   UNL     1      43.500   2.394  10.842  0.00  0.00    +0.000 HD
BRANCH  19  28
ATOM     27  N   UNL     1      48.376   1.789   5.635  0.00  0.00    +0.000 NA
ATOM     28  C   UNL     1      47.595   2.086   6.441  0.00  0.00    +0.000 C 
ENDBRANCH  19  28
ENDBRANCH  18  23
ENDBRANCH   1  18
TORSDOF 6
ENDMDL
MODEL 4
REMARK VINA RESULT:    -7.636      2.870      8.220
REMARK INTER + INTRA:         -11.364
REMARK INTER:                 -10.888
REMARK INTRA:                  -0.476
REMARK UNBOUND:                -1.049
REMARK  Name = 
REMARK  6 active torsions:
REMARK  status: ('A' for Active; 'I' for Inactive)
REMARK    1  A    between atoms: C_2  and  C_3
REMARK    2  A    between atoms: N_7  and  C_8
REMARK    3  A    between atoms: C_8  and  C_9
REMARK    4  A    between atoms: C_9  and  C_12
REMARK    5  A    between atoms: C_16  and  N_17
REMARK    6  A    between atoms: N_17  and  C_18
REMARK                            x       y       z     vdW  Elec       q    Type
REMARK                         _______ _______ _______ _____ _____    ______ ____
ROOT
ATOM      1  C   UNL     1      46.475   6.522  12.528  0.00  0.00    +0.000 C 
ATOM      2  F   UNL     1      46.080   7.606  13.262  0.00  0.00    +0.000 F 
ATOM      3  F   UNL     1      46.976   7.037  11.368  0.00  0.00    +0.000 F 
ENDROOT
BRANCH   1   4
ATOM      4  C   UNL     1      45.324   5.564  12.277  0.00  0.00    +0.000 A 
ATOM      5  C   UNL     1      44.086   5.749  12.905  0.00  0.00    +0.000 A 
ATOM      6  C   UNL     1      43.040   4.852  12.679  0.00  0.00    +0.000 A 
ATOM      7  C   UNL     1      43.219   3.756  11.829  0.00  0.00    +0.000 A 
ATOM      8  C   UNL     1      44.439   3.559  11.178  0.00  0.00    +0.000 A 
ATOM      9  C   UNL     1      45.485   4.464  11.419  0.00  0.00    +0.000 A 
BRANCH   8  10
ATOM     10  N   UNL     1      44.691   2.473  10.313  0.00  0.00    +0.000 N 
ATOM     11  H   UNL     1      45.400   1.871  10.734  0.00  0.00    +0.000 HD
BRANCH  10  12
ATOM     12  C   UNL     1      44.766   2.510   8.884  0.00  0.00    +0.000 C 
ATOM     13  C   UNL     1      46.087   1.928   8.341  0.00  0.00    +0.000 C 
ATOM     14  C   UNL     1      46.188   3.159   7.418  0.00  0.00    +0.000 C 
ATOM     15  F   UNL     1      47.421   3.695   7.285  0.00  0.00    +0.000 F 
ATOM     16  F   UNL     1      45.702   2.986   6.166  0.00  0.00    +0.000 F 
ATOM     17  C   UNL     1      45.245   3.894   8.391  0.00  0.00    +0.000 C 
ENDBRANCH  10  12
ENDBRANCH   8  10
ENDBRANCH   1   4
BRANCH   1  18
ATOM     18  C   UNL     1      47.625   5.808  13.286  0.00  0.00    +0.000 C 
BRANCH  18  23
ATOM     19  C   UNL     1      48.229   4.665  18.275  0.00  0.00    +0.000 A 
ATOM     20  C   UNL     1      48.832   5.624  17.474  0.00  0.00    +0.000 A 
ATOM     21  C   UNL     1      48.487   5.703  16.122  0.00  0.00    +0.000 A 
ATOM     22  C   UNL     1      47.546   4.825  15.592  0.00  0.00    +0.000 A 
ATOM     23  N   UNL     1      47.169   4.834  14.278  0.00  0.00    +0.000 N 
ATOM     24  N   UNL     1      46.953   3.894  16.363  0.00  0.00    +0.000 NA
ATOM     25  C   UNL     1      47.298   3.834  17.677  0.00  0.00    +0.000 A 
ATOM     26  H   UNL     1      46.459   4.153  14.029  0.00  0.00    +0.000 HD
BRANCH  19  28
ATOM     27  N   UNL     1      48.801   4.438  20.789  0.00  0.00    +0.000 NA
ATOM     28  C   UNL     1      48.551   4.537  19.660  0.00  0.00    +0.000 C 
ENDBRANCH  19  28
ENDBRANCH  18  23
ENDBRANCH   1  18
TORSDOF 6
ENDMDL
MODEL 5
REMARK VINA RESULT:    -7.627      2.914      7.663
REMARK INTER + INTRA:         -11.351
REMARK INTER:                 -10.750
REMARK INTRA:                  -0.601
REMARK UNBOUND:                -1.049
REMARK  Name = 
REMARK  6 active torsions:
REMARK  status: ('A' for Active; 'I' for Inactive)
REMARK    1  A    between atoms: C_2  and  C_3
REMARK    2  A    between atoms: N_7  and  C_8
REMARK    3  A    between atoms: C_8  and  C_9
REMARK    4  A    between atoms: C_9  and  C_12
REMARK    5  A    between atoms: C_16  and  N_17
REMARK    6  A    between atoms: N_17  and  C_18
REMARK                            x       y       z     vdW  Elec       q    Type
REMARK                         _______ _______ _______ _____ _____    ______ ____
ROOT
ATOM      1  C   UNL     1      45.509   7.105  11.978  0.00  0.00    +0.000 C 
ATOM      2  F   UNL     1      45.236   7.834  13.102  0.00  0.00    +0.000 F 
ATOM      3  F   UNL     1      45.127   7.899  10.935  0.00  0.00    +0.000 F 
ENDROOT
BRANCH   1   4
ATOM      4  C   UNL     1      44.776   5.775  11.980  0.00  0.00    +0.000 A 
ATOM      5  C   UNL     1      43.701   5.549  12.849  0.00  0.00    +0.000 A 
ATOM      6  C   UNL     1      43.046   4.316  12.853  0.00  0.00    +0.000 A 
ATOM      7  C   UNL     1      43.461   3.292  11.995  0.00  0.00    +0.000 A 
ATOM      8  C   UNL     1      44.519   3.499  11.107  0.00  0.00    +0.000 A 
ATOM      9  C   UNL     1      45.174   4.740  11.118  0.00  0.00    +0.000 A 
BRANCH   8  10
ATOM     10  N   UNL     1      44.992   2.509  10.220  0.00  0.00    +0.000 N 
ATOM     11  H   UNL     1      45.827   2.078  10.618  0.00  0.00    +0.000 HD
BRANCH  10  12
ATOM     12  C   UNL     1      45.028   2.581   8.790  0.00  0.00    +0.000 C 
ATOM     13  C   UNL     1      46.178   1.752   8.181  0.00  0.00    +0.000 C 
ATOM     14  C   UNL     1      46.509   2.967   7.290  0.00  0.00    +0.000 C 
ATOM     15  F   UNL     1      47.823   3.235   7.125  0.00  0.00    +0.000 F 
ATOM     16  F   UNL     1      45.958   2.946   6.053  0.00  0.00    +0.000 F 
ATOM     17  C   UNL     1      45.774   3.849   8.319  0.00  0.00    +0.000 C 
ENDBRANCH  10  12
ENDBRANCH   8  10
ENDBRANCH   1   4
BRANCH   1  18
ATOM     18  C   UNL     1      47.042   6.885  11.894  0.00  0.00    +0.000 C 
BRANCH  18  23
ATOM     19  C   UNL     1      48.058   4.672  16.436  0.00  0.00    +0.000 A 
ATOM     20  C   UNL     1      47.271   4.260  15.370  0.00  0.00    +0.000 A 
ATOM     21  C   UNL     1      47.156   5.081  14.246  0.00  0.00    +0.000 A 
ATOM     22  C   UNL     1      47.828   6.299  14.202  0.00  0.00    +0.000 A 
ATOM     23  N   UNL     1      47.752   7.160  13.144  0.00  0.00    +0.000 N 
ATOM     24  N   UNL     1      48.597   6.705  15.231  0.00  0.00    +0.000 NA
ATOM     25  C   UNL     1      48.700   5.892  16.316  0.00  0.00    +0.000 A 
ATOM     26  H   UNL     1      48.308   8.005  13.234  0.00  0.00    +0.000 HD
BRANCH  19  28
ATOM     27  N   UNL     1      48.311   3.220  18.564  0.00  0.00    +0.000 NA
ATOM     28  C   UNL     1      48.204   3.874  17.611  0.00  0.00    +0.000 C 
ENDBRANCH  19  28
ENDBRANCH  18  23
ENDBRANCH   1  18
TORSDOF 6
ENDMDL
MODEL 6
REMARK VINA RESULT:    -7.591      3.095      3.948
REMARK INTER + INTRA:         -11.303
REMARK INTER:                 -10.434
REMARK INTRA:                  -0.869
REMARK UNBOUND:                -1.049
REMARK  Name = 
REMARK  6 active torsions:
REMARK  status: ('A' for Active; 'I' for Inactive)
REMARK    1  A    between atoms: C_2  and  C_3
REMARK    2  A    between atoms: N_7  and  C_8
REMARK    3  A    between atoms: C_8  and  C_9
REMARK    4  A    between atoms: C_9  and  C_12
REMARK    5  A    between atoms: C_16  and  N_17
REMARK    6  A    between atoms: N_17  and  C_18
REMARK                            x       y       z     vdW  Elec       q    Type
REMARK                         _______ _______ _______ _____ _____    ______ ____
ROOT
ATOM      1  C   UNL     1      44.372   5.441  12.196  0.00  0.00    +0.000 C 
ATOM      2  F   UNL     1      43.521   5.177  13.233  0.00  0.00    +0.000 F 
ATOM      3  F   UNL     1      45.443   4.617  12.392  0.00  0.00    +0.000 F 
ENDROOT
BRANCH   1   4
ATOM      4  C   UNL     1      44.778   6.904  12.161  0.00  0.00    +0.000 A 
ATOM      5  C   UNL     1      44.145   7.805  11.295  0.00  0.00    +0.000 A 
ATOM      6  C   UNL     1      44.538   9.144  11.261  0.00  0.00    +0.000 A 
ATOM      7  C   UNL     1      45.572   9.599  12.085  0.00  0.00    +0.000 A 
ATOM      8  C   UNL     1      46.207   8.724  12.969  0.00  0.00    +0.000 A 
ATOM      9  C   UNL     1      45.808   7.379  12.990  0.00  0.00    +0.000 A 
BRANCH   8  10
ATOM     10  N   UNL     1      47.261   9.115  13.823  0.00  0.00    +0.000 N 
ATOM     11  H   UNL     1      47.007   9.989  14.284  0.00  0.00    +0.000 HD
BRANCH  10  12
ATOM     12  C   UNL     1      48.664   9.006  13.565  0.00  0.00    +0.000 C 
ATOM     13  C   UNL     1      49.035   9.390  12.117  0.00  0.00    +0.000 C 
ATOM     14  C   UNL     1      49.904   8.117  12.059  0.00  0.00    +0.000 C 
ATOM     15  F   UNL     1      49.852   7.422  10.901  0.00  0.00    +0.000 F 
ATOM     16  F   UNL     1      51.214   8.296  12.346  0.00  0.00    +0.000 F 
ATOM     17  C   UNL     1      49.051   7.553  13.212  0.00  0.00    +0.000 C 
ENDBRANCH  10  12
ENDBRANCH   8  10
ENDBRANCH   1   4
BRANCH   1  18
ATOM     18  C   UNL     1      43.675   5.036  10.871  0.00  0.00    +0.000 C 
BRANCH  18  23
ATOM     19  C   UNL     1      46.646   2.555   7.468  0.00  0.00    +0.000 A 
ATOM     20  C   UNL     1      46.437   3.909   7.689  0.00  0.00    +0.000 A 
ATOM     21  C   UNL     1      45.545   4.311   8.686  0.00  0.00    +0.000 A 
ATOM     22  C   UNL     1      44.877   3.357   9.448  0.00  0.00    +0.000 A 
ATOM     23  N   UNL     1      43.981   3.675  10.430  0.00  0.00    +0.000 N 
ATOM     24  N   UNL     1      45.077   2.041   9.244  0.00  0.00    +0.000 NA
ATOM     25  C   UNL     1      45.951   1.667   8.271  0.00  0.00    +0.000 A 
ATOM     26  H   UNL     1      43.581   2.882  10.921  0.00  0.00    +0.000 HD
BRANCH  19  28
ATOM     27  N   UNL     1      48.261   1.701   5.635  0.00  0.00    +0.000 NA
ATOM     28  C   UNL     1      47.540   2.090   6.458  0.00  0.00    +0.000 C 
ENDBRANCH  19  28
ENDBRANCH  18  23
ENDBRANCH   1  18
TORSDOF 6
ENDMDL
MODEL 7
REMARK VINA RESULT:    -6.746      3.738      7.755
REMARK INTER + INTRA:         -10.162
REMARK INTER:                  -9.347
REMARK INTRA:                  -0.815
REMARK UNBOUND:                -1.049
REMARK  Name = 
REMARK  6 active torsions:
REMARK  status: ('A' for Active; 'I' for Inactive)
REMARK    1  A    between atoms: C_2  and  C_3
REMARK    2  A    between atoms: N_7  and  C_8
REMARK    3  A    between atoms: C_8  and  C_9
REMARK    4  A    between atoms: C_9  and  C_12
REMARK    5  A    between atoms: C_16  and  N_17
REMARK    6  A    between atoms: N_17  and  C_18
REMARK                            x       y       z     vdW  Elec       q    Type
REMARK                         _______ _______ _______ _____ _____    ______ ____
ROOT
ATOM      1  C   UNL     1      46.045   6.549  12.396  0.00  0.00    +0.000 C 
ATOM      2  F   UNL     1      45.304   7.274  13.287  0.00  0.00    +0.000 F 
ATOM      3  F   UNL     1      46.459   7.449  11.457  0.00  0.00    +0.000 F 
ENDROOT
BRANCH   1   4
ATOM      4  C   UNL     1      45.237   5.417  11.784  0.00  0.00    +0.000 A 
ATOM      5  C   UNL     1      44.518   4.530  12.593  0.00  0.00    +0.000 A 
ATOM      6  C   UNL     1      43.792   3.484  12.020  0.00  0.00    +0.000 A 
ATOM      7  C   UNL     1      43.782   3.307  10.632  0.00  0.00    +0.000 A 
ATOM      8  C   UNL     1      44.478   4.190   9.803  0.00  0.00    +0.000 A 
ATOM      9  C   UNL     1      45.209   5.233  10.392  0.00  0.00    +0.000 A 
BRANCH   8  10
ATOM     10  N   UNL     1      44.516   4.067   8.398  0.00  0.00    +0.000 N 
ATOM     11  H   UNL     1      43.666   4.476   8.007  0.00  0.00    +0.000 HD
BRANCH  10  12
ATOM     12  C   UNL     1      44.997   2.950   7.643  0.00  0.00    +0.000 C 
ATOM     13  C   UNL     1      46.053   2.124   8.408  0.00  0.00    +0.000 C 
ATOM     14  C   UNL     1      46.908   2.130   7.125  0.00  0.00    +0.000 C 
ATOM     15  F   UNL     1      48.236   2.311   7.304  0.00  0.00    +0.000 F 
ATOM     16  F   UNL     1      46.767   1.045   6.329  0.00  0.00    +0.000 F 
ATOM     17  C   UNL     1      46.122   3.378   6.676  0.00  0.00    +0.000 C 
ENDBRANCH  10  12
ENDBRANCH   8  10
ENDBRANCH   1   4
BRANCH   1  18
ATOM     18  C   UNL     1      47.293   5.994  13.131  0.00  0.00    +0.000 C 
BRANCH  18  23
ATOM     19  C   UNL     1      51.350   9.022  12.167  0.00  0.00    +0.000 A 
ATOM     20  C   UNL     1      50.754   8.020  11.415  0.00  0.00    +0.000 A 
ATOM     21  C   UNL     1      49.655   7.334  11.937  0.00  0.00    +0.000 A 
ATOM     22  C   UNL     1      49.168   7.658  13.200  0.00  0.00    +0.000 A 
ATOM     23  N   UNL     1      48.107   7.022  13.780  0.00  0.00    +0.000 N 
ATOM     24  N   UNL     1      49.738   8.632  13.935  0.00  0.00    +0.000 NA
ATOM     25  C   UNL     1      50.805   9.292  13.410  0.00  0.00    +0.000 A 
ATOM     26  H   UNL     1      47.843   7.371  14.696  0.00  0.00    +0.000 HD
BRANCH  19  28
ATOM     27  N   UNL     1      53.402  10.330  11.283  0.00  0.00    +0.000 NA
ATOM     28  C   UNL     1      52.480   9.749  11.683  0.00  0.00    +0.000 C 
ENDBRANCH  19  28
ENDBRANCH  18  23
ENDBRANCH   1  18
TORSDOF 6
ENDMDL
MODEL 8
REMARK VINA RESULT:    -6.638      3.348      5.224
REMARK INTER + INTRA:         -10.015
REMARK INTER:                  -8.778
REMARK INTRA:                  -1.237
REMARK UNBOUND:                -1.049
REMARK  Name = 
REMARK  6 active torsions:
REMARK  status: ('A' for Active; 'I' for Inactive)
REMARK    1  A    between atoms: C_2  and  C_3
REMARK    2  A    between atoms: N_7  and  C_8
REMARK    3  A    between atoms: C_8  and  C_9
REMARK    4  A    between atoms: C_9  and  C_12
REMARK    5  A    between atoms: C_16  and  N_17
REMARK    6  A    between atoms: N_17  and  C_18
REMARK                            x       y       z     vdW  Elec       q    Type
REMARK                         _______ _______ _______ _____ _____    ______ ____
ROOT
ATOM      1  C   UNL     1      49.326   7.902  13.334  0.00  0.00    +0.000 C 
ATOM      2  F   UNL     1      49.707   7.000  12.381  0.00  0.00    +0.000 F 
ATOM      3  F   UNL     1      49.976   9.059  13.012  0.00  0.00    +0.000 F 
ENDROOT
BRANCH   1   4
ATOM      4  C   UNL     1      49.675   7.422  14.733  0.00  0.00    +0.000 A 
ATOM      5  C   UNL     1      51.010   7.302  15.138  0.00  0.00    +0.000 A 
ATOM      6  C   UNL     1      51.318   6.844  16.420  0.00  0.00    +0.000 A 
ATOM      7  C   UNL     1      50.297   6.494  17.311  0.00  0.00    +0.000 A 
ATOM      8  C   UNL     1      48.958   6.622  16.936  0.00  0.00    +0.000 A 
ATOM      9  C   UNL     1      48.661   7.077  15.642  0.00  0.00    +0.000 A 
BRANCH   8  10
ATOM     10  N   UNL     1      47.880   6.282  17.781  0.00  0.00    +0.000 N 
ATOM     11  H   UNL     1      47.968   6.801  18.655  0.00  0.00    +0.000 HD
BRANCH  10  12
ATOM     12  C   UNL     1      47.299   4.986  17.956  0.00  0.00    +0.000 C 
ATOM     13  C   UNL     1      48.331   3.924  18.391  0.00  0.00    +0.000 C 
ATOM     14  C   UNL     1      47.738   2.987  17.320  0.00  0.00    +0.000 C 
ATOM     15  F   UNL     1      48.631   2.258  16.616  0.00  0.00    +0.000 F 
ATOM     16  F   UNL     1      46.795   2.123  17.764  0.00  0.00    +0.000 F 
ATOM     17  C   UNL     1      47.193   4.240  16.607  0.00  0.00    +0.000 C 
ENDBRANCH  10  12
ENDBRANCH   8  10
ENDBRANCH   1   4
BRANCH   1  18
ATOM     18  C   UNL     1      47.799   8.142  13.204  0.00  0.00    +0.000 C 
BRANCH  18  23
ATOM     19  C   UNL     1      44.665   4.271  11.878  0.00  0.00    +0.000 A 
ATOM     20  C   UNL     1      45.190   4.647  13.106  0.00  0.00    +0.000 A 
ATOM     21  C   UNL     1      46.046   5.750  13.177  0.00  0.00    +0.000 A 
ATOM     22  C   UNL     1      46.363   6.459  12.022  0.00  0.00    +0.000 A 
ATOM     23  N   UNL     1      47.202   7.538  12.012  0.00  0.00    +0.000 N 
ATOM     24  N   UNL     1      45.855   6.104  10.827  0.00  0.00    +0.000 NA
ATOM     25  C   UNL     1      45.021   5.030  10.777  0.00  0.00    +0.000 A 
ATOM     26  H   UNL     1      47.331   7.975  11.105  0.00  0.00    +0.000 HD
BRANCH  19  28
ATOM     27  N   UNL     1      43.076   2.240  11.656  0.00  0.00    +0.000 NA
ATOM     28  C   UNL     1      43.792   3.149  11.749  0.00  0.00    +0.000 C 
ENDBRANCH  19  28
ENDBRANCH  18  23
ENDBRANCH   1  18
TORSDOF 6
ENDMDL
MODEL 9
REMARK VINA RESULT:    -6.549      3.519      8.718
REMARK INTER + INTRA:          -9.896
REMARK INTER:                  -9.070
REMARK INTRA:                  -0.826
REMARK UNBOUND:                -1.049
REMARK  Name = 
REMARK  6 active torsions:
REMARK  status: ('A' for Active; 'I' for Inactive)
REMARK    1  A    between atoms: C_2  and  C_3
REMARK    2  A    between atoms: N_7  and  C_8
REMARK    3  A    between atoms: C_8  and  C_9
REMARK    4  A    between atoms: C_9  and  C_12
REMARK    5  A    between atoms: C_16  and  N_17
REMARK    6  A    between atoms: N_17  and  C_18
REMARK                            x       y       z     vdW  Elec       q    Type
REMARK                         _______ _______ _______ _____ _____    ______ ____
ROOT
ATOM      1  C   UNL     1      47.839   7.273  12.268  0.00  0.00    +0.000 C 
ATOM      2  F   UNL     1      47.191   8.439  12.566  0.00  0.00    +0.000 F 
ATOM      3  F   UNL     1      48.436   7.494  11.059  0.00  0.00    +0.000 F 
ENDROOT
BRANCH   1   4
ATOM      4  C   UNL     1      46.884   6.093  12.225  0.00  0.00    +0.000 A 
ATOM      5  C   UNL     1      46.927   5.099  13.210  0.00  0.00    +0.000 A 
ATOM      6  C   UNL     1      46.054   4.011  13.151  0.00  0.00    +0.000 A 
ATOM      7  C   UNL     1      45.133   3.899  12.104  0.00  0.00    +0.000 A 
ATOM      8  C   UNL     1      45.060   4.886  11.119  0.00  0.00    +0.000 A 
ATOM      9  C   UNL     1      45.947   5.971  11.185  0.00  0.00    +0.000 A 
BRANCH   8  10
ATOM     10  N   UNL     1      44.160   4.833  10.033  0.00  0.00    +0.000 N 
ATOM     11  H   UNL     1      43.237   4.568  10.380  0.00  0.00    +0.000 HD
BRANCH  10  12
ATOM     12  C   UNL     1      44.427   4.335   8.718  0.00  0.00    +0.000 C 
ATOM     13  C   UNL     1      44.559   2.798   8.677  0.00  0.00    +0.000 C 
ATOM     14  C   UNL     1      45.828   2.983   7.821  0.00  0.00    +0.000 C 
ATOM     15  F   UNL     1      46.859   2.160   8.112  0.00  0.00    +0.000 F 
ATOM     16  F   UNL     1      45.639   2.913   6.482  0.00  0.00    +0.000 F 
ATOM     17  C   UNL     1      45.935   4.411   8.393  0.00  0.00    +0.000 C 
ENDBRANCH  10  12
ENDBRANCH   8  10
ENDBRANCH   1   4
BRANCH   1  18
ATOM     18  C   UNL     1      48.947   7.041  13.328  0.00  0.00    +0.000 C 
BRANCH  18  23
ATOM     19  C   UNL     1      48.519   6.638  18.449  0.00  0.00    +0.000 A 
ATOM     20  C   UNL     1      48.553   5.674  17.452  0.00  0.00    +0.000 A 
ATOM     21  C   UNL     1      48.659   6.072  16.116  0.00  0.00    +0.000 A 
ATOM     22  C   UNL     1      48.730   7.424  15.797  0.00  0.00    +0.000 A 
ATOM     23  N   UNL     1      48.822   7.888  14.515  0.00  0.00    +0.000 N 
ATOM     24  N   UNL     1      48.702   8.367  16.758  0.00  0.00    +0.000 NA
ATOM     25  C   UNL     1      48.602   7.962  18.053  0.00  0.00    +0.000 A 
ATOM     26  H   UNL     1      48.887   8.897  14.425  0.00  0.00    +0.000 HD
BRANCH  19  28
ATOM     27  N   UNL     1      48.317   6.012  20.952  0.00  0.00    +0.000 NA
ATOM     28  C   UNL     1      48.404   6.287  19.827  0.00  0.00    +0.000 C 
ENDBRANCH  19  28
ENDBRANCH  18  23
ENDBRANCH   1  18
TORSDOF 6
ENDMDL
