MODEL 1
REMARK VINA RESULT:    -7.636      0.000      0.000
REMARK INTER + INTRA:         -10.300
REMARK INTER:                  -9.645
REMARK INTRA:                  -0.656
REMARK UNBOUND:                -0.656
REMARK  Name = 
REMARK  5 active torsions:
REMARK  status: ('A' for Active; 'I' for Inactive)
REMARK    1  A    between atoms: N_1  and  C_2
REMARK    2  A    between atoms: C_2  and  C_3
REMARK    3  A    between atoms: C_3  and  C_4
REMARK    4  A    between atoms: C_7  and  C_8
REMARK    5  A    between atoms: C_8  and  N_9
REMARK                            x       y       z     vdW  Elec       q    Type
REMARK                         _______ _______ _______ _____ _____    ______ ____
ROOT
ATOM      1  C   UNL     1      45.915   2.530   8.252  0.00  0.00    +0.000 A 
ATOM      2  C   UNL     1      45.023   1.969   9.164  0.00  0.00    +0.000 A 
ATOM      3  C   UNL     1      44.256   2.791  10.002  0.00  0.00    +0.000 A 
ATOM      4  C   UNL     1      44.375   4.194   9.941  0.00  0.00    +0.000 A 
ATOM      5  C   UNL     1      45.273   4.746   9.024  0.00  0.00    +0.000 A 
ATOM      6  C   UNL     1      46.030   3.926   8.179  0.00  0.00    +0.000 A 
ENDROOT
BRANCH   1   7
ATOM      7  C   UNL     1      46.761   1.649   7.352  0.00  0.00    +0.000 C 
BRANCH   7   8
ATOM      8  C   UNL     1      47.998   2.368   6.799  0.00  0.00    +0.000 C 
BRANCH   8   9
ATOM      9  N   UNL     1      48.421   1.776   5.531  0.00  0.00    +0.000 NA
ATOM     10  H   UNL     1      49.074   2.402   5.064  0.00  0.00    +0.000 HD
ATOM     11  H   UNL     1      47.620   1.675   4.909  0.00  0.00    +0.000 HD
ENDBRANCH   8   9
ENDBRANCH   7   8
ENDBRANCH   1   7
BRANCH   4  12
ATOM     12  C   UNL     1      43.530   5.079  10.824  0.00  0.00    +0.000 C 
BRANCH  12  13
ATOM     13  N   UNL     1      44.300   6.034  11.618  0.00  0.00    +0.000 N 
ATOM     14  C   UNL     1      44.399   7.376  11.321  0.00  0.00    +0.000 A 
ATOM     15  C   UNL     1      45.301   7.942  12.189  0.00  0.00    +0.000 A 
ATOM     16  C   UNL     1      45.991   6.873  12.811  0.00  0.00    +0.000 A 
ATOM     17  C   UNL     1      47.195   6.791  13.537  0.00  0.00    +0.000 A 
ATOM     18  C   UNL     1      47.613   5.550  14.025  0.00  0.00    +0.000 A 
ATOM     19  C   UNL     1      46.797   4.432  13.896  0.00  0.00    +0.000 A 
ATOM     20  C   UNL     1      45.594   4.490  13.181  0.00  0.00    +0.000 A 
ATOM     21  C   UNL     1      45.259   5.706  12.563  0.00  0.00    +0.000 A 
ENDBRANCH  12  13
ENDBRANCH   4  12
TORSDOF 5
ENDMDL
MODEL 2
REMARK VINA RESULT:    -6.892      1.182      2.170
REMARK INTER + INTRA:          -9.361
REMARK INTER:                  -8.813
REMARK INTRA:                  -0.549
REMARK UNBOUND:                -0.656
REMARK  Name = 
REMARK  5 active torsions:
REMARK  status: ('A' for Active; 'I' for Inactive)
REMARK    1  A    between atoms: N_1  and  C_2
REMARK    2  A    between atoms: C_2  and  C_3
REMARK    3  A    between atoms: C_3  and  C_4
REMARK    4  A    between atoms: C_7  and  C_8
REMARK    5  A    between atoms: C_8  and  N_9
REMARK                            x       y       z     vdW  Elec       q    Type
REMARK                         _______ _______ _______ _____ _____    ______ ____
ROOT
ATOM      1  C   UNL     1      45.859   2.954   7.806  0.00  0.00    +0.000 A 
ATOM      2  C   UNL     1      45.300   2.261   8.878  0.00  0.00    +0.000 A 
ATOM      3  C   UNL     1      44.960   2.937  10.058  0.00  0.00    +0.000 A 
ATOM      4  C   UNL     1      45.178   4.323  10.184  0.00  0.00    +0.000 A 
ATOM      5  C   UNL     1      45.740   5.008   9.104  0.00  0.00    +0.000 A 
ATOM      6  C   UNL     1      46.069   4.336   7.921  0.00  0.00    +0.000 A 
ENDROOT
BRANCH   1   7
ATOM      7  C   UNL     1      46.245   2.229   6.531  0.00  0.00    +0.000 C 
BRANCH   7   8
ATOM      8  C   UNL     1      47.547   1.428   6.666  0.00  0.00    +0.000 C 
BRANCH   8   9
ATOM      9  N   UNL     1      48.543   1.884   5.698  0.00  0.00    +0.000 NA
ATOM     10  H   UNL     1      48.095   2.049   4.800  0.00  0.00    +0.000 HD
ATOM     11  H   UNL     1      49.240   1.156   5.546  0.00  0.00    +0.000 HD
ENDBRANCH   8   9
ENDBRANCH   7   8
ENDBRANCH   1   7
BRANCH   4  12
ATOM     12  C   UNL     1      44.787   5.056  11.444  0.00  0.00    +0.000 C 
BRANCH  12  13
ATOM     13  N   UNL     1      45.837   5.094  12.460  0.00  0.00    +0.000 N 
ATOM     14  C   UNL     1      45.784   4.395  13.646  0.00  0.00    +0.000 A 
ATOM     15  C   UNL     1      46.862   4.767  14.411  0.00  0.00    +0.000 A 
ATOM     16  C   UNL     1      47.398   5.935  13.817  0.00  0.00    +0.000 A 
ATOM     17  C   UNL     1      48.277   6.937  14.273  0.00  0.00    +0.000 A 
ATOM     18  C   UNL     1      48.611   7.991  13.419  0.00  0.00    +0.000 A 
ATOM     19  C   UNL     1      48.175   7.991  12.098  0.00  0.00    +0.000 A 
ATOM     20  C   UNL     1      47.303   7.005  11.621  0.00  0.00    +0.000 A 
ATOM     21  C   UNL     1      46.850   6.036  12.532  0.00  0.00    +0.000 A 
ENDBRANCH  12  13
ENDBRANCH   4  12
TORSDOF 5
ENDMDL
MODEL 3
REMARK VINA RESULT:    -6.531      1.944      6.267
REMARK INTER + INTRA:          -8.905
REMARK INTER:                  -8.492
REMARK INTRA:                  -0.413
REMARK UNBOUND:                -0.656
REMARK  Name = 
REMARK  5 active torsions:
REMARK  status: ('A' for Active; 'I' for Inactive)
REMARK    1  A    between atoms: N_1  and  C_2
REMARK    2  A    between atoms: C_2  and  C_3
REMARK    3  A    between atoms: C_3  and  C_4
REMARK    4  A    between atoms: C_7  and  C_8
REMARK    5  A    between atoms: C_8  and  N_9
REMARK                            x       y       z     vdW  Elec       q    Type
REMARK                         _______ _______ _______ _____ _____    ______ ____
ROOT
ATOM      1  C   UNL     1      47.022   5.642  13.423  0.00  0.00    +0.000 A 
ATOM      2  C   UNL     1      46.077   4.619  13.421  0.00  0.00    +0.000 A 
ATOM      3  C   UNL     1      45.265   4.407  12.298  0.00  0.00    +0.000 A 
ATOM      4  C   UNL     1      45.386   5.224  11.156  0.00  0.00    +0.000 A 
ATOM      5  C   UNL     1      46.336   6.248  11.169  0.00  0.00    +0.000 A 
ATOM      6  C   UNL     1      47.155   6.453  12.285  0.00  0.00    +0.000 A 
ENDROOT
BRANCH   1   7
ATOM      7  C   UNL     1      47.894   5.890  14.639  0.00  0.00    +0.000 C 
BRANCH   7   8
ATOM      8  C   UNL     1      48.652   7.223  14.575  0.00  0.00    +0.000 C 
BRANCH   8   9
ATOM      9  N   UNL     1      50.096   7.002  14.552  0.00  0.00    +0.000 NA
ATOM     10  H   UNL     1      50.364   6.592  13.661  0.00  0.00    +0.000 HD
ATOM     11  H   UNL     1      50.356   6.328  15.272  0.00  0.00    +0.000 HD
ENDBRANCH   8   9
ENDBRANCH   7   8
ENDBRANCH   1   7
BRANCH   4  12
ATOM     12  C   UNL     1      44.531   4.979   9.937  0.00  0.00    +0.000 C 
BRANCH  12  13
ATOM     13  N   UNL     1      44.700   3.652   9.349  0.00  0.00    +0.000 N 
ATOM     14  C   UNL     1      44.178   2.499   9.894  0.00  0.00    +0.000 A 
ATOM     15  C   UNL     1      44.641   1.432   9.163  0.00  0.00    +0.000 A 
ATOM     16  C   UNL     1      45.706   1.918   8.365  0.00  0.00    +0.000 A 
ATOM     17  C   UNL     1      46.751   1.290   7.660  0.00  0.00    +0.000 A 
ATOM     18  C   UNL     1      47.668   2.077   6.957  0.00  0.00    +0.000 A 
ATOM     19  C   UNL     1      47.485   3.453   6.860  0.00  0.00    +0.000 A 
ATOM     20  C   UNL     1      46.452   4.098   7.550  0.00  0.00    +0.000 A 
ATOM     21  C   UNL     1      45.630   3.316   8.378  0.00  0.00    +0.000 A 
ENDBRANCH  12  13
ENDBRANCH   4  12
TORSDOF 5
ENDMDL
MODEL 4
REMARK VINA RESULT:    -5.887      2.130      6.264
REMARK INTER + INTRA:          -8.091
REMARK INTER:                  -7.733
REMARK INTRA:                  -0.357
REMARK UNBOUND:                -0.656
REMARK  Name = 
REMARK  5 active torsions:
REMARK  status: ('A' for Active; 'I' for Inactive)
REMARK    1  A    between atoms: N_1  and  C_2
REMARK    2  A    between atoms: C_2  and  C_3
REMARK    3  A    between atoms: C_3  and  C_4
REMARK    4  A    between atoms: C_7  and  C_8
REMARK    5  A    between atoms: C_8  and  N_9
REMARK                            x       y       z     vdW  Elec       q    Type
REMARK                         _______ _______ _______ _____ _____    ______ ____
ROOT
ATOM      1  C   UNL     1      47.729   7.177  13.501  0.00  0.00    +0.000 A 
ATOM      2  C   UNL     1      46.866   8.217  13.166  0.00  0.00    +0.000 A 
ATOM      3  C   UNL     1      45.673   7.953  12.477  0.00  0.00    +0.000 A 
ATOM      4  C   UNL     1      45.329   6.637  12.110  0.00  0.00    +0.000 A 
ATOM      5  C   UNL     1      46.202   5.602  12.451  0.00  0.00    +0.000 A 
ATOM      6  C   UNL     1      47.387   5.863  13.148  0.00  0.00    +0.000 A 
ENDROOT
BRANCH   1   7
ATOM      7  C   UNL     1      49.030   7.454  14.231  0.00  0.00    +0.000 C 
BRANCH   7   8
ATOM      8  C   UNL     1      49.202   6.603  15.497  0.00  0.00    +0.000 C 
BRANCH   8   9
ATOM      9  N   UNL     1      50.601   6.569  15.916  0.00  0.00    +0.000 NA
ATOM     10  H   UNL     1      50.746   7.234  16.673  0.00  0.00    +0.000 HD
ATOM     11  H   UNL     1      51.203   6.867  15.149  0.00  0.00    +0.000 HD
ENDBRANCH   8   9
ENDBRANCH   7   8
ENDBRANCH   1   7
BRANCH   4  12
ATOM     12  C   UNL     1      44.032   6.350  11.393  0.00  0.00    +0.000 C 
BRANCH  12  13
ATOM     13  N   UNL     1      43.832   4.939  11.069  0.00  0.00    +0.000 N 
ATOM     14  C   UNL     1      43.333   4.011  11.957  0.00  0.00    +0.000 A 
ATOM     15  C   UNL     1      43.406   2.772  11.368  0.00  0.00    +0.000 A 
ATOM     16  C   UNL     1      44.250   2.909  10.239  0.00  0.00    +0.000 A 
ATOM     17  C   UNL     1      44.943   1.985   9.432  0.00  0.00    +0.000 A 
ATOM     18  C   UNL     1      45.718   2.457   8.369  0.00  0.00    +0.000 A 
ATOM     19  C   UNL     1      45.712   3.809   8.040  0.00  0.00    +0.000 A 
ATOM     20  C   UNL     1      45.029   4.744   8.826  0.00  0.00    +0.000 A 
ATOM     21  C   UNL     1      44.380   4.278   9.982  0.00  0.00    +0.000 A 
ENDBRANCH  12  13
ENDBRANCH   4  12
TORSDOF 5
ENDMDL
MODEL 5
REMARK VINA RESULT:    -5.695      1.934      3.695
REMARK INTER + INTRA:          -7.849
REMARK INTER:                  -7.344
REMARK INTRA:                  -0.505
REMARK UNBOUND:                -0.656
REMARK  Name = 
REMARK  5 active torsions:
REMARK  status: ('A' for Active; 'I' for Inactive)
REMARK    1  A    between atoms: N_1  and  C_2
REMARK    2  A    between atoms: C_2  and  C_3
REMARK    3  A    between atoms: C_3  and  C_4
REMARK    4  A    between atoms: C_7  and  C_8
REMARK    5  A    between atoms: C_8  and  N_9
REMARK                            x       y       z     vdW  Elec       q    Type
REMARK                         _______ _______ _______ _____ _____    ______ ____
ROOT
ATOM      1  C   UNL     1      44.901   3.185   9.874  0.00  0.00    +0.000 A 
ATOM      2  C   UNL     1      45.248   4.482   9.505  0.00  0.00    +0.000 A 
ATOM      3  C   UNL     1      45.281   5.506  10.462  0.00  0.00    +0.000 A 
ATOM      4  C   UNL     1      44.961   5.245  11.809  0.00  0.00    +0.000 A 
ATOM      5  C   UNL     1      44.614   3.941  12.169  0.00  0.00    +0.000 A 
ATOM      6  C   UNL     1      44.592   2.915  11.216  0.00  0.00    +0.000 A 
ENDROOT
BRANCH   1   7
ATOM      7  C   UNL     1      44.846   2.073   8.843  0.00  0.00    +0.000 C 
BRANCH   7   8
ATOM      8  C   UNL     1      46.187   1.845   8.133  0.00  0.00    +0.000 C 
BRANCH   8   9
ATOM      9  N   UNL     1      46.468   0.418   7.994  0.00  0.00    +0.000 NA
ATOM     10  H   UNL     1      45.894  -0.108   8.649  0.00  0.00    +0.000 HD
ATOM     11  H   UNL     1      47.439   0.228   8.240  0.00  0.00    +0.000 HD
ENDBRANCH   8   9
ENDBRANCH   7   8
ENDBRANCH   1   7
BRANCH   4  12
ATOM     12  C   UNL     1      45.023   6.341  12.845  0.00  0.00    +0.000 C 
BRANCH  12  13
ATOM     13  N   UNL     1      45.962   7.412  12.520  0.00  0.00    +0.000 N 
ATOM     14  C   UNL     1      47.265   7.454  12.969  0.00  0.00    +0.000 A 
ATOM     15  C   UNL     1      47.811   8.656  12.589  0.00  0.00    +0.000 A 
ATOM     16  C   UNL     1      46.734   9.481  12.184  0.00  0.00    +0.000 A 
ATOM     17  C   UNL     1      46.599  10.869  11.988  0.00  0.00    +0.000 A 
ATOM     18  C   UNL     1      45.365  11.383  11.581  0.00  0.00    +0.000 A 
ATOM     19  C   UNL     1      44.317  10.527  11.262  0.00  0.00    +0.000 A 
ATOM     20  C   UNL     1      44.428   9.143  11.446  0.00  0.00    +0.000 A 
ATOM     21  C   UNL     1      45.621   8.651  12.002  0.00  0.00    +0.000 A 
ENDBRANCH  12  13
ENDBRANCH   4  12
TORSDOF 5
ENDMDL
MODEL 6
REMARK VINA RESULT:    -5.661      1.493      2.180
REMARK INTER + INTRA:          -7.806
REMARK INTER:                  -7.144
REMARK INTRA:                  -0.662
REMARK UNBOUND:                -0.656
REMARK  Name = 
REMARK  5 active torsions:
REMARK  status: ('A' for Active; 'I' for Inactive)
REMARK    1  A    between atoms: N_1  and  C_2
REMARK    2  A    between atoms: C_2  and  C_3
REMARK    3  A    between atoms: C_3  and  C_4
REMARK    4  A    between atoms: C_7  and  C_8
REMARK    5  A    between atoms: C_8  and  N_9
REMARK                            x       y       z     vdW  Elec       q    Type
REMARK                         _______ _______ _______ _____ _____    ______ ____
ROOT
ATOM      1  C   UNL     1      44.722   2.840   9.786  0.00  0.00    +0.000 A 
ATOM      2  C   UNL     1      44.995   2.610  11.132  0.00  0.00    +0.000 A 
ATOM      3  C   UNL     1      44.820   3.633  12.075  0.00  0.00    +0.000 A 
ATOM      4  C   UNL     1      44.369   4.908  11.680  0.00  0.00    +0.000 A 
ATOM      5  C   UNL     1      44.098   5.128  10.327  0.00  0.00    +0.000 A 
ATOM      6  C   UNL     1      44.262   4.104   9.387  0.00  0.00    +0.000 A 
ENDROOT
BRANCH   1   7
ATOM      7  C   UNL     1      44.924   1.745   8.756  0.00  0.00    +0.000 C 
BRANCH   7   8
ATOM      8  C   UNL     1      46.329   1.752   8.138  0.00  0.00    +0.000 C 
BRANCH   8   9
ATOM      9  N   UNL     1      46.754   0.397   7.794  0.00  0.00    +0.000 NA
ATOM     10  H   UNL     1      46.069  -0.273   8.136  0.00  0.00    +0.000 HD
ATOM     11  H   UNL     1      47.633   0.179   8.263  0.00  0.00    +0.000 HD
ENDBRANCH   8   9
ENDBRANCH   7   8
ENDBRANCH   1   7
BRANCH   4  12
ATOM     12  C   UNL     1      44.154   6.001  12.699  0.00  0.00    +0.000 C 
BRANCH  12  13
ATOM     13  N   UNL     1      45.056   7.140  12.547  0.00  0.00    +0.000 N 
ATOM     14  C   UNL     1      44.710   8.316  11.916  0.00  0.00    +0.000 A 
ATOM     15  C   UNL     1      45.831   9.106  11.838  0.00  0.00    +0.000 A 
ATOM     16  C   UNL     1      46.936   8.274  12.139  0.00  0.00    +0.000 A 
ATOM     17  C   UNL     1      48.324   8.398  11.934  0.00  0.00    +0.000 A 
ATOM     18  C   UNL     1      49.169   7.367  12.353  0.00  0.00    +0.000 A 
ATOM     19  C   UNL     1      48.660   6.285  13.064  0.00  0.00    +0.000 A 
ATOM     20  C   UNL     1      47.285   6.142  13.281  0.00  0.00    +0.000 A 
ATOM     21  C   UNL     1      46.430   7.106  12.722  0.00  0.00    +0.000 A 
ENDBRANCH  12  13
ENDBRANCH   4  12
TORSDOF 5
ENDMDL
MODEL 7
REMARK VINA RESULT:    -5.084      4.985      7.985
REMARK INTER + INTRA:          -7.078
REMARK INTER:                  -6.642
REMARK INTRA:                  -0.436
REMARK UNBOUND:                -0.656
REMARK  Name = 
REMARK  5 active torsions:
REMARK  status: ('A' for Active; 'I' for Inactive)
REMARK    1  A    between atoms: N_1  and  C_2
REMARK    2  A    between atoms: C_2  and  C_3
REMARK    3  A    between atoms: C_3  and  C_4
REMARK    4  A    between atoms: C_7  and  C_8
REMARK    5  A    between atoms: C_8  and  N_9
REMARK                            x       y       z     vdW  Elec       q    Type
REMARK                         _______ _______ _______ _____ _____    ______ ____
ROOT
ATOM      1  C   UNL     1      51.516   2.767  17.712  0.00  0.00    +0.000 A 
ATOM      2  C   UNL     1      50.390   2.068  17.285  0.00  0.00    +0.000 A 
ATOM      3  C   UNL     1      49.221   2.757  16.932  0.00  0.00    +0.000 A 
ATOM      4  C   UNL     1      49.161   4.163  17.008  0.00  0.00    +0.000 A 
ATOM      5  C   UNL     1      50.297   4.854  17.438  0.00  0.00    +0.000 A 
ATOM      6  C   UNL     1      51.468   4.168  17.778  0.00  0.00    +0.000 A 
ENDROOT
BRANCH   1   7
ATOM      7  C   UNL     1      52.781   2.030  18.111  0.00  0.00    +0.000 C 
BRANCH   7   8
ATOM      8  C   UNL     1      52.928   0.669  17.419  0.00  0.00    +0.000 C 
BRANCH   8   9
ATOM      9  N   UNL     1      52.917  -0.417  18.396  0.00  0.00    +0.000 NA
ATOM     10  H   UNL     1      53.760  -0.978  18.293  0.00  0.00    +0.000 HD
ATOM     11  H   UNL     1      52.130  -1.040  18.216  0.00  0.00    +0.000 HD
ENDBRANCH   8   9
ENDBRANCH   7   8
ENDBRANCH   1   7
BRANCH   4  12
ATOM     12  C   UNL     1      47.912   4.906  16.603  0.00  0.00    +0.000 C 
BRANCH  12  13
ATOM     13  N   UNL     1      48.013   5.578  15.309  0.00  0.00    +0.000 N 
ATOM     14  C   UNL     1      48.586   6.819  15.131  0.00  0.00    +0.000 A 
ATOM     15  C   UNL     1      48.389   7.198  13.825  0.00  0.00    +0.000 A 
ATOM     16  C   UNL     1      47.412   6.322  13.291  0.00  0.00    +0.000 A 
ATOM     17  C   UNL     1      46.585   6.374  12.153  0.00  0.00    +0.000 A 
ATOM     18  C   UNL     1      45.699   5.322  11.905  0.00  0.00    +0.000 A 
ATOM     19  C   UNL     1      45.715   4.186  12.707  0.00  0.00    +0.000 A 
ATOM     20  C   UNL     1      46.530   4.110  13.842  0.00  0.00    +0.000 A 
ATOM     21  C   UNL     1      47.304   5.237  14.169  0.00  0.00    +0.000 A 
ENDBRANCH  12  13
ENDBRANCH   4  12
TORSDOF 5
ENDMDL
MODEL 8
REMARK VINA RESULT:    -5.071      3.189      5.302
REMARK INTER + INTRA:          -7.060
REMARK INTER:                  -6.502
REMARK INTRA:                  -0.558
REMARK UNBOUND:                -0.656
REMARK  Name = 
REMARK  5 active torsions:
REMARK  status: ('A' for Active; 'I' for Inactive)
REMARK    1  A    between atoms: N_1  and  C_2
REMARK    2  A    between atoms: C_2  and  C_3
REMARK    3  A    between atoms: C_3  and  C_4
REMARK    4  A    between atoms: C_7  and  C_8
REMARK    5  A    between atoms: C_8  and  N_9
REMARK                            x       y       z     vdW  Elec       q    Type
REMARK                         _______ _______ _______ _____ _____    ______ ____
ROOT
ATOM      1  C   UNL     1      44.967   5.046  11.786  0.00  0.00    +0.000 A 
ATOM      2  C   UNL     1      45.622   6.100  11.153  0.00  0.00    +0.000 A 
ATOM      3  C   UNL     1      46.801   6.630  11.698  0.00  0.00    +0.000 A 
ATOM      4  C   UNL     1      47.341   6.111  12.892  0.00  0.00    +0.000 A 
ATOM      5  C   UNL     1      46.675   5.054  13.518  0.00  0.00    +0.000 A 
ATOM      6  C   UNL     1      45.505   4.517  12.969  0.00  0.00    +0.000 A 
ENDROOT
BRANCH   1   7
ATOM      7  C   UNL     1      43.683   4.477  11.213  0.00  0.00    +0.000 C 
BRANCH   7   8
ATOM      8  C   UNL     1      43.806   3.001  10.810  0.00  0.00    +0.000 C 
BRANCH   8   9
ATOM      9  N   UNL     1      43.043   2.147  11.716  0.00  0.00    +0.000 NA
ATOM     10  H   UNL     1      42.222   2.647  12.047  0.00  0.00    +0.000 HD
ATOM     11  H   UNL     1      43.601   1.928  12.541  0.00  0.00    +0.000 HD
ENDBRANCH   8   9
ENDBRANCH   7   8
ENDBRANCH   1   7
BRANCH   4  12
ATOM     12  C   UNL     1      48.624   6.663  13.463  0.00  0.00    +0.000 C 
BRANCH  12  13
ATOM     13  N   UNL     1      48.443   7.444  14.685  0.00  0.00    +0.000 N 
ATOM     14  C   UNL     1      48.290   8.813  14.706  0.00  0.00    +0.000 A 
ATOM     15  C   UNL     1      48.280   9.224  16.017  0.00  0.00    +0.000 A 
ATOM     16  C   UNL     1      48.751   8.132  16.787  0.00  0.00    +0.000 A 
ATOM     17  C   UNL     1      49.247   8.018  18.100  0.00  0.00    +0.000 A 
ATOM     18  C   UNL     1      49.646   6.764  18.570  0.00  0.00    +0.000 A 
ATOM     19  C   UNL     1      49.447   5.626  17.796  0.00  0.00    +0.000 A 
ATOM     20  C   UNL     1      48.952   5.715  16.489  0.00  0.00    +0.000 A 
ATOM     21  C   UNL     1      48.700   6.996  15.971  0.00  0.00    +0.000 A 
ENDBRANCH  12  13
ENDBRANCH   4  12
TORSDOF 5
ENDMDL
MODEL 9
REMARK VINA RESULT:    -5.044      3.327      5.795
REMARK INTER + INTRA:          -7.027
REMARK INTER:                  -6.449
REMARK INTRA:                  -0.578
REMARK UNBOUND:                -0.656
REMARK  Name = 
REMARK  5 active torsions:
REMARK  status: ('A' for Active; 'I' for Inactive)
REMARK    1  A    between atoms: N_1  and  C_2
REMARK    2  A    between atoms: C_2  and  C_3
REMARK    3  A    between atoms: C_3  and  C_4
REMARK    4  A    between atoms: C_7  and  C_8
REMARK    5  A    between atoms: C_8  and  N_9
REMARK                            x       y       z     vdW  Elec       q    Type
REMARK                         _______ _______ _______ _____ _____    ______ ____
ROOT
ATOM      1  C   UNL     1      44.439   5.404  11.835  0.00  0.00    +0.000 A 
ATOM      2  C   UNL     1      44.514   6.739  11.445  0.00  0.00    +0.000 A 
ATOM      3  C   UNL     1      45.479   7.587  12.007  0.00  0.00    +0.000 A 
ATOM      4  C   UNL     1      46.383   7.109  12.977  0.00  0.00    +0.000 A 
ATOM      5  C   UNL     1      46.298   5.769  13.361  0.00  0.00    +0.000 A 
ATOM      6  C   UNL     1      45.343   4.919  12.792  0.00  0.00    +0.000 A 
ENDROOT
BRANCH   1   7
ATOM      7  C   UNL     1      43.388   4.482  11.245  0.00  0.00    +0.000 C 
BRANCH   7   8
ATOM      8  C   UNL     1      43.900   3.053  11.023  0.00  0.00    +0.000 C 
BRANCH   8   9
ATOM      9  N   UNL     1      43.012   2.077  11.652  0.00  0.00    +0.000 NA
ATOM     10  H   UNL     1      42.441   2.540  12.356  0.00  0.00    +0.000 HD
ATOM     11  H   UNL     1      43.560   1.371  12.141  0.00  0.00    +0.000 HD
ENDBRANCH   8   9
ENDBRANCH   7   8
ENDBRANCH   1   7
BRANCH   4  12
ATOM     12  C   UNL     1      47.439   8.015  13.562  0.00  0.00    +0.000 C 
BRANCH  12  13
ATOM     13  N   UNL     1      48.593   8.223  12.691  0.00  0.00    +0.000 N 
ATOM     14  C   UNL     1      49.782   7.538  12.814  0.00  0.00    +0.000 A 
ATOM     15  C   UNL     1      50.682   8.077  11.927  0.00  0.00    +0.000 A 
ATOM     16  C   UNL     1      50.132   9.306  11.488  0.00  0.00    +0.000 A 
ATOM     17  C   UNL     1      50.676  10.434  10.843  0.00  0.00    +0.000 A 
ATOM     18  C   UNL     1      49.844  11.516  10.545  0.00  0.00    +0.000 A 
ATOM     19  C   UNL     1      48.475  11.435  10.777  0.00  0.00    +0.000 A 
ATOM     20  C   UNL     1      47.911  10.323  11.414  0.00  0.00    +0.000 A 
ATOM     21  C   UNL     1      48.779   9.308  11.849  0.00  0.00    +0.000 A 
ENDBRANCH  12  13
ENDBRANCH   4  12
TORSDOF 5
ENDMDL
