MODEL 1
REMARK VINA RESULT:    -6.811      0.000      0.000
REMARK INTER + INTRA:         -12.337
REMARK INTER:                 -10.793
REMARK INTRA:                  -1.544
REMARK UNBOUND:                -1.544
REMARK  Name = 
REMARK  12 active torsions:
REMARK  status: ('A' for Active; 'I' for Inactive)
REMARK    1  A    between atoms: C_1  and  O_2
REMARK    2  A    between atoms: O_2  and  C_3
REMARK    3  A    between atoms: C_3  and  C_4
REMARK    4  A    between atoms: C_4  and  N_5
REMARK    5  A    between atoms: N_5  and  C_6
REMARK    6  A    between atoms: C_6  and  C_7
REMARK    7  A    between atoms: C_6  and  C_21
REMARK    8  A    between atoms: C_7  and  C_8
REMARK    9  A    between atoms: C_11  and  C_12
REMARK   10  A    between atoms: C_12  and  N_13
REMARK   11  A    between atoms: N_16  and  C_17
REMARK   12  A    between atoms: C_21  and  C_23
REMARK                            x       y       z     vdW  Elec       q    Type
REMARK                         _______ _______ _______ _____ _____    ______ ____
ROOT
ATOM      1  C   UNL     1      45.520   7.285  11.748  0.00  0.00    +0.000 C 
ENDROOT
BRANCH   1   2
ATOM      2  N   UNL     1      45.252   8.332  12.772  0.00  0.00    +0.000 NA
ATOM      3  H   UNL     1      44.241   8.505  12.786  0.00  0.00    +0.000 HD
BRANCH   2   4
ATOM      4  C   UNL     1      45.932   9.614  12.560  0.00  0.00    +0.000 C 
BRANCH   4   5
ATOM      5  C   UNL     1      45.182  10.659  11.719  0.00  0.00    +0.000 C 
BRANCH   5   7
ATOM      6  C   UNL     1      42.939  10.618  11.003  0.00  0.00    +0.000 C 
ATOM      7  O   UNL     1      43.812  10.716  12.122  0.00  0.00    +0.000 OA
ENDBRANCH   5   7
ENDBRANCH   4   5
ENDBRANCH   2   4
ENDBRANCH   1   2
BRANCH   1   8
ATOM      8  C   UNL     1      44.226   6.504  11.424  0.00  0.00    +0.000 C 
ATOM      9  O   UNL     1      43.153   7.106  11.299  0.00  0.00    +0.000 OA
BRANCH   8  10
ATOM     10  C   UNL     1      44.220   5.033  11.210  0.00  0.00    +0.000 A 
ATOM     11  C   UNL     1      43.549   4.241  12.135  0.00  0.00    +0.000 A 
ATOM     12  S   UNL     1      43.472   2.597  11.710  0.00  0.00    +0.000 S 
ATOM     13  C   UNL     1      44.292   2.887  10.246  0.00  0.00    +0.000 A 
ATOM     14  N   UNL     1      44.453   1.884   9.342  0.00  0.00    +0.000 NA
ATOM     15  C   UNL     1      45.034   2.241   8.248  0.00  0.00    +0.000 A 
ATOM     16  N   UNL     1      45.517   3.499   7.998  0.00  0.00    +0.000 N 
ATOM     17  C   UNL     1      45.498   4.503   8.946  0.00  0.00    +0.000 A 
ATOM     18  O   UNL     1      46.158   5.520   8.768  0.00  0.00    +0.000 OA
ATOM     19  C   UNL     1      44.720   4.201  10.134  0.00  0.00    +0.000 A 
ATOM     20  H   UNL     1      46.040   3.688   7.157  0.00  0.00    +0.000 HD
ENDBRANCH   8  10
ENDBRANCH   1   8
BRANCH   1  21
ATOM     21  C   UNL     1      46.679   6.307  12.060  0.00  0.00    +0.000 C 
BRANCH  21  22
ATOM     22  C   UNL     1      47.112   6.006  13.483  0.00  0.00    +0.000 A 
ATOM     23  C   UNL     1      46.613   4.836  14.084  0.00  0.00    +0.000 A 
ATOM     24  C   UNL     1      47.100   4.383  15.315  0.00  0.00    +0.000 A 
ATOM     25  C   UNL     1      48.092   5.097  15.993  0.00  0.00    +0.000 A 
ATOM     26  C   UNL     1      48.557   6.289  15.423  0.00  0.00    +0.000 A 
ATOM     27  C   UNL     1      48.075   6.736  14.183  0.00  0.00    +0.000 A 
BRANCH  25  28
ATOM     28  C   UNL     1      48.643   4.593  17.312  0.00  0.00    +0.000 C 
BRANCH  28  29
ATOM     29  N   UNL     1      48.604   5.568  18.415  0.00  0.00    +0.000 NA
ATOM     30  C   UNL     1      49.399   5.099  19.557  0.00  0.00    +0.000 C 
ATOM     31  C   UNL     1      48.530   5.295  20.794  0.00  0.00    +0.000 C 
ATOM     32  N   UNL     1      47.363   6.067  20.362  0.00  0.00    +0.000 NA
ATOM     33  C   UNL     1      47.524   7.489  20.643  0.00  0.00    +0.000 C 
ATOM     34  C   UNL     1      47.257   5.797  18.926  0.00  0.00    +0.000 C 
ENDBRANCH  28  29
ENDBRANCH  25  28
ENDBRANCH  21  22
ENDBRANCH   1  21
TORSDOF 10
ENDMDL
MODEL 2
REMARK VINA RESULT:    -6.649      3.560      8.677
REMARK INTER + INTRA:         -12.080
REMARK INTER:                 -11.435
REMARK INTRA:                  -0.645
REMARK UNBOUND:                -1.544
REMARK  Name = 
REMARK  12 active torsions:
REMARK  status: ('A' for Active; 'I' for Inactive)
REMARK    1  A    between atoms: C_1  and  O_2
REMARK    2  A    between atoms: O_2  and  C_3
REMARK    3  A    between atoms: C_3  and  C_4
REMARK    4  A    between atoms: C_4  and  N_5
REMARK    5  A    between atoms: N_5  and  C_6
REMARK    6  A    between atoms: C_6  and  C_7
REMARK    7  A    between atoms: C_6  and  C_21
REMARK    8  A    between atoms: C_7  and  C_8
REMARK    9  A    between atoms: C_11  and  C_12
REMARK   10  A    between atoms: C_12  and  N_13
REMARK   11  A    between atoms: N_16  and  C_17
REMARK   12  A    between atoms: C_21  and  C_23
REMARK                            x       y       z     vdW  Elec       q    Type
REMARK                         _______ _______ _______ _____ _____    ______ ____
ROOT
ATOM      1  C   UNL     1      47.541   5.180  15.368  0.00  0.00    +0.000 C 
ENDROOT
BRANCH   1   2
ATOM      2  N   UNL     1      48.614   6.088  14.878  0.00  0.00    +0.000 NA
ATOM      3  H   UNL     1      49.455   5.911  15.439  0.00  0.00    +0.000 HD
BRANCH   2   4
ATOM      4  C   UNL     1      48.313   7.522  14.951  0.00  0.00    +0.000 C 
BRANCH   4   5
ATOM      5  C   UNL     1      47.972   8.220  13.624  0.00  0.00    +0.000 C 
BRANCH   5   7
ATOM      6  C   UNL     1      46.276   9.344  12.439  0.00  0.00    +0.000 C 
ATOM      7  O   UNL     1      46.616   8.672  13.646  0.00  0.00    +0.000 OA
ENDBRANCH   5   7
ENDBRANCH   4   5
ENDBRANCH   2   4
ENDBRANCH   1   2
BRANCH   1   8
ATOM      8  C   UNL     1      47.872   4.672  16.790  0.00  0.00    +0.000 C 
ATOM      9  O   UNL     1      46.962   4.334  17.556  0.00  0.00    +0.000 OA
BRANCH   8  10
ATOM     10  C   UNL     1      49.269   4.529  17.276  0.00  0.00    +0.000 A 
ATOM     11  C   UNL     1      49.839   5.600  17.954  0.00  0.00    +0.000 A 
ATOM     12  S   UNL     1      51.377   5.271  18.599  0.00  0.00    +0.000 S 
ATOM     13  C   UNL     1      51.322   3.665  18.037  0.00  0.00    +0.000 A 
ATOM     14  N   UNL     1      52.312   2.792  18.365  0.00  0.00    +0.000 NA
ATOM     15  C   UNL     1      52.128   1.591  17.933  0.00  0.00    +0.000 A 
ATOM     16  N   UNL     1      51.068   1.197  17.157  0.00  0.00    +0.000 N 
ATOM     17  C   UNL     1      50.121   2.085  16.688  0.00  0.00    +0.000 A 
ATOM     18  O   UNL     1      49.346   1.738  15.805  0.00  0.00    +0.000 OA
ATOM     19  C   UNL     1      50.195   3.413  17.269  0.00  0.00    +0.000 A 
ATOM     20  H   UNL     1      51.031   0.263  16.780  0.00  0.00    +0.000 HD
ENDBRANCH   8  10
ENDBRANCH   1   8
BRANCH   1  21
ATOM     21  C   UNL     1      47.175   3.995  14.442  0.00  0.00    +0.000 C 
BRANCH  21  22
ATOM     22  C   UNL     1      46.214   4.156  13.278  0.00  0.00    +0.000 A 
ATOM     23  C   UNL     1      46.316   5.324  12.502  0.00  0.00    +0.000 A 
ATOM     24  C   UNL     1      45.604   5.473  11.306  0.00  0.00    +0.000 A 
ATOM     25  C   UNL     1      44.751   4.460  10.858  0.00  0.00    +0.000 A 
ATOM     26  C   UNL     1      44.607   3.315  11.651  0.00  0.00    +0.000 A 
ATOM     27  C   UNL     1      45.331   3.164  12.844  0.00  0.00    +0.000 A 
BRANCH  25  28
ATOM     28  C   UNL     1      44.002   4.605   9.548  0.00  0.00    +0.000 C 
BRANCH  28  29
ATOM     29  N   UNL     1      44.583   3.865   8.416  0.00  0.00    +0.000 NA
ATOM     30  C   UNL     1      44.653   2.427   8.709  0.00  0.00    +0.000 C 
ATOM     31  C   UNL     1      46.057   1.978   8.322  0.00  0.00    +0.000 C 
ATOM     32  N   UNL     1      46.673   3.104   7.618  0.00  0.00    +0.000 NA
ATOM     33  C   UNL     1      46.572   2.956   6.170  0.00  0.00    +0.000 C 
ATOM     34  C   UNL     1      45.946   4.281   8.103  0.00  0.00    +0.000 C 
ENDBRANCH  28  29
ENDBRANCH  25  28
ENDBRANCH  21  22
ENDBRANCH   1  21
TORSDOF 10
ENDMDL
MODEL 3
REMARK VINA RESULT:    -6.510      3.392      8.961
REMARK INTER + INTRA:         -11.860
REMARK INTER:                 -10.706
REMARK INTRA:                  -1.154
REMARK UNBOUND:                -1.544
REMARK  Name = 
REMARK  12 active torsions:
REMARK  status: ('A' for Active; 'I' for Inactive)
REMARK    1  A    between atoms: C_1  and  O_2
REMARK    2  A    between atoms: O_2  and  C_3
REMARK    3  A    between atoms: C_3  and  C_4
REMARK    4  A    between atoms: C_4  and  N_5
REMARK    5  A    between atoms: N_5  and  C_6
REMARK    6  A    between atoms: C_6  and  C_7
REMARK    7  A    between atoms: C_6  and  C_21
REMARK    8  A    between atoms: C_7  and  C_8
REMARK    9  A    between atoms: C_11  and  C_12
REMARK   10  A    between atoms: C_12  and  N_13
REMARK   11  A    between atoms: N_16  and  C_17
REMARK   12  A    between atoms: C_21  and  C_23
REMARK                            x       y       z     vdW  Elec       q    Type
REMARK                         _______ _______ _______ _____ _____    ______ ____
ROOT
ATOM      1  C   UNL     1      47.259   4.927  15.839  0.00  0.00    +0.000 C 
ENDROOT
BRANCH   1   2
ATOM      2  N   UNL     1      47.987   6.132  16.321  0.00  0.00    +0.000 NA
ATOM      3  H   UNL     1      47.290   6.851  16.544  0.00  0.00    +0.000 HD
BRANCH   2   4
ATOM      4  C   UNL     1      48.951   6.709  15.377  0.00  0.00    +0.000 C 
BRANCH   4   5
ATOM      5  C   UNL     1      48.650   8.127  14.868  0.00  0.00    +0.000 C 
BRANCH   5   7
ATOM      6  C   UNL     1      49.460   7.372  12.790  0.00  0.00    +0.000 C 
ATOM      7  O   UNL     1      48.436   8.103  13.455  0.00  0.00    +0.000 OA
ENDBRANCH   5   7
ENDBRANCH   4   5
ENDBRANCH   2   4
ENDBRANCH   1   2
BRANCH   1   8
ATOM      8  C   UNL     1      47.463   3.747  16.817  0.00  0.00    +0.000 C 
ATOM      9  O   UNL     1      46.486   3.124  17.250  0.00  0.00    +0.000 OA
BRANCH   8  10
ATOM     10  C   UNL     1      48.812   3.290  17.238  0.00  0.00    +0.000 A 
ATOM     11  C   UNL     1      49.305   2.113  16.686  0.00  0.00    +0.000 A 
ATOM     12  S   UNL     1      50.914   1.769  17.116  0.00  0.00    +0.000 S 
ATOM     13  C   UNL     1      51.031   3.207  18.021  0.00  0.00    +0.000 A 
ATOM     14  N   UNL     1      52.220   3.574  18.570  0.00  0.00    +0.000 NA
ATOM     15  C   UNL     1      52.197   4.711  19.178  0.00  0.00    +0.000 A 
ATOM     16  N   UNL     1      51.079   5.488  19.332  0.00  0.00    +0.000 N 
ATOM     17  C   UNL     1      49.828   5.082  18.912  0.00  0.00    +0.000 A 
ATOM     18  O   UNL     1      48.832   5.688  19.290  0.00  0.00    +0.000 OA
ATOM     19  C   UNL     1      49.824   3.886  18.088  0.00  0.00    +0.000 A 
ATOM     20  H   UNL     1      51.111   6.324  19.895  0.00  0.00    +0.000 HD
ENDBRANCH   8  10
ENDBRANCH   1   8
BRANCH   1  21
ATOM     21  C   UNL     1      47.560   4.484  14.386  0.00  0.00    +0.000 C 
BRANCH  21  22
ATOM     22  C   UNL     1      46.480   4.438  13.322  0.00  0.00    +0.000 A 
ATOM     23  C   UNL     1      46.223   5.619  12.601  0.00  0.00    +0.000 A 
ATOM     24  C   UNL     1      45.381   5.623  11.482  0.00  0.00    +0.000 A 
ATOM     25  C   UNL     1      44.756   4.447  11.059  0.00  0.00    +0.000 A 
ATOM     26  C   UNL     1      44.969   3.279  11.803  0.00  0.00    +0.000 A 
ATOM     27  C   UNL     1      45.821   3.275  12.918  0.00  0.00    +0.000 A 
BRANCH  25  28
ATOM     28  C   UNL     1      43.869   4.442   9.830  0.00  0.00    +0.000 C 
BRANCH  28  29
ATOM     29  N   UNL     1      44.461   3.808   8.641  0.00  0.00    +0.000 NA
ATOM     30  C   UNL     1      44.541   2.351   8.808  0.00  0.00    +0.000 C 
ATOM     31  C   UNL     1      45.951   1.948   8.389  0.00  0.00    +0.000 C 
ATOM     32  N   UNL     1      46.560   3.136   7.789  0.00  0.00    +0.000 NA
ATOM     33  C   UNL     1      46.465   3.114   6.333  0.00  0.00    +0.000 C 
ATOM     34  C   UNL     1      45.822   4.260   8.371  0.00  0.00    +0.000 C 
ENDBRANCH  28  29
ENDBRANCH  25  28
ENDBRANCH  21  22
ENDBRANCH   1  21
TORSDOF 10
ENDMDL
MODEL 4
REMARK VINA RESULT:    -6.190      4.289      9.216
REMARK INTER + INTRA:         -11.352
REMARK INTER:                 -10.294
REMARK INTRA:                  -1.058
REMARK UNBOUND:                -1.544
REMARK  Name = 
REMARK  12 active torsions:
REMARK  status: ('A' for Active; 'I' for Inactive)
REMARK    1  A    between atoms: C_1  and  O_2
REMARK    2  A    between atoms: O_2  and  C_3
REMARK    3  A    between atoms: C_3  and  C_4
REMARK    4  A    between atoms: C_4  and  N_5
REMARK    5  A    between atoms: N_5  and  C_6
REMARK    6  A    between atoms: C_6  and  C_7
REMARK    7  A    between atoms: C_6  and  C_21
REMARK    8  A    between atoms: C_7  and  C_8
REMARK    9  A    between atoms: C_11  and  C_12
REMARK   10  A    between atoms: C_12  and  N_13
REMARK   11  A    between atoms: N_16  and  C_17
REMARK   12  A    between atoms: C_21  and  C_23
REMARK                            x       y       z     vdW  Elec       q    Type
REMARK                         _______ _______ _______ _____ _____    ______ ____
ROOT
ATOM      1  C   UNL     1      48.238   5.922  17.388  0.00  0.00    +0.000 C 
ENDROOT
BRANCH   1   2
ATOM      2  N   UNL     1      48.509   7.032  18.343  0.00  0.00    +0.000 NA
ATOM      3  H   UNL     1      49.484   6.949  18.651  0.00  0.00    +0.000 HD
BRANCH   2   4
ATOM      4  C   UNL     1      47.656   7.063  19.537  0.00  0.00    +0.000 C 
BRANCH   4   5
ATOM      5  C   UNL     1      48.359   6.865  20.889  0.00  0.00    +0.000 C 
BRANCH   5   7
ATOM      6  C   UNL     1      49.288   9.015  21.133  0.00  0.00    +0.000 C 
ATOM      7  O   UNL     1      49.563   7.634  20.930  0.00  0.00    +0.000 OA
ENDBRANCH   5   7
ENDBRANCH   4   5
ENDBRANCH   2   4
ENDBRANCH   1   2
BRANCH   1   8
ATOM      8  C   UNL     1      48.724   4.577  17.973  0.00  0.00    +0.000 C 
ATOM      9  O   UNL     1      47.904   3.708  18.294  0.00  0.00    +0.000 OA
BRANCH   8  10
ATOM     10  C   UNL     1      50.166   4.256  18.133  0.00  0.00    +0.000 A 
ATOM     11  C   UNL     1      50.959   5.147  18.846  0.00  0.00    +0.000 A 
ATOM     12  S   UNL     1      52.551   4.606  19.101  0.00  0.00    +0.000 S 
ATOM     13  C   UNL     1      52.228   3.134  18.307  0.00  0.00    +0.000 A 
ATOM     14  N   UNL     1      53.169   2.153  18.279  0.00  0.00    +0.000 NA
ATOM     15  C   UNL     1      52.786   1.064  17.704  0.00  0.00    +0.000 A 
ATOM     16  N   UNL     1      51.564   0.887  17.108  0.00  0.00    +0.000 N 
ATOM     17  C   UNL     1      50.640   1.906  16.993  0.00  0.00    +0.000 A 
ATOM     18  O   UNL     1      49.680   1.776  16.243  0.00  0.00    +0.000 OA
ATOM     19  C   UNL     1      50.956   3.101  17.756  0.00  0.00    +0.000 A 
ATOM     20  H   UNL     1      51.362   0.041  16.598  0.00  0.00    +0.000 HD
ENDBRANCH   8  10
ENDBRANCH   1   8
BRANCH   1  21
ATOM     21  C   UNL     1      48.777   6.113  15.950  0.00  0.00    +0.000 C 
BRANCH  21  22
ATOM     22  C   UNL     1      47.920   5.837  14.729  0.00  0.00    +0.000 A 
ATOM     23  C   UNL     1      47.147   4.662  14.726  0.00  0.00    +0.000 A 
ATOM     24  C   UNL     1      46.191   4.418  13.733  0.00  0.00    +0.000 A 
ATOM     25  C   UNL     1      45.990   5.338  12.700  0.00  0.00    +0.000 A 
ATOM     26  C   UNL     1      46.791   6.487  12.670  0.00  0.00    +0.000 A 
ATOM     27  C   UNL     1      47.741   6.733  13.673  0.00  0.00    +0.000 A 
BRANCH  25  28
ATOM     28  C   UNL     1      44.934   5.092  11.640  0.00  0.00    +0.000 C 
BRANCH  28  29
ATOM     29  N   UNL     1      45.327   4.148  10.581  0.00  0.00    +0.000 NA
ATOM     30  C   UNL     1      45.352   4.812   9.271  0.00  0.00    +0.000 C 
ATOM     31  C   UNL     1      44.602   3.895   8.310  0.00  0.00    +0.000 C 
ATOM     32  N   UNL     1      44.366   2.644   9.033  0.00  0.00    +0.000 NA
ATOM     33  C   UNL     1      45.368   1.635   8.708  0.00  0.00    +0.000 C 
ATOM     34  C   UNL     1      44.406   3.024  10.448  0.00  0.00    +0.000 C 
ENDBRANCH  28  29
ENDBRANCH  25  28
ENDBRANCH  21  22
ENDBRANCH   1  21
TORSDOF 10
ENDMDL
MODEL 5
REMARK VINA RESULT:    -6.181      2.060      2.884
REMARK INTER + INTRA:         -11.338
REMARK INTER:                 -10.318
REMARK INTRA:                  -1.020
REMARK UNBOUND:                -1.544
REMARK  Name = 
REMARK  12 active torsions:
REMARK  status: ('A' for Active; 'I' for Inactive)
REMARK    1  A    between atoms: C_1  and  O_2
REMARK    2  A    between atoms: O_2  and  C_3
REMARK    3  A    between atoms: C_3  and  C_4
REMARK    4  A    between atoms: C_4  and  N_5
REMARK    5  A    between atoms: N_5  and  C_6
REMARK    6  A    between atoms: C_6  and  C_7
REMARK    7  A    between atoms: C_6  and  C_21
REMARK    8  A    between atoms: C_7  and  C_8
REMARK    9  A    between atoms: C_11  and  C_12
REMARK   10  A    between atoms: C_12  and  N_13
REMARK   11  A    between atoms: N_16  and  C_17
REMARK   12  A    between atoms: C_21  and  C_23
REMARK                            x       y       z     vdW  Elec       q    Type
REMARK                         _______ _______ _______ _____ _____    ______ ____
ROOT
ATOM      1  C   UNL     1      46.603   7.335  11.987  0.00  0.00    +0.000 C 
ENDROOT
BRANCH   1   2
ATOM      2  N   UNL     1      46.555   8.543  12.855  0.00  0.00    +0.000 NA
ATOM      3  H   UNL     1      45.592   8.895  12.850  0.00  0.00    +0.000 HD
BRANCH   2   4
ATOM      4  C   UNL     1      47.444   9.642  12.460  0.00  0.00    +0.000 C 
BRANCH   4   5
ATOM      5  C   UNL     1      48.605   9.962  13.415  0.00  0.00    +0.000 C 
BRANCH   5   7
ATOM      6  C   UNL     1      49.807  10.233  11.408  0.00  0.00    +0.000 C 
ATOM      7  O   UNL     1      49.853   9.759  12.748  0.00  0.00    +0.000 OA
ENDBRANCH   5   7
ENDBRANCH   4   5
ENDBRANCH   2   4
ENDBRANCH   1   2
BRANCH   1   8
ATOM      8  C   UNL     1      45.172   6.879  11.619  0.00  0.00    +0.000 C 
ATOM      9  O   UNL     1      44.289   7.718  11.407  0.00  0.00    +0.000 OA
BRANCH   8  10
ATOM     10  C   UNL     1      44.811   5.446  11.464  0.00  0.00    +0.000 A 
ATOM     11  C   UNL     1      44.130   4.827  12.505  0.00  0.00    +0.000 A 
ATOM     12  S   UNL     1      43.632   3.239  12.158  0.00  0.00    +0.000 S 
ATOM     13  C   UNL     1      44.266   3.333  10.581  0.00  0.00    +0.000 A 
ATOM     14  N   UNL     1      44.065   2.315   9.702  0.00  0.00    +0.000 NA
ATOM     15  C   UNL     1      44.539   2.528   8.522  0.00  0.00    +0.000 A 
ATOM     16  N   UNL     1      45.243   3.647   8.158  0.00  0.00    +0.000 N 
ATOM     17  C   UNL     1      45.588   4.634   9.059  0.00  0.00    +0.000 A 
ATOM     18  O   UNL     1      46.420   5.478   8.749  0.00  0.00    +0.000 OA
ATOM     19  C   UNL     1      44.949   4.518  10.358  0.00  0.00    +0.000 A 
ATOM     20  H   UNL     1      45.662   3.711   7.243  0.00  0.00    +0.000 HD
ENDBRANCH   8  10
ENDBRANCH   1   8
BRANCH   1  21
ATOM     21  C   UNL     1      47.430   6.141  12.524  0.00  0.00    +0.000 C 
BRANCH  21  22
ATOM     22  C   UNL     1      47.552   5.856  14.009  0.00  0.00    +0.000 A 
ATOM     23  C   UNL     1      46.873   4.734  14.517  0.00  0.00    +0.000 A 
ATOM     24  C   UNL     1      47.077   4.288  15.828  0.00  0.00    +0.000 A 
ATOM     25  C   UNL     1      47.957   4.963  16.679  0.00  0.00    +0.000 A 
ATOM     26  C   UNL     1      48.598   6.111  16.195  0.00  0.00    +0.000 A 
ATOM     27  C   UNL     1      48.400   6.549  14.876  0.00  0.00    +0.000 A 
BRANCH  25  28
ATOM     28  C   UNL     1      48.203   4.465  18.090  0.00  0.00    +0.000 C 
BRANCH  28  29
ATOM     29  N   UNL     1      49.314   3.508  18.224  0.00  0.00    +0.000 NA
ATOM     30  C   UNL     1      50.564   4.201  18.564  0.00  0.00    +0.000 C 
ATOM     31  C   UNL     1      51.631   3.647  17.626  0.00  0.00    +0.000 C 
ATOM     32  N   UNL     1      51.023   2.508  16.935  0.00  0.00    +0.000 NA
ATOM     33  C   UNL     1      51.377   1.242  17.568  0.00  0.00    +0.000 C 
ATOM     34  C   UNL     1      49.582   2.769  16.995  0.00  0.00    +0.000 C 
ENDBRANCH  28  29
ENDBRANCH  25  28
ENDBRANCH  21  22
ENDBRANCH   1  21
TORSDOF 10
ENDMDL
MODEL 6
REMARK VINA RESULT:    -6.046      3.521      8.616
REMARK INTER + INTRA:         -11.124
REMARK INTER:                 -10.035
REMARK INTRA:                  -1.089
REMARK UNBOUND:                -1.544
REMARK  Name = 
REMARK  12 active torsions:
REMARK  status: ('A' for Active; 'I' for Inactive)
REMARK    1  A    between atoms: C_1  and  O_2
REMARK    2  A    between atoms: O_2  and  C_3
REMARK    3  A    between atoms: C_3  and  C_4
REMARK    4  A    between atoms: C_4  and  N_5
REMARK    5  A    between atoms: N_5  and  C_6
REMARK    6  A    between atoms: C_6  and  C_7
REMARK    7  A    between atoms: C_6  and  C_21
REMARK    8  A    between atoms: C_7  and  C_8
REMARK    9  A    between atoms: C_11  and  C_12
REMARK   10  A    between atoms: C_12  and  N_13
REMARK   11  A    between atoms: N_16  and  C_17
REMARK   12  A    between atoms: C_21  and  C_23
REMARK                            x       y       z     vdW  Elec       q    Type
REMARK                         _______ _______ _______ _____ _____    ______ ____
ROOT
ATOM      1  C   UNL     1      48.904   7.035  14.249  0.00  0.00    +0.000 C 
ENDROOT
BRANCH   1   2
ATOM      2  N   UNL     1      49.702   6.965  12.994  0.00  0.00    +0.000 NA
ATOM      3  H   UNL     1      50.647   6.651  13.240  0.00  0.00    +0.000 HD
BRANCH   2   4
ATOM      4  C   UNL     1      49.820   8.223  12.248  0.00  0.00    +0.000 C 
BRANCH   4   5
ATOM      5  C   UNL     1      48.820   9.333  12.610  0.00  0.00    +0.000 C 
BRANCH   5   7
ATOM      6  C   UNL     1      50.286  10.492  14.042  0.00  0.00    +0.000 C 
ATOM      7  O   UNL     1      49.517  10.558  12.847  0.00  0.00    +0.000 OA
ENDBRANCH   5   7
ENDBRANCH   4   5
ENDBRANCH   2   4
ENDBRANCH   1   2
BRANCH   1   8
ATOM      8  C   UNL     1      49.834   6.981  15.482  0.00  0.00    +0.000 C 
ATOM      9  O   UNL     1      51.060   7.050  15.338  0.00  0.00    +0.000 OA
BRANCH   8  10
ATOM     10  C   UNL     1      49.308   6.890  16.869  0.00  0.00    +0.000 A 
ATOM     11  C   UNL     1      48.615   7.982  17.379  0.00  0.00    +0.000 A 
ATOM     12  S   UNL     1      47.926   7.710  18.909  0.00  0.00    +0.000 S 
ATOM     13  C   UNL     1      48.488   6.103  18.931  0.00  0.00    +0.000 A 
ATOM     14  N   UNL     1      48.132   5.268  19.943  0.00  0.00    +0.000 NA
ATOM     15  C   UNL     1      48.568   4.061  19.817  0.00  0.00    +0.000 A 
ATOM     16  N   UNL     1      49.373   3.628  18.795  0.00  0.00    +0.000 N 
ATOM     17  C   UNL     1      49.870   4.480  17.829  0.00  0.00    +0.000 A 
ATOM     18  O   UNL     1      50.775   4.104  17.093  0.00  0.00    +0.000 OA
ATOM     19  C   UNL     1      49.288   5.810  17.836  0.00  0.00    +0.000 A 
ATOM     20  H   UNL     1      49.751   2.693  18.804  0.00  0.00    +0.000 HD
ENDBRANCH   8  10
ENDBRANCH   1   8
BRANCH   1  21
ATOM     21  C   UNL     1      47.760   6.001  14.388  0.00  0.00    +0.000 C 
BRANCH  21  22
ATOM     22  C   UNL     1      46.870   5.628  13.217  0.00  0.00    +0.000 A 
ATOM     23  C   UNL     1      46.379   4.312  13.162  0.00  0.00    +0.000 A 
ATOM     24  C   UNL     1      45.409   3.931  12.228  0.00  0.00    +0.000 A 
ATOM     25  C   UNL     1      44.911   4.856  11.305  0.00  0.00    +0.000 A 
ATOM     26  C   UNL     1      45.432   6.156  11.322  0.00  0.00    +0.000 A 
ATOM     27  C   UNL     1      46.397   6.537  12.267  0.00  0.00    +0.000 A 
BRANCH  25  28
ATOM     28  C   UNL     1      43.838   4.456  10.312  0.00  0.00    +0.000 C 
BRANCH  28  29
ATOM     29  N   UNL     1      44.339   3.846   9.069  0.00  0.00    +0.000 NA
ATOM     30  C   UNL     1      44.504   2.395   9.226  0.00  0.00    +0.000 C 
ATOM     31  C   UNL     1      45.883   2.057   8.670  0.00  0.00    +0.000 C 
ATOM     32  N   UNL     1      46.373   3.271   8.014  0.00  0.00    +0.000 NA
ATOM     33  C   UNL     1      46.137   3.239   6.574  0.00  0.00    +0.000 C 
ATOM     34  C   UNL     1      45.644   4.361   8.667  0.00  0.00    +0.000 C 
ENDBRANCH  28  29
ENDBRANCH  25  28
ENDBRANCH  21  22
ENDBRANCH   1  21
TORSDOF 10
ENDMDL
MODEL 7
REMARK VINA RESULT:    -5.856      3.594      5.346
REMARK INTER + INTRA:         -10.823
REMARK INTER:                  -9.633
REMARK INTRA:                  -1.189
REMARK UNBOUND:                -1.544
REMARK  Name = 
REMARK  12 active torsions:
REMARK  status: ('A' for Active; 'I' for Inactive)
REMARK    1  A    between atoms: C_1  and  O_2
REMARK    2  A    between atoms: O_2  and  C_3
REMARK    3  A    between atoms: C_3  and  C_4
REMARK    4  A    between atoms: C_4  and  N_5
REMARK    5  A    between atoms: N_5  and  C_6
REMARK    6  A    between atoms: C_6  and  C_7
REMARK    7  A    between atoms: C_6  and  C_21
REMARK    8  A    between atoms: C_7  and  C_8
REMARK    9  A    between atoms: C_11  and  C_12
REMARK   10  A    between atoms: C_12  and  N_13
REMARK   11  A    between atoms: N_16  and  C_17
REMARK   12  A    between atoms: C_21  and  C_23
REMARK                            x       y       z     vdW  Elec       q    Type
REMARK                         _______ _______ _______ _____ _____    ______ ____
ROOT
ATOM      1  C   UNL     1      46.060   7.028  12.632  0.00  0.00    +0.000 C 
ENDROOT
BRANCH   1   2
ATOM      2  N   UNL     1      47.046   5.916  12.703  0.00  0.00    +0.000 NA
ATOM      3  H   UNL     1      46.805   5.236  11.974  0.00  0.00    +0.000 HD
BRANCH   2   4
ATOM      4  C   UNL     1      47.110   5.206  13.986  0.00  0.00    +0.000 C 
BRANCH   4   5
ATOM      5  C   UNL     1      47.034   3.673  13.927  0.00  0.00    +0.000 C 
BRANCH   5   7
ATOM      6  C   UNL     1      47.417   3.941  16.235  0.00  0.00    +0.000 C 
ATOM      7  O   UNL     1      47.627   3.110  15.100  0.00  0.00    +0.000 OA
ENDBRANCH   5   7
ENDBRANCH   4   5
ENDBRANCH   2   4
ENDBRANCH   1   2
BRANCH   1   8
ATOM      8  C   UNL     1      44.828   6.604  11.801  0.00  0.00    +0.000 C 
ATOM      9  O   UNL     1      44.044   7.460  11.372  0.00  0.00    +0.000 OA
BRANCH   8  10
ATOM     10  C   UNL     1      44.558   5.186  11.449  0.00  0.00    +0.000 A 
ATOM     11  C   UNL     1      43.828   4.417  12.347  0.00  0.00    +0.000 A 
ATOM     12  S   UNL     1      43.445   2.862  11.775  0.00  0.00    +0.000 S 
ATOM     13  C   UNL     1      44.202   3.173  10.282  0.00  0.00    +0.000 A 
ATOM     14  N   UNL     1      44.129   2.260   9.276  0.00  0.00    +0.000 NA
ATOM     15  C   UNL     1      44.686   2.635   8.176  0.00  0.00    +0.000 A 
ATOM     16  N   UNL     1      45.357   3.819   8.007  0.00  0.00    +0.000 N 
ATOM     17  C   UNL     1      45.573   4.704   9.044  0.00  0.00    +0.000 A 
ATOM     18  O   UNL     1      46.382   5.615   8.909  0.00  0.00    +0.000 OA
ATOM     19  C   UNL     1      44.837   4.405  10.259  0.00  0.00    +0.000 A 
ATOM     20  H   UNL     1      45.847   4.011   7.146  0.00  0.00    +0.000 HD
ENDBRANCH   8  10
ENDBRANCH   1   8
BRANCH   1  21
ATOM     21  C   UNL     1      46.603   8.391  12.138  0.00  0.00    +0.000 C 
BRANCH  21  22
ATOM     22  C   UNL     1      48.075   8.750  12.237  0.00  0.00    +0.000 A 
ATOM     23  C   UNL     1      48.479   9.559  13.314  0.00  0.00    +0.000 A 
ATOM     24  C   UNL     1      49.832   9.786  13.590  0.00  0.00    +0.000 A 
ATOM     25  C   UNL     1      50.825   9.223  12.784  0.00  0.00    +0.000 A 
ATOM     26  C   UNL     1      50.428   8.457  11.680  0.00  0.00    +0.000 A 
ATOM     27  C   UNL     1      49.071   8.222  11.412  0.00  0.00    +0.000 A 
BRANCH  25  28
ATOM     28  C   UNL     1      52.292   9.441  13.098  0.00  0.00    +0.000 C 
BRANCH  28  29
ATOM     29  N   UNL     1      53.027   8.231  13.499  0.00  0.00    +0.000 NA
ATOM     30  C   UNL     1      52.711   7.859  14.884  0.00  0.00    +0.000 C 
ATOM     31  C   UNL     1      54.044   7.585  15.571  0.00  0.00    +0.000 C 
ATOM     32  N   UNL     1      55.060   7.587  14.516  0.00  0.00    +0.000 NA
ATOM     33  C   UNL     1      55.376   6.235  14.069  0.00  0.00    +0.000 C 
ATOM     34  C   UNL     1      54.476   8.399  13.446  0.00  0.00    +0.000 C 
ENDBRANCH  28  29
ENDBRANCH  25  28
ENDBRANCH  21  22
ENDBRANCH   1  21
TORSDOF 10
ENDMDL
MODEL 8
REMARK VINA RESULT:    -5.816      3.654      9.438
REMARK INTER + INTRA:         -10.759
REMARK INTER:                  -9.796
REMARK INTRA:                  -0.964
REMARK UNBOUND:                -1.544
REMARK  Name = 
REMARK  12 active torsions:
REMARK  status: ('A' for Active; 'I' for Inactive)
REMARK    1  A    between atoms: C_1  and  O_2
REMARK    2  A    between atoms: O_2  and  C_3
REMARK    3  A    between atoms: C_3  and  C_4
REMARK    4  A    between atoms: C_4  and  N_5
REMARK    5  A    between atoms: N_5  and  C_6
REMARK    6  A    between atoms: C_6  and  C_7
REMARK    7  A    between atoms: C_6  and  C_21
REMARK    8  A    between atoms: C_7  and  C_8
REMARK    9  A    between atoms: C_11  and  C_12
REMARK   10  A    between atoms: C_12  and  N_13
REMARK   11  A    between atoms: N_16  and  C_17
REMARK   12  A    between atoms: C_21  and  C_23
REMARK                            x       y       z     vdW  Elec       q    Type
REMARK                         _______ _______ _______ _____ _____    ______ ____
ROOT
ATOM      1  C   UNL     1      48.344   5.902  15.176  0.00  0.00    +0.000 C 
ENDROOT
BRANCH   1   2
ATOM      2  N   UNL     1      47.238   5.175  15.858  0.00  0.00    +0.000 NA
ATOM      3  H   UNL     1      47.005   5.690  16.713  0.00  0.00    +0.000 HD
BRANCH   2   4
ATOM      4  C   UNL     1      47.527   3.785  16.228  0.00  0.00    +0.000 C 
BRANCH   4   5
ATOM      5  C   UNL     1      47.593   3.473  17.731  0.00  0.00    +0.000 C 
BRANCH   5   7
ATOM      6  C   UNL     1      49.371   2.207  16.850  0.00  0.00    +0.000 C 
ATOM      7  O   UNL     1      48.792   2.754  18.028  0.00  0.00    +0.000 OA
ENDBRANCH   5   7
ENDBRANCH   4   5
ENDBRANCH   2   4
ENDBRANCH   1   2
BRANCH   1   8
ATOM      8  C   UNL     1      48.790   7.118  16.020  0.00  0.00    +0.000 C 
ATOM      9  O   UNL     1      49.020   8.202  15.472  0.00  0.00    +0.000 OA
BRANCH   8  10
ATOM     10  C   UNL     1      48.918   7.053  17.499  0.00  0.00    +0.000 A 
ATOM     11  C   UNL     1      48.043   7.815  18.265  0.00  0.00    +0.000 A 
ATOM     12  S   UNL     1      48.175   7.545  19.938  0.00  0.00    +0.000 S 
ATOM     13  C   UNL     1      49.376   6.363  19.703  0.00  0.00    +0.000 A 
ATOM     14  N   UNL     1      49.845   5.645  20.758  0.00  0.00    +0.000 NA
ATOM     15  C   UNL     1      50.706   4.738  20.445  0.00  0.00    +0.000 A 
ATOM     16  N   UNL     1      51.180   4.520  19.178  0.00  0.00    +0.000 N 
ATOM     17  C   UNL     1      50.834   5.320  18.107  0.00  0.00    +0.000 A 
ATOM     18  O   UNL     1      51.467   5.245  17.060  0.00  0.00    +0.000 OA
ATOM     19  C   UNL     1      49.754   6.253  18.373  0.00  0.00    +0.000 A 
ATOM     20  H   UNL     1      51.919   3.852  19.016  0.00  0.00    +0.000 HD
ENDBRANCH   8  10
ENDBRANCH   1   8
BRANCH   1  21
ATOM     21  C   UNL     1      48.080   6.327  13.711  0.00  0.00    +0.000 C 
BRANCH  21  22
ATOM     22  C   UNL     1      46.871   5.833  12.939  0.00  0.00    +0.000 A 
ATOM     23  C   UNL     1      46.287   6.709  12.007  0.00  0.00    +0.000 A 
ATOM     24  C   UNL     1      45.292   6.278  11.122  0.00  0.00    +0.000 A 
ATOM     25  C   UNL     1      44.837   4.957  11.154  0.00  0.00    +0.000 A 
ATOM     26  C   UNL     1      45.379   4.093  12.114  0.00  0.00    +0.000 A 
ATOM     27  C   UNL     1      46.384   4.524  12.993  0.00  0.00    +0.000 A 
BRANCH  25  28
ATOM     28  C   UNL     1      43.782   4.479  10.177  0.00  0.00    +0.000 C 
BRANCH  28  29
ATOM     29  N   UNL     1      44.308   3.846   8.956  0.00  0.00    +0.000 NA
ATOM     30  C   UNL     1      44.429   2.393   9.130  0.00  0.00    +0.000 C 
ATOM     31  C   UNL     1      45.816   2.014   8.623  0.00  0.00    +0.000 C 
ATOM     32  N   UNL     1      46.360   3.209   7.975  0.00  0.00    +0.000 NA
ATOM     33  C   UNL     1      46.172   3.170   6.529  0.00  0.00    +0.000 C 
ATOM     34  C   UNL     1      45.639   4.323   8.595  0.00  0.00    +0.000 C 
ENDBRANCH  28  29
ENDBRANCH  25  28
ENDBRANCH  21  22
ENDBRANCH   1  21
TORSDOF 10
ENDMDL
MODEL 9
REMARK VINA RESULT:    -5.664      4.736      7.660
REMARK INTER + INTRA:         -10.519
REMARK INTER:                  -9.279
REMARK INTRA:                  -1.240
REMARK UNBOUND:                -1.544
REMARK  Name = 
REMARK  12 active torsions:
REMARK  status: ('A' for Active; 'I' for Inactive)
REMARK    1  A    between atoms: C_1  and  O_2
REMARK    2  A    between atoms: O_2  and  C_3
REMARK    3  A    between atoms: C_3  and  C_4
REMARK    4  A    between atoms: C_4  and  N_5
REMARK    5  A    between atoms: N_5  and  C_6
REMARK    6  A    between atoms: C_6  and  C_7
REMARK    7  A    between atoms: C_6  and  C_21
REMARK    8  A    between atoms: C_7  and  C_8
REMARK    9  A    between atoms: C_11  and  C_12
REMARK   10  A    between atoms: C_12  and  N_13
REMARK   11  A    between atoms: N_16  and  C_17
REMARK   12  A    between atoms: C_21  and  C_23
REMARK                            x       y       z     vdW  Elec       q    Type
REMARK                         _______ _______ _______ _____ _____    ______ ____
ROOT
ATOM      1  C   UNL     1      48.175   6.858  14.787  0.00  0.00    +0.000 C 
ENDROOT
BRANCH   1   2
ATOM      2  N   UNL     1      49.043   5.933  15.566  0.00  0.00    +0.000 NA
ATOM      3  H   UNL     1      49.181   5.085  15.005  0.00  0.00    +0.000 HD
BRANCH   2   4
ATOM      4  C   UNL     1      48.524   5.532  16.879  0.00  0.00    +0.000 C 
BRANCH   4   5
ATOM      5  C   UNL     1      47.820   4.169  16.952  0.00  0.00    +0.000 C 
BRANCH   5   7
ATOM      6  C   UNL     1      49.641   2.738  17.376  0.00  0.00    +0.000 C 
ATOM      7  O   UNL     1      48.672   3.151  16.421  0.00  0.00    +0.000 OA
ENDBRANCH   5   7
ENDBRANCH   4   5
ENDBRANCH   2   4
ENDBRANCH   1   2
BRANCH   1   8
ATOM      8  C   UNL     1      47.927   6.297  13.368  0.00  0.00    +0.000 C 
ATOM      9  O   UNL     1      48.877   5.896  12.685  0.00  0.00    +0.000 OA
BRANCH   8  10
ATOM     10  C   UNL     1      46.564   6.177  12.789  0.00  0.00    +0.000 A 
ATOM     11  C   UNL     1      45.977   7.318  12.255  0.00  0.00    +0.000 A 
ATOM     12  S   UNL     1      44.490   7.034  11.482  0.00  0.00    +0.000 S 
ATOM     13  C   UNL     1      44.594   5.363  11.790  0.00  0.00    +0.000 A 
ATOM     14  N   UNL     1      43.664   4.514  11.276  0.00  0.00    +0.000 NA
ATOM     15  C   UNL     1      43.884   3.268  11.526  0.00  0.00    +0.000 A 
ATOM     16  N   UNL     1      44.922   2.799  12.289  0.00  0.00    +0.000 N 
ATOM     17  C   UNL     1      45.802   3.639  12.942  0.00  0.00    +0.000 A 
ATOM     18  O   UNL     1      46.549   3.188  13.802  0.00  0.00    +0.000 OA
ATOM     19  C   UNL     1      45.693   5.038  12.571  0.00  0.00    +0.000 A 
ATOM     20  H   UNL     1      44.985   1.819  12.518  0.00  0.00    +0.000 HD
ENDBRANCH   8  10
ENDBRANCH   1   8
BRANCH   1  21
ATOM     21  C   UNL     1      48.643   8.332  14.712  0.00  0.00    +0.000 C 
BRANCH  21  22
ATOM     22  C   UNL     1      49.672   8.795  13.698  0.00  0.00    +0.000 A 
ATOM     23  C   UNL     1      51.018   8.467  13.937  0.00  0.00    +0.000 A 
ATOM     24  C   UNL     1      52.007   8.689  12.971  0.00  0.00    +0.000 A 
ATOM     25  C   UNL     1      51.680   9.262  11.739  0.00  0.00    +0.000 A 
ATOM     26  C   UNL     1      50.348   9.636  11.514  0.00  0.00    +0.000 A 
ATOM     27  C   UNL     1      49.358   9.404  12.480  0.00  0.00    +0.000 A 
BRANCH  25  28
ATOM     28  C   UNL     1      52.742   9.475  10.678  0.00  0.00    +0.000 C 
BRANCH  28  29
ATOM     29  N   UNL     1      52.549   8.698   9.443  0.00  0.00    +0.000 NA
ATOM     30  C   UNL     1      52.471   7.261   9.734  0.00  0.00    +0.000 C 
ATOM     31  C   UNL     1      53.397   6.570   8.738  0.00  0.00    +0.000 C 
ATOM     32  N   UNL     1      53.801   7.593   7.772  0.00  0.00    +0.000 NA
ATOM     33  C   UNL     1      52.988   7.544   6.562  0.00  0.00    +0.000 C 
ATOM     34  C   UNL     1      53.643   8.860   8.491  0.00  0.00    +0.000 C 
ENDBRANCH  28  29
ENDBRANCH  25  28
ENDBRANCH  21  22
ENDBRANCH   1  21
TORSDOF 10
ENDMDL
