MODEL 1
REMARK VINA RESULT:    -8.552      0.000      0.000
REMARK INTER + INTRA:         -13.872
REMARK INTER:                 -12.802
REMARK INTRA:                  -1.070
REMARK UNBOUND:                -1.070
REMARK  Name = 
REMARK  10 active torsions:
REMARK  status: ('A' for Active; 'I' for Inactive)
REMARK    1  A    between atoms: C_1  and  O_2
REMARK    2  A    between atoms: O_2  and  C_3
REMARK    3  A    between atoms: C_10  and  C_11
REMARK    4  A    between atoms: N_13  and  C_14
REMARK    5  A    between atoms: C_14  and  C_15
REMARK    6  A    between atoms: C_18  and  O_19
REMARK    7  A    between atoms: O_19  and  C_20
REMARK    8  A    between atoms: C_20  and  C_21
REMARK    9  A    between atoms: C_21  and  O_22
REMARK   10  A    between atoms: C_21  and  C_23
REMARK                            x       y       z     vdW  Elec       q    Type
REMARK                         _______ _______ _______ _____ _____    ______ ____
ROOT
ATOM      1  C   UNL     1      48.182   6.929  14.140  0.00  0.00    +0.000 A 
ATOM      2  C   UNL     1      47.514   5.711  14.304  0.00  0.00    +0.000 A 
ATOM      3  C   UNL     1      46.670   5.215  13.306  0.00  0.00    +0.000 A 
ATOM      4  C   UNL     1      46.493   5.913  12.112  0.00  0.00    +0.000 A 
ATOM      5  C   UNL     1      47.215   7.095  11.912  0.00  0.00    +0.000 A 
ATOM      6  C   UNL     1      48.057   7.596  12.913  0.00  0.00    +0.000 A 
ENDROOT
BRANCH   1   7
ATOM      7  C   UNL     1      48.977   7.513  15.282  0.00  0.00    +0.000 C 
BRANCH   7  10
ATOM      8  C   UNL     1      49.730   6.064  17.110  0.00  0.00    +0.000 C 
ATOM      9  O   UNL     1      48.761   6.386  17.794  0.00  0.00    +0.000 OA
ATOM     10  N   UNL     1      49.910   6.575  15.850  0.00  0.00    +0.000 N 
ATOM     11  H   UNL     1      50.665   6.244  15.268  0.00  0.00    +0.000 HD
BRANCH   8  19
ATOM     12  C   UNL     1      50.116   2.653  16.970  0.00  0.00    +0.000 A 
ATOM     13  N   UNL     1      50.562   1.382  16.959  0.00  0.00    +0.000 NA
ATOM     14  C   UNL     1      51.755   1.129  17.510  0.00  0.00    +0.000 A 
ATOM     15  N   UNL     1      52.570   2.005  18.095  0.00  0.00    +0.000 NA
ATOM     16  C   UNL     1      52.092   3.259  18.073  0.00  0.00    +0.000 A 
ATOM     17  S   UNL     1      52.982   4.509  18.801  0.00  0.00    +0.000 S 
ATOM     18  C   UNL     1      51.823   5.666  18.347  0.00  0.00    +0.000 A 
ATOM     19  C   UNL     1      50.755   5.140  17.628  0.00  0.00    +0.000 A 
ATOM     20  C   UNL     1      50.894   3.691  17.513  0.00  0.00    +0.000 A 
BRANCH  12  22
ATOM     21  C   UNL     1      47.817   2.869  17.441  0.00  0.00    +0.000 C 
ATOM     22  O   UNL     1      48.859   2.919  16.469  0.00  0.00    +0.000 OA
ENDBRANCH  12  22
ENDBRANCH   8  19
ENDBRANCH   7  10
ENDBRANCH   1   7
BRANCH   4  23
ATOM     23  O   UNL     1      45.636   5.553  11.099  0.00  0.00    +0.000 OA
BRANCH  23  24
ATOM     24  C   UNL     1      44.965   4.291  11.263  0.00  0.00    +0.000 C 
BRANCH  24  25
ATOM     25  C   UNL     1      44.288   3.798   9.966  0.00  0.00    +0.000 C 
BRANCH  25  26
ATOM     26  C   UNL     1      45.248   3.301   8.906  0.00  0.00    +0.000 A 
ATOM     27  C   UNL     1      45.898   4.182   8.028  0.00  0.00    +0.000 A 
ATOM     28  C   UNL     1      46.797   3.707   7.070  0.00  0.00    +0.000 A 
ATOM     29  C   UNL     1      47.054   2.341   6.971  0.00  0.00    +0.000 A 
ATOM     30  C   UNL     1      46.405   1.455   7.826  0.00  0.00    +0.000 A 
ATOM     31 CL   UNL     1      46.721  -0.232   7.706  0.00  0.00    +0.000 Cl
ATOM     32  C   UNL     1      45.506   1.925   8.785  0.00  0.00    +0.000 A 
ENDBRANCH  25  26
BRANCH  25  33
ATOM     33  O   UNL     1      43.425   4.791   9.417  0.00  0.00    +0.000 OA
ATOM     34  H   UNL     1      43.078   5.310  10.164  0.00  0.00    +0.000 HD
ENDBRANCH  25  33
ENDBRANCH  24  25
ENDBRANCH  23  24
ENDBRANCH   4  23
TORSDOF 9
ENDMDL
MODEL 2
REMARK VINA RESULT:    -8.143      2.135      2.626
REMARK INTER + INTRA:         -13.259
REMARK INTER:                 -11.864
REMARK INTRA:                  -1.395
REMARK UNBOUND:                -1.070
REMARK  Name = 
REMARK  10 active torsions:
REMARK  status: ('A' for Active; 'I' for Inactive)
REMARK    1  A    between atoms: C_1  and  O_2
REMARK    2  A    between atoms: O_2  and  C_3
REMARK    3  A    between atoms: C_10  and  C_11
REMARK    4  A    between atoms: N_13  and  C_14
REMARK    5  A    between atoms: C_14  and  C_15
REMARK    6  A    between atoms: C_18  and  O_19
REMARK    7  A    between atoms: O_19  and  C_20
REMARK    8  A    between atoms: C_20  and  C_21
REMARK    9  A    between atoms: C_21  and  O_22
REMARK   10  A    between atoms: C_21  and  C_23
REMARK                            x       y       z     vdW  Elec       q    Type
REMARK                         _______ _______ _______ _____ _____    ______ ____
ROOT
ATOM      1  C   UNL     1      47.579   6.530  12.780  0.00  0.00    +0.000 A 
ATOM      2  C   UNL     1      47.013   5.450  13.466  0.00  0.00    +0.000 A 
ATOM      3  C   UNL     1      45.698   5.048  13.211  0.00  0.00    +0.000 A 
ATOM      4  C   UNL     1      44.927   5.701  12.251  0.00  0.00    +0.000 A 
ATOM      5  C   UNL     1      45.512   6.735  11.510  0.00  0.00    +0.000 A 
ATOM      6  C   UNL     1      46.828   7.142  11.767  0.00  0.00    +0.000 A 
ENDROOT
BRANCH   1   7
ATOM      7  C   UNL     1      48.947   7.034  13.166  0.00  0.00    +0.000 C 
BRANCH   7  10
ATOM      8  C   UNL     1      48.732   7.883  15.457  0.00  0.00    +0.000 C 
ATOM      9  O   UNL     1      48.075   8.844  15.062  0.00  0.00    +0.000 OA
ATOM     10  N   UNL     1      49.200   6.937  14.580  0.00  0.00    +0.000 N 
ATOM     11  H   UNL     1      49.670   6.112  14.923  0.00  0.00    +0.000 HD
BRANCH   8  19
ATOM     12  C   UNL     1      48.894   5.168  17.554  0.00  0.00    +0.000 A 
ATOM     13  N   UNL     1      49.147   4.280  18.536  0.00  0.00    +0.000 NA
ATOM     14  C   UNL     1      49.629   4.746  19.695  0.00  0.00    +0.000 A 
ATOM     15  N   UNL     1      49.883   6.016  20.006  0.00  0.00    +0.000 NA
ATOM     16  C   UNL     1      49.627   6.862  18.996  0.00  0.00    +0.000 A 
ATOM     17  S   UNL     1      49.862   8.529  19.219  0.00  0.00    +0.000 S 
ATOM     18  C   UNL     1      49.396   8.859  17.618  0.00  0.00    +0.000 A 
ATOM     19  C   UNL     1      49.071   7.725  16.882  0.00  0.00    +0.000 A 
ATOM     20  C   UNL     1      49.159   6.537  17.727  0.00  0.00    +0.000 A 
BRANCH  12  22
ATOM     21  C   UNL     1      47.899   3.355  16.423  0.00  0.00    +0.000 C 
ATOM     22  O   UNL     1      48.332   4.713  16.380  0.00  0.00    +0.000 OA
ENDBRANCH  12  22
ENDBRANCH   8  19
ENDBRANCH   7  10
ENDBRANCH   1   7
BRANCH   4  23
ATOM     23  O   UNL     1      43.608   5.435  11.973  0.00  0.00    +0.000 OA
BRANCH  23  24
ATOM     24  C   UNL     1      43.361   4.648  10.794  0.00  0.00    +0.000 C 
BRANCH  24  25
ATOM     25  C   UNL     1      44.187   3.344  10.759  0.00  0.00    +0.000 C 
BRANCH  25  26
ATOM     26  C   UNL     1      45.028   3.165   9.513  0.00  0.00    +0.000 A 
ATOM     27  C   UNL     1      45.409   4.257   8.717  0.00  0.00    +0.000 A 
ATOM     28  C   UNL     1      46.204   4.076   7.582  0.00  0.00    +0.000 A 
ATOM     29  C   UNL     1      46.623   2.796   7.222  0.00  0.00    +0.000 A 
ATOM     30  C   UNL     1      46.240   1.703   7.994  0.00  0.00    +0.000 A 
ATOM     31 CL   UNL     1      46.757   0.123   7.550  0.00  0.00    +0.000 Cl
ATOM     32  C   UNL     1      45.447   1.880   9.129  0.00  0.00    +0.000 A 
ENDBRANCH  25  26
BRANCH  25  33
ATOM     33  O   UNL     1      43.364   2.198  10.962  0.00  0.00    +0.000 OA
ATOM     34  H   UNL     1      42.532   2.513  11.357  0.00  0.00    +0.000 HD
ENDBRANCH  25  33
ENDBRANCH  24  25
ENDBRANCH  23  24
ENDBRANCH   4  23
TORSDOF 9
ENDMDL
MODEL 3
REMARK VINA RESULT:    -7.876      2.343      2.847
REMARK INTER + INTRA:         -12.860
REMARK INTER:                 -11.772
REMARK INTRA:                  -1.088
REMARK UNBOUND:                -1.070
REMARK  Name = 
REMARK  10 active torsions:
REMARK  status: ('A' for Active; 'I' for Inactive)
REMARK    1  A    between atoms: C_1  and  O_2
REMARK    2  A    between atoms: O_2  and  C_3
REMARK    3  A    between atoms: C_10  and  C_11
REMARK    4  A    between atoms: N_13  and  C_14
REMARK    5  A    between atoms: C_14  and  C_15
REMARK    6  A    between atoms: C_18  and  O_19
REMARK    7  A    between atoms: O_19  and  C_20
REMARK    8  A    between atoms: C_20  and  C_21
REMARK    9  A    between atoms: C_21  and  O_22
REMARK   10  A    between atoms: C_21  and  C_23
REMARK                            x       y       z     vdW  Elec       q    Type
REMARK                         _______ _______ _______ _____ _____    ______ ____
ROOT
ATOM      1  C   UNL     1      47.121   8.232  13.428  0.00  0.00    +0.000 A 
ATOM      2  C   UNL     1      45.911   8.745  12.949  0.00  0.00    +0.000 A 
ATOM      3  C   UNL     1      45.142   8.026  12.028  0.00  0.00    +0.000 A 
ATOM      4  C   UNL     1      45.553   6.770  11.584  0.00  0.00    +0.000 A 
ATOM      5  C   UNL     1      46.725   6.221  12.115  0.00  0.00    +0.000 A 
ATOM      6  C   UNL     1      47.500   6.942  13.034  0.00  0.00    +0.000 A 
ENDROOT
BRANCH   1   7
ATOM      7  C   UNL     1      48.002   9.081  14.312  0.00  0.00    +0.000 C 
BRANCH   7  10
ATOM      8  C   UNL     1      48.848   7.940  16.311  0.00  0.00    +0.000 C 
ATOM      9  O   UNL     1      49.816   7.514  15.685  0.00  0.00    +0.000 OA
ATOM     10  N   UNL     1      47.902   8.728  15.704  0.00  0.00    +0.000 N 
ATOM     11  H   UNL     1      47.155   9.137  16.246  0.00  0.00    +0.000 HD
BRANCH   8  19
ATOM     12  C   UNL     1      48.698   4.962  18.016  0.00  0.00    +0.000 A 
ATOM     13  N   UNL     1      48.720   3.966  18.923  0.00  0.00    +0.000 NA
ATOM     14  C   UNL     1      48.636   4.293  20.218  0.00  0.00    +0.000 A 
ATOM     15  N   UNL     1      48.518   5.516  20.730  0.00  0.00    +0.000 NA
ATOM     16  C   UNL     1      48.512   6.478  19.792  0.00  0.00    +0.000 A 
ATOM     17  S   UNL     1      48.338   8.101  20.256  0.00  0.00    +0.000 S 
ATOM     18  C   UNL     1      48.458   8.626  18.644  0.00  0.00    +0.000 A 
ATOM     19  C   UNL     1      48.647   7.596  17.730  0.00  0.00    +0.000 A 
ATOM     20  C   UNL     1      48.625   6.307  18.416  0.00  0.00    +0.000 A 
BRANCH  12  22
ATOM     21  C   UNL     1      47.425   4.404  16.113  0.00  0.00    +0.000 C 
ATOM     22  O   UNL     1      48.713   4.637  16.675  0.00  0.00    +0.000 OA
ENDBRANCH  12  22
ENDBRANCH   8  19
ENDBRANCH   7  10
ENDBRANCH   1   7
BRANCH   4  23
ATOM     23  O   UNL     1      44.913   6.013  10.632  0.00  0.00    +0.000 OA
BRANCH  23  24
ATOM     24  C   UNL     1      45.134   4.593  10.706  0.00  0.00    +0.000 C 
BRANCH  24  25
ATOM     25  C   UNL     1      44.500   3.825   9.527  0.00  0.00    +0.000 C 
BRANCH  25  26
ATOM     26  C   UNL     1      45.498   3.188   8.583  0.00  0.00    +0.000 A 
ATOM     27  C   UNL     1      46.310   3.960   7.737  0.00  0.00    +0.000 A 
ATOM     28  C   UNL     1      47.241   3.356   6.888  0.00  0.00    +0.000 A 
ATOM     29  C   UNL     1      47.369   1.968   6.867  0.00  0.00    +0.000 A 
ATOM     30  C   UNL     1      46.559   1.190   7.690  0.00  0.00    +0.000 A 
ATOM     31 CL   UNL     1      46.715  -0.523   7.666  0.00  0.00    +0.000 Cl
ATOM     32  C   UNL     1      45.628   1.789   8.541  0.00  0.00    +0.000 A 
ENDBRANCH  25  26
BRANCH  25  33
ATOM     33  O   UNL     1      43.591   4.645   8.796  0.00  0.00    +0.000 OA
ATOM     34  H   UNL     1      43.054   4.049   8.244  0.00  0.00    +0.000 HD
ENDBRANCH  25  33
ENDBRANCH  24  25
ENDBRANCH  23  24
ENDBRANCH   4  23
TORSDOF 9
ENDMDL
MODEL 4
REMARK VINA RESULT:    -7.633      2.192      2.822
REMARK INTER + INTRA:         -12.495
REMARK INTER:                 -11.215
REMARK INTRA:                  -1.280
REMARK UNBOUND:                -1.070
REMARK  Name = 
REMARK  10 active torsions:
REMARK  status: ('A' for Active; 'I' for Inactive)
REMARK    1  A    between atoms: C_1  and  O_2
REMARK    2  A    between atoms: O_2  and  C_3
REMARK    3  A    between atoms: C_10  and  C_11
REMARK    4  A    between atoms: N_13  and  C_14
REMARK    5  A    between atoms: C_14  and  C_15
REMARK    6  A    between atoms: C_18  and  O_19
REMARK    7  A    between atoms: O_19  and  C_20
REMARK    8  A    between atoms: C_20  and  C_21
REMARK    9  A    between atoms: C_21  and  O_22
REMARK   10  A    between atoms: C_21  and  C_23
REMARK                            x       y       z     vdW  Elec       q    Type
REMARK                         _______ _______ _______ _____ _____    ______ ____
ROOT
ATOM      1  C   UNL     1      47.644   6.257  13.531  0.00  0.00    +0.000 A 
ATOM      2  C   UNL     1      47.330   4.952  13.924  0.00  0.00    +0.000 A 
ATOM      3  C   UNL     1      46.173   4.320  13.457  0.00  0.00    +0.000 A 
ATOM      4  C   UNL     1      45.316   4.970  12.571  0.00  0.00    +0.000 A 
ATOM      5  C   UNL     1      45.661   6.248  12.119  0.00  0.00    +0.000 A 
ATOM      6  C   UNL     1      46.818   6.885  12.589  0.00  0.00    +0.000 A 
ENDROOT
BRANCH   1   7
ATOM      7  C   UNL     1      48.820   6.969  14.152  0.00  0.00    +0.000 C 
BRANCH   7  10
ATOM      8  C   UNL     1      50.372   6.694  16.031  0.00  0.00    +0.000 C 
ATOM      9  O   UNL     1      51.242   7.325  15.433  0.00  0.00    +0.000 OA
ATOM     10  N   UNL     1      49.141   6.476  15.466  0.00  0.00    +0.000 N 
ATOM     11  H   UNL     1      48.409   6.027  15.997  0.00  0.00    +0.000 HD
BRANCH   8  19
ATOM     12  C   UNL     1      48.665   6.800  19.009  0.00  0.00    +0.000 A 
ATOM     13  N   UNL     1      48.149   6.584  20.235  0.00  0.00    +0.000 NA
ATOM     14  C   UNL     1      48.815   5.771  21.064  0.00  0.00    +0.000 A 
ATOM     15  N   UNL     1      49.964   5.144  20.820  0.00  0.00    +0.000 NA
ATOM     16  C   UNL     1      50.436   5.378  19.585  0.00  0.00    +0.000 A 
ATOM     17  S   UNL     1      51.909   4.686  19.105  0.00  0.00    +0.000 S 
ATOM     18  C   UNL     1      51.784   5.373  17.555  0.00  0.00    +0.000 A 
ATOM     19  C   UNL     1      50.628   6.121  17.364  0.00  0.00    +0.000 A 
ATOM     20  C   UNL     1      49.850   6.165  18.599  0.00  0.00    +0.000 A 
BRANCH  12  22
ATOM     21  C   UNL     1      48.436   9.045  18.331  0.00  0.00    +0.000 C 
ATOM     22  O   UNL     1      48.028   7.689  18.170  0.00  0.00    +0.000 OA
ENDBRANCH  12  22
ENDBRANCH   8  19
ENDBRANCH   7  10
ENDBRANCH   1   7
BRANCH   4  23
ATOM     23  O   UNL     1      44.122   4.471  12.108  0.00  0.00    +0.000 OA
BRANCH  23  24
ATOM     24  C   UNL     1      44.212   3.313  11.259  0.00  0.00    +0.000 C 
BRANCH  24  25
ATOM     25  C   UNL     1      43.955   3.637   9.772  0.00  0.00    +0.000 C 
BRANCH  25  26
ATOM     26  C   UNL     1      45.073   3.225   8.837  0.00  0.00    +0.000 A 
ATOM     27  C   UNL     1      45.814   4.172   8.112  0.00  0.00    +0.000 A 
ATOM     28  C   UNL     1      46.856   3.775   7.271  0.00  0.00    +0.000 A 
ATOM     29  C   UNL     1      47.168   2.424   7.136  0.00  0.00    +0.000 A 
ATOM     30  C   UNL     1      46.431   1.474   7.838  0.00  0.00    +0.000 A 
ATOM     31 CL   UNL     1      46.815  -0.195   7.672  0.00  0.00    +0.000 Cl
ATOM     32  C   UNL     1      45.390   1.865   8.680  0.00  0.00    +0.000 A 
ENDBRANCH  25  26
BRANCH  25  33
ATOM     33  O   UNL     1      43.643   5.015   9.583  0.00  0.00    +0.000 OA
ATOM     34  H   UNL     1      44.248   5.351   8.897  0.00  0.00    +0.000 HD
ENDBRANCH  25  33
ENDBRANCH  24  25
ENDBRANCH  23  24
ENDBRANCH   4  23
TORSDOF 9
ENDMDL
MODEL 5
REMARK VINA RESULT:    -7.416      2.140      2.846
REMARK INTER + INTRA:         -12.171
REMARK INTER:                 -11.037
REMARK INTRA:                  -1.134
REMARK UNBOUND:                -1.070
REMARK  Name = 
REMARK  10 active torsions:
REMARK  status: ('A' for Active; 'I' for Inactive)
REMARK    1  A    between atoms: C_1  and  O_2
REMARK    2  A    between atoms: O_2  and  C_3
REMARK    3  A    between atoms: C_10  and  C_11
REMARK    4  A    between atoms: N_13  and  C_14
REMARK    5  A    between atoms: C_14  and  C_15
REMARK    6  A    between atoms: C_18  and  O_19
REMARK    7  A    between atoms: O_19  and  C_20
REMARK    8  A    between atoms: C_20  and  C_21
REMARK    9  A    between atoms: C_21  and  O_22
REMARK   10  A    between atoms: C_21  and  C_23
REMARK                            x       y       z     vdW  Elec       q    Type
REMARK                         _______ _______ _______ _____ _____    ______ ____
ROOT
ATOM      1  C   UNL     1      47.015   7.646  13.303  0.00  0.00    +0.000 A 
ATOM      2  C   UNL     1      47.279   6.286  13.497  0.00  0.00    +0.000 A 
ATOM      3  C   UNL     1      46.364   5.312  13.087  0.00  0.00    +0.000 A 
ATOM      4  C   UNL     1      45.175   5.673  12.455  0.00  0.00    +0.000 A 
ATOM      5  C   UNL     1      44.938   7.027  12.193  0.00  0.00    +0.000 A 
ATOM      6  C   UNL     1      45.853   8.006  12.607  0.00  0.00    +0.000 A 
ENDROOT
BRANCH   1   7
ATOM      7  C   UNL     1      47.949   8.685  13.874  0.00  0.00    +0.000 C 
BRANCH   7  10
ATOM      8  C   UNL     1      50.355   8.772  14.341  0.00  0.00    +0.000 C 
ATOM      9  O   UNL     1      50.440   9.877  13.809  0.00  0.00    +0.000 OA
ATOM     10  N   UNL     1      49.154   8.113  14.418  0.00  0.00    +0.000 N 
ATOM     11  H   UNL     1      49.081   7.244  14.926  0.00  0.00    +0.000 HD
BRANCH   8  19
ATOM     12  C   UNL     1      50.798   6.363  16.748  0.00  0.00    +0.000 A 
ATOM     13  N   UNL     1      51.233   5.364  17.543  0.00  0.00    +0.000 NA
ATOM     14  C   UNL     1      52.536   5.064  17.519  0.00  0.00    +0.000 A 
ATOM     15  N   UNL     1      53.484   5.658  16.795  0.00  0.00    +0.000 NA
ATOM     16  C   UNL     1      53.005   6.637  16.011  0.00  0.00    +0.000 A 
ATOM     17  S   UNL     1      54.072   7.529  15.038  0.00  0.00    +0.000 S 
ATOM     18  C   UNL     1      52.796   8.450  14.396  0.00  0.00    +0.000 A 
ATOM     19  C   UNL     1      51.545   8.096  14.888  0.00  0.00    +0.000 A 
ATOM     20  C   UNL     1      51.681   7.047  15.894  0.00  0.00    +0.000 A 
BRANCH  12  22
ATOM     21  C   UNL     1      48.567   5.641  16.976  0.00  0.00    +0.000 C 
ATOM     22  O   UNL     1      49.471   6.730  16.813  0.00  0.00    +0.000 OA
ENDBRANCH  12  22
ENDBRANCH   8  19
ENDBRANCH   7  10
ENDBRANCH   1   7
BRANCH   4  23
ATOM     23  O   UNL     1      44.178   4.806  12.078  0.00  0.00    +0.000 OA
BRANCH  23  24
ATOM     24  C   UNL     1      44.606   3.625  11.376  0.00  0.00    +0.000 C 
BRANCH  24  25
ATOM     25  C   UNL     1      44.099   3.575   9.919  0.00  0.00    +0.000 C 
BRANCH  25  26
ATOM     26  C   UNL     1      45.145   3.165   8.903  0.00  0.00    +0.000 A 
ATOM     27  C   UNL     1      45.820   4.112   8.116  0.00  0.00    +0.000 A 
ATOM     28  C   UNL     1      46.798   3.718   7.200  0.00  0.00    +0.000 A 
ATOM     29  C   UNL     1      47.111   2.368   7.051  0.00  0.00    +0.000 A 
ATOM     30  C   UNL     1      46.439   1.418   7.815  0.00  0.00    +0.000 A 
ATOM     31 CL   UNL     1      46.824  -0.250   7.633  0.00  0.00    +0.000 Cl
ATOM     32  C   UNL     1      45.462   1.807   8.733  0.00  0.00    +0.000 A 
ENDBRANCH  25  26
BRANCH  25  33
ATOM     33  O   UNL     1      43.500   4.809   9.532  0.00  0.00    +0.000 OA
ATOM     34  H   UNL     1      42.678   4.588   9.058  0.00  0.00    +0.000 HD
ENDBRANCH  25  33
ENDBRANCH  24  25
ENDBRANCH  23  24
ENDBRANCH   4  23
TORSDOF 9
ENDMDL
MODEL 6
REMARK VINA RESULT:    -7.336      1.457      2.086
REMARK INTER + INTRA:         -12.051
REMARK INTER:                 -10.816
REMARK INTRA:                  -1.235
REMARK UNBOUND:                -1.070
REMARK  Name = 
REMARK  10 active torsions:
REMARK  status: ('A' for Active; 'I' for Inactive)
REMARK    1  A    between atoms: C_1  and  O_2
REMARK    2  A    between atoms: O_2  and  C_3
REMARK    3  A    between atoms: C_10  and  C_11
REMARK    4  A    between atoms: N_13  and  C_14
REMARK    5  A    between atoms: C_14  and  C_15
REMARK    6  A    between atoms: C_18  and  O_19
REMARK    7  A    between atoms: O_19  and  C_20
REMARK    8  A    between atoms: C_20  and  C_21
REMARK    9  A    between atoms: C_21  and  O_22
REMARK   10  A    between atoms: C_21  and  C_23
REMARK                            x       y       z     vdW  Elec       q    Type
REMARK                         _______ _______ _______ _____ _____    ______ ____
ROOT
ATOM      1  C   UNL     1      48.638   6.354  15.252  0.00  0.00    +0.000 A 
ATOM      2  C   UNL     1      48.392   6.905  13.990  0.00  0.00    +0.000 A 
ATOM      3  C   UNL     1      47.455   6.331  13.126  0.00  0.00    +0.000 A 
ATOM      4  C   UNL     1      46.727   5.207  13.511  0.00  0.00    +0.000 A 
ATOM      5  C   UNL     1      46.915   4.694  14.800  0.00  0.00    +0.000 A 
ATOM      6  C   UNL     1      47.858   5.265  15.666  0.00  0.00    +0.000 A 
ENDROOT
BRANCH   1   7
ATOM      7  C   UNL     1      49.749   6.904  16.112  0.00  0.00    +0.000 C 
BRANCH   7  10
ATOM      8  C   UNL     1      50.947   5.830  17.962  0.00  0.00    +0.000 C 
ATOM      9  O   UNL     1      50.513   6.662  18.756  0.00  0.00    +0.000 OA
ATOM     10  N   UNL     1      50.613   5.877  16.632  0.00  0.00    +0.000 N 
ATOM     11  H   UNL     1      50.911   5.144  16.006  0.00  0.00    +0.000 HD
BRANCH   8  19
ATOM     12  C   UNL     1      51.083   2.445  17.396  0.00  0.00    +0.000 A 
ATOM     13  N   UNL     1      51.432   1.153  17.240  0.00  0.00    +0.000 NA
ATOM     14  C   UNL     1      52.570   0.736  17.807  0.00  0.00    +0.000 A 
ATOM     15  N   UNL     1      53.415   1.461  18.538  0.00  0.00    +0.000 NA
ATOM     16  C   UNL     1      53.034   2.743  18.658  0.00  0.00    +0.000 A 
ATOM     17  S   UNL     1      53.973   3.813  19.582  0.00  0.00    +0.000 S 
ATOM     18  C   UNL     1      52.931   5.109  19.231  0.00  0.00    +0.000 A 
ATOM     19  C   UNL     1      51.869   4.767  18.402  0.00  0.00    +0.000 A 
ATOM     20  C   UNL     1      51.905   3.338  18.105  0.00  0.00    +0.000 A 
BRANCH  12  22
ATOM     21  C   UNL     1      48.767   2.697  17.752  0.00  0.00    +0.000 C 
ATOM     22  O   UNL     1      49.879   2.873  16.878  0.00  0.00    +0.000 OA
ENDBRANCH  12  22
ENDBRANCH   8  19
ENDBRANCH   7  10
ENDBRANCH   1   7
BRANCH   4  23
ATOM     23  O   UNL     1      45.837   4.524  12.718  0.00  0.00    +0.000 OA
BRANCH  23  24
ATOM     24  C   UNL     1      44.554   5.149  12.531  0.00  0.00    +0.000 C 
BRANCH  24  25
ATOM     25  C   UNL     1      44.241   5.444  11.048  0.00  0.00    +0.000 C 
BRANCH  25  26
ATOM     26  C   UNL     1      44.629   4.336  10.091  0.00  0.00    +0.000 A 
ATOM     27  C   UNL     1      44.178   3.019  10.267  0.00  0.00    +0.000 A 
ATOM     28  C   UNL     1      44.527   2.013   9.362  0.00  0.00    +0.000 A 
ATOM     29  C   UNL     1      45.340   2.310   8.269  0.00  0.00    +0.000 A 
ATOM     30  C   UNL     1      45.806   3.610   8.092  0.00  0.00    +0.000 A 
ATOM     31 CL   UNL     1      46.810   3.979   6.744  0.00  0.00    +0.000 Cl
ATOM     32  C   UNL     1      45.459   4.618   8.993  0.00  0.00    +0.000 A 
ENDBRANCH  25  26
BRANCH  25  33
ATOM     33  O   UNL     1      44.819   6.677  10.627  0.00  0.00    +0.000 OA
ATOM     34  H   UNL     1      44.826   7.267  11.402  0.00  0.00    +0.000 HD
ENDBRANCH  25  33
ENDBRANCH  24  25
ENDBRANCH  23  24
ENDBRANCH   4  23
TORSDOF 9
ENDMDL
MODEL 7
REMARK VINA RESULT:    -7.073      4.347      8.506
REMARK INTER + INTRA:         -11.657
REMARK INTER:                 -10.037
REMARK INTRA:                  -1.620
REMARK UNBOUND:                -1.070
REMARK  Name = 
REMARK  10 active torsions:
REMARK  status: ('A' for Active; 'I' for Inactive)
REMARK    1  A    between atoms: C_1  and  O_2
REMARK    2  A    between atoms: O_2  and  C_3
REMARK    3  A    between atoms: C_10  and  C_11
REMARK    4  A    between atoms: N_13  and  C_14
REMARK    5  A    between atoms: C_14  and  C_15
REMARK    6  A    between atoms: C_18  and  O_19
REMARK    7  A    between atoms: O_19  and  C_20
REMARK    8  A    between atoms: C_20  and  C_21
REMARK    9  A    between atoms: C_21  and  O_22
REMARK   10  A    between atoms: C_21  and  C_23
REMARK                            x       y       z     vdW  Elec       q    Type
REMARK                         _______ _______ _______ _____ _____    ______ ____
ROOT
ATOM      1  C   UNL     1      48.937   7.871  13.170  0.00  0.00    +0.000 A 
ATOM      2  C   UNL     1      50.315   7.970  13.391  0.00  0.00    +0.000 A 
ATOM      3  C   UNL     1      50.846   7.853  14.679  0.00  0.00    +0.000 A 
ATOM      4  C   UNL     1      50.015   7.613  15.772  0.00  0.00    +0.000 A 
ATOM      5  C   UNL     1      48.644   7.441  15.549  0.00  0.00    +0.000 A 
ATOM      6  C   UNL     1      48.110   7.562  14.259  0.00  0.00    +0.000 A 
ENDROOT
BRANCH   1   7
ATOM      7  C   UNL     1      48.372   8.137  11.797  0.00  0.00    +0.000 C 
BRANCH   7  10
ATOM      8  C   UNL     1      46.314   6.918  11.256  0.00  0.00    +0.000 C 
ATOM      9  O   UNL     1      45.628   7.821  11.732  0.00  0.00    +0.000 OA
ATOM     10  N   UNL     1      47.683   6.999  11.246  0.00  0.00    +0.000 N 
ATOM     11  H   UNL     1      48.232   6.290  10.782  0.00  0.00    +0.000 HD
BRANCH   8  19
ATOM     12  C   UNL     1      44.595   4.303  12.673  0.00  0.00    +0.000 A 
ATOM     13  N   UNL     1      43.805   3.247  12.948  0.00  0.00    +0.000 NA
ATOM     14  C   UNL     1      43.382   2.495  11.926  0.00  0.00    +0.000 A 
ATOM     15  N   UNL     1      43.668   2.661  10.636  0.00  0.00    +0.000 NA
ATOM     16  C   UNL     1      44.447   3.730  10.406  0.00  0.00    +0.000 A 
ATOM     17  S   UNL     1      44.940   4.084   8.821  0.00  0.00    +0.000 S 
ATOM     18  C   UNL     1      45.780   5.468   9.338  0.00  0.00    +0.000 A 
ATOM     19  C   UNL     1      45.693   5.700  10.707  0.00  0.00    +0.000 A 
ATOM     20  C   UNL     1      44.939   4.627  11.349  0.00  0.00    +0.000 A 
BRANCH  12  22
ATOM     21  C   UNL     1      46.384   4.637  14.170  0.00  0.00    +0.000 C 
ATOM     22  O   UNL     1      45.095   5.047  13.721  0.00  0.00    +0.000 OA
ENDBRANCH  12  22
ENDBRANCH   8  19
ENDBRANCH   7  10
ENDBRANCH   1   7
BRANCH   4  23
ATOM     23  O   UNL     1      50.422   7.552  17.083  0.00  0.00    +0.000 OA
BRANCH  23  24
ATOM     24  C   UNL     1      49.378   7.641  18.069  0.00  0.00    +0.000 C 
BRANCH  24  25
ATOM     25  C   UNL     1      49.352   6.431  19.027  0.00  0.00    +0.000 C 
BRANCH  25  26
ATOM     26  C   UNL     1      48.949   5.124  18.377  0.00  0.00    +0.000 A 
ATOM     27  C   UNL     1      47.610   4.835  18.071  0.00  0.00    +0.000 A 
ATOM     28  C   UNL     1      47.258   3.633  17.452  0.00  0.00    +0.000 A 
ATOM     29  C   UNL     1      48.241   2.698  17.135  0.00  0.00    +0.000 A 
ATOM     30  C   UNL     1      49.571   2.966  17.446  0.00  0.00    +0.000 A 
ATOM     31 CL   UNL     1      50.787   1.812  17.056  0.00  0.00    +0.000 Cl
ATOM     32  C   UNL     1      49.927   4.165  18.064  0.00  0.00    +0.000 A 
ENDBRANCH  25  26
BRANCH  25  33
ATOM     33  O   UNL     1      48.534   6.682  20.167  0.00  0.00    +0.000 OA
ATOM     34  H   UNL     1      48.094   5.842  20.390  0.00  0.00    +0.000 HD
ENDBRANCH  25  33
ENDBRANCH  24  25
ENDBRANCH  23  24
ENDBRANCH   4  23
TORSDOF 9
ENDMDL
MODEL 8
REMARK VINA RESULT:    -6.879      3.172      4.325
REMARK INTER + INTRA:         -11.367
REMARK INTER:                 -10.170
REMARK INTRA:                  -1.197
REMARK UNBOUND:                -1.070
REMARK  Name = 
REMARK  10 active torsions:
REMARK  status: ('A' for Active; 'I' for Inactive)
REMARK    1  A    between atoms: C_1  and  O_2
REMARK    2  A    between atoms: O_2  and  C_3
REMARK    3  A    between atoms: C_10  and  C_11
REMARK    4  A    between atoms: N_13  and  C_14
REMARK    5  A    between atoms: C_14  and  C_15
REMARK    6  A    between atoms: C_18  and  O_19
REMARK    7  A    between atoms: O_19  and  C_20
REMARK    8  A    between atoms: C_20  and  C_21
REMARK    9  A    between atoms: C_21  and  O_22
REMARK   10  A    between atoms: C_21  and  C_23
REMARK                            x       y       z     vdW  Elec       q    Type
REMARK                         _______ _______ _______ _____ _____    ______ ____
ROOT
ATOM      1  C   UNL     1      47.812   7.907  13.267  0.00  0.00    +0.000 A 
ATOM      2  C   UNL     1      48.063   6.598  12.842  0.00  0.00    +0.000 A 
ATOM      3  C   UNL     1      47.091   5.872  12.147  0.00  0.00    +0.000 A 
ATOM      4  C   UNL     1      45.857   6.444  11.842  0.00  0.00    +0.000 A 
ATOM      5  C   UNL     1      45.628   7.777  12.201  0.00  0.00    +0.000 A 
ATOM      6  C   UNL     1      46.599   8.505  12.902  0.00  0.00    +0.000 A 
ENDROOT
BRANCH   1   7
ATOM      7  C   UNL     1      48.819   8.624  14.134  0.00  0.00    +0.000 C 
BRANCH   7  10
ATOM      8  C   UNL     1      49.182   7.554  16.310  0.00  0.00    +0.000 C 
ATOM      9  O   UNL     1      50.022   6.800  15.824  0.00  0.00    +0.000 OA
ATOM     10  N   UNL     1      48.540   8.490  15.540  0.00  0.00    +0.000 N 
ATOM     11  H   UNL     1      47.912   9.156  15.965  0.00  0.00    +0.000 HD
BRANCH   8  19
ATOM     12  C   UNL     1      49.329   9.763  18.936  0.00  0.00    +0.000 A 
ATOM     13  N   UNL     1      49.165  10.454  20.081  0.00  0.00    +0.000 NA
ATOM     14  C   UNL     1      48.569   9.837  21.108  0.00  0.00    +0.000 A 
ATOM     15  N   UNL     1      48.118   8.584  21.138  0.00  0.00    +0.000 NA
ATOM     16  C   UNL     1      48.290   7.938  19.974  0.00  0.00    +0.000 A 
ATOM     17  S   UNL     1      47.803   6.318  19.834  0.00  0.00    +0.000 S 
ATOM     18  C   UNL     1      48.286   6.262  18.206  0.00  0.00    +0.000 A 
ATOM     19  C   UNL     1      48.807   7.460  17.732  0.00  0.00    +0.000 A 
ATOM     20  C   UNL     1      48.857   8.445  18.809  0.00  0.00    +0.000 A 
BRANCH  12  22
ATOM     21  C   UNL     1      51.414  10.158  17.911  0.00  0.00    +0.000 C 
ATOM     22  O   UNL     1      50.003  10.361  17.892  0.00  0.00    +0.000 OA
ENDBRANCH  12  22
ENDBRANCH   8  19
ENDBRANCH   7  10
ENDBRANCH   1   7
BRANCH   4  23
ATOM     23  O   UNL     1      44.810   5.798  11.229  0.00  0.00    +0.000 OA
BRANCH  23  24
ATOM     24  C   UNL     1      44.926   4.367  11.129  0.00  0.00    +0.000 C 
BRANCH  24  25
ATOM     25  C   UNL     1      44.284   3.801   9.845  0.00  0.00    +0.000 C 
BRANCH  25  26
ATOM     26  C   UNL     1      45.274   3.278   8.825  0.00  0.00    +0.000 A 
ATOM     27  C   UNL     1      45.974   4.141   7.967  0.00  0.00    +0.000 A 
ATOM     28  C   UNL     1      46.901   3.643   7.048  0.00  0.00    +0.000 A 
ATOM     29  C   UNL     1      47.134   2.271   6.967  0.00  0.00    +0.000 A 
ATOM     30  C   UNL     1      46.435   1.404   7.801  0.00  0.00    +0.000 A 
ATOM     31 CL   UNL     1      46.722  -0.290   7.702  0.00  0.00    +0.000 Cl
ATOM     32  C   UNL     1      45.510   1.897   8.722  0.00  0.00    +0.000 A 
ENDBRANCH  25  26
BRANCH  25  33
ATOM     33  O   UNL     1      43.409   4.748   9.235  0.00  0.00    +0.000 OA
ATOM     34  H   UNL     1      42.748   4.240   8.732  0.00  0.00    +0.000 HD
ENDBRANCH  25  33
ENDBRANCH  24  25
ENDBRANCH  23  24
ENDBRANCH   4  23
TORSDOF 9
ENDMDL
MODEL 9
REMARK VINA RESULT:    -6.867      4.543      9.945
REMARK INTER + INTRA:         -11.349
REMARK INTER:                 -10.432
REMARK INTRA:                  -0.917
REMARK UNBOUND:                -1.070
REMARK  Name = 
REMARK  10 active torsions:
REMARK  status: ('A' for Active; 'I' for Inactive)
REMARK    1  A    between atoms: C_1  and  O_2
REMARK    2  A    between atoms: O_2  and  C_3
REMARK    3  A    between atoms: C_10  and  C_11
REMARK    4  A    between atoms: N_13  and  C_14
REMARK    5  A    between atoms: C_14  and  C_15
REMARK    6  A    between atoms: C_18  and  O_19
REMARK    7  A    between atoms: O_19  and  C_20
REMARK    8  A    between atoms: C_20  and  C_21
REMARK    9  A    between atoms: C_21  and  O_22
REMARK   10  A    between atoms: C_21  and  C_23
REMARK                            x       y       z     vdW  Elec       q    Type
REMARK                         _______ _______ _______ _____ _____    ______ ____
ROOT
ATOM      1  C   UNL     1      48.928   3.401  17.205  0.00  0.00    +0.000 A 
ATOM      2  C   UNL     1      49.755   4.457  17.604  0.00  0.00    +0.000 A 
ATOM      3  C   UNL     1      51.105   4.240  17.897  0.00  0.00    +0.000 A 
ATOM      4  C   UNL     1      51.664   2.969  17.777  0.00  0.00    +0.000 A 
ATOM      5  C   UNL     1      50.861   1.924  17.309  0.00  0.00    +0.000 A 
ATOM      6  C   UNL     1      49.506   2.138  17.019  0.00  0.00    +0.000 A 
ENDROOT
BRANCH   1   7
ATOM      7  C   UNL     1      47.447   3.629  17.027  0.00  0.00    +0.000 C 
BRANCH   7  10
ATOM      8  C   UNL     1      47.125   4.273  14.683  0.00  0.00    +0.000 C 
ATOM      9  O   UNL     1      47.351   3.123  14.313  0.00  0.00    +0.000 OA
ATOM     10  N   UNL     1      47.150   4.607  16.014  0.00  0.00    +0.000 N 
ATOM     11  H   UNL     1      46.886   5.535  16.311  0.00  0.00    +0.000 HD
BRANCH   8  19
ATOM     12  C   UNL     1      44.420   5.024  12.704  0.00  0.00    +0.000 A 
ATOM     13  N   UNL     1      43.476   5.600  11.935  0.00  0.00    +0.000 NA
ATOM     14  C   UNL     1      43.768   6.767  11.349  0.00  0.00    +0.000 A 
ATOM     15  N   UNL     1      44.916   7.438  11.426  0.00  0.00    +0.000 NA
ATOM     16  C   UNL     1      45.823   6.835  12.211  0.00  0.00    +0.000 A 
ATOM     17  S   UNL     1      47.359   7.529  12.405  0.00  0.00    +0.000 S 
ATOM     18  C   UNL     1      47.838   6.294  13.470  0.00  0.00    +0.000 A 
ATOM     19  C   UNL     1      46.850   5.346  13.711  0.00  0.00    +0.000 A 
ATOM     20  C   UNL     1      45.664   5.644  12.914  0.00  0.00    +0.000 A 
BRANCH  12  22
ATOM     21  C   UNL     1      43.580   2.850  12.355  0.00  0.00    +0.000 C 
ATOM     22  O   UNL     1      44.159   3.788  13.258  0.00  0.00    +0.000 OA
ENDBRANCH  12  22
ENDBRANCH   8  19
ENDBRANCH   7  10
ENDBRANCH   1   7
BRANCH   4  23
ATOM     23  O   UNL     1      52.955   2.633  18.106  0.00  0.00    +0.000 OA
BRANCH  23  24
ATOM     24  C   UNL     1      53.501   1.492  17.420  0.00  0.00    +0.000 C 
BRANCH  24  25
ATOM     25  C   UNL     1      54.536   0.721  18.267  0.00  0.00    +0.000 C 
BRANCH  25  26
ATOM     26  C   UNL     1      54.591  -0.767  17.992  0.00  0.00    +0.000 A 
ATOM     27  C   UNL     1      55.032  -1.274  16.759  0.00  0.00    +0.000 A 
ATOM     28  C   UNL     1      55.096  -2.650  16.530  0.00  0.00    +0.000 A 
ATOM     29  C   UNL     1      54.713  -3.542  17.530  0.00  0.00    +0.000 A 
ATOM     30  C   UNL     1      54.260  -3.053  18.752  0.00  0.00    +0.000 A 
ATOM     31 CL   UNL     1      53.787  -4.153  19.988  0.00  0.00    +0.000 Cl
ATOM     32  C   UNL     1      54.195  -1.678  18.986  0.00  0.00    +0.000 A 
ENDBRANCH  25  26
BRANCH  25  33
ATOM     33  O   UNL     1      54.349   0.953  19.661  0.00  0.00    +0.000 OA
ATOM     34  H   UNL     1      54.619   0.139  20.123  0.00  0.00    +0.000 HD
ENDBRANCH  25  33
ENDBRANCH  24  25
ENDBRANCH  23  24
ENDBRANCH   4  23
TORSDOF 9
ENDMDL
