MODEL 1
REMARK VINA RESULT:    -8.123      0.000      0.000
REMARK INTER + INTRA:         -11.475
REMARK INTER:                 -10.497
REMARK INTRA:                  -0.977
REMARK UNBOUND:                -0.977
REMARK  Name = 
REMARK  7 active torsions:
REMARK  status: ('A' for Active; 'I' for Inactive)
REMARK    1  A    between atoms: C_1  and  C_2
REMARK    2  A    between atoms: C_2  and  C_3
REMARK    3  A    between atoms: C_2  and  C_4
REMARK    4  A    between atoms: C_2  and  C_19
REMARK    5  A    between atoms: C_4  and  N_5
REMARK    6  A    between atoms: N_5  and  C_6
REMARK    7  A    between atoms: C_10  and  C_11
REMARK                            x       y       z     vdW  Elec       q    Type
REMARK                         _______ _______ _______ _____ _____    ______ ____
ROOT
ATOM      1  N   UNL     1      45.441   7.143  11.203  0.00  0.00    +0.000 N 
ATOM      2  H   UNL     1      46.149   7.562  10.603  0.00  0.00    +0.000 HD
ENDROOT
BRANCH   1   3
ATOM      3  C   UNL     1      44.969   5.923  10.735  0.00  0.00    +0.000 A 
ATOM      4  C   UNL     1      43.876   5.312  11.355  0.00  0.00    +0.000 A 
ATOM      5  N   UNL     1      43.396   4.084  11.069  0.00  0.00    +0.000 NA
ATOM      6  C   UNL     1      44.067   3.391  10.119  0.00  0.00    +0.000 A 
ATOM      7  C   UNL     1      45.177   3.862   9.411  0.00  0.00    +0.000 A 
ATOM      8  C   UNL     1      45.609   5.161   9.754  0.00  0.00    +0.000 A 
BRANCH   7   9
ATOM      9  C   UNL     1      45.874   3.045   8.393  0.00  0.00    +0.000 A 
ATOM     10  C   UNL     1      46.454   3.624   7.247  0.00  0.00    +0.000 A 
ATOM     11  C   UNL     1      47.104   2.848   6.276  0.00  0.00    +0.000 A 
ATOM     12  C   UNL     1      47.197   1.470   6.438  0.00  0.00    +0.000 A 
ATOM     13  C   UNL     1      46.638   0.883   7.562  0.00  0.00    +0.000 A 
ATOM     14  F   UNL     1      46.729  -0.443   7.729  0.00  0.00    +0.000 F 
ATOM     15  C   UNL     1      45.979   1.648   8.523  0.00  0.00    +0.000 A 
ENDBRANCH   7   9
ENDBRANCH   1   3
BRANCH   1  16
ATOM     16  C   UNL     1      45.594   7.440  12.625  0.00  0.00    +0.000 C 
BRANCH  16  18
ATOM     17  C   UNL     1      47.975   7.310  11.782  0.00  0.00    +0.000 C 
ATOM     18  C   UNL     1      47.097   7.412  13.056  0.00  0.00    +0.000 C 
ATOM     19  C   UNL     1      47.443   8.769  13.716  0.00  0.00    +0.000 C 
BRANCH  18  20
ATOM     20  C   UNL     1      47.348   6.272  14.069  0.00  0.00    +0.000 A 
ATOM     21  C   UNL     1      46.734   5.011  13.950  0.00  0.00    +0.000 A 
ATOM     22  C   UNL     1      46.965   3.997  14.883  0.00  0.00    +0.000 A 
ATOM     23  C   UNL     1      47.811   4.223  15.960  0.00  0.00    +0.000 A 
ATOM     24 CL   UNL     1      48.095   2.972  17.105  0.00  0.00    +0.000 Cl
ATOM     25  C   UNL     1      48.428   5.459  16.113  0.00  0.00    +0.000 A 
ATOM     26  C   UNL     1      48.202   6.472  15.175  0.00  0.00    +0.000 A 
ENDBRANCH  18  20
ENDBRANCH  16  18
ENDBRANCH   1  16
TORSDOF 5
ENDMDL
MODEL 2
REMARK VINA RESULT:    -7.869      2.516      3.547
REMARK INTER + INTRA:         -11.147
REMARK INTER:                 -10.370
REMARK INTRA:                  -0.777
REMARK UNBOUND:                -0.977
REMARK  Name = 
REMARK  7 active torsions:
REMARK  status: ('A' for Active; 'I' for Inactive)
REMARK    1  A    between atoms: C_1  and  C_2
REMARK    2  A    between atoms: C_2  and  C_3
REMARK    3  A    between atoms: C_2  and  C_4
REMARK    4  A    between atoms: C_2  and  C_19
REMARK    5  A    between atoms: C_4  and  N_5
REMARK    6  A    between atoms: N_5  and  C_6
REMARK    7  A    between atoms: C_10  and  C_11
REMARK                            x       y       z     vdW  Elec       q    Type
REMARK                         _______ _______ _______ _____ _____    ______ ____
ROOT
ATOM      1  N   UNL     1      44.613   6.691  11.490  0.00  0.00    +0.000 N 
ATOM      2  H   UNL     1      43.771   7.249  11.625  0.00  0.00    +0.000 HD
ENDROOT
BRANCH   1   3
ATOM      3  C   UNL     1      44.362   5.421  10.989  0.00  0.00    +0.000 A 
ATOM      4  C   UNL     1      43.426   4.594  11.615  0.00  0.00    +0.000 A 
ATOM      5  N   UNL     1      43.175   3.308  11.295  0.00  0.00    +0.000 NA
ATOM      6  C   UNL     1      43.930   2.786  10.300  0.00  0.00    +0.000 A 
ATOM      7  C   UNL     1      44.907   3.481   9.581  0.00  0.00    +0.000 A 
ATOM      8  C   UNL     1      45.100   4.826   9.961  0.00  0.00    +0.000 A 
BRANCH   7   9
ATOM      9  C   UNL     1      45.709   2.843   8.512  0.00  0.00    +0.000 A 
ATOM     10  C   UNL     1      46.243   3.588   7.442  0.00  0.00    +0.000 A 
ATOM     11  C   UNL     1      46.993   2.982   6.424  0.00  0.00    +0.000 A 
ATOM     12  C   UNL     1      47.236   1.613   6.461  0.00  0.00    +0.000 A 
ATOM     13  C   UNL     1      46.724   0.865   7.510  0.00  0.00    +0.000 A 
ATOM     14  F   UNL     1      46.958  -0.453   7.557  0.00  0.00    +0.000 F 
ATOM     15  C   UNL     1      45.966   1.460   8.517  0.00  0.00    +0.000 A 
ENDBRANCH   7   9
ENDBRANCH   1   3
BRANCH   1  16
ATOM     16  C   UNL     1      45.803   7.462  11.136  0.00  0.00    +0.000 C 
BRANCH  16  18
ATOM     17  C   UNL     1      45.869   8.807  13.278  0.00  0.00    +0.000 C 
ATOM     18  C   UNL     1      46.659   7.803  12.400  0.00  0.00    +0.000 C 
ATOM     19  C   UNL     1      46.817   6.517  13.246  0.00  0.00    +0.000 C 
BRANCH  18  20
ATOM     20  C   UNL     1      48.056   8.317  11.983  0.00  0.00    +0.000 A 
ATOM     21  C   UNL     1      49.157   7.456  11.819  0.00  0.00    +0.000 A 
ATOM     22  C   UNL     1      50.415   7.942  11.454  0.00  0.00    +0.000 A 
ATOM     23  C   UNL     1      50.602   9.303  11.249  0.00  0.00    +0.000 A 
ATOM     24 CL   UNL     1      52.150   9.898  10.797  0.00  0.00    +0.000 Cl
ATOM     25  C   UNL     1      49.537  10.183  11.410  0.00  0.00    +0.000 A 
ATOM     26  C   UNL     1      48.277   9.695  11.770  0.00  0.00    +0.000 A 
ENDBRANCH  18  20
ENDBRANCH  16  18
ENDBRANCH   1  16
TORSDOF 5
ENDMDL
MODEL 3
REMARK VINA RESULT:    -7.495      3.980      7.510
REMARK INTER + INTRA:         -10.663
REMARK INTER:                  -9.905
REMARK INTRA:                  -0.757
REMARK UNBOUND:                -0.977
REMARK  Name = 
REMARK  7 active torsions:
REMARK  status: ('A' for Active; 'I' for Inactive)
REMARK    1  A    between atoms: C_1  and  C_2
REMARK    2  A    between atoms: C_2  and  C_3
REMARK    3  A    between atoms: C_2  and  C_4
REMARK    4  A    between atoms: C_2  and  C_19
REMARK    5  A    between atoms: C_4  and  N_5
REMARK    6  A    between atoms: N_5  and  C_6
REMARK    7  A    between atoms: C_10  and  C_11
REMARK                            x       y       z     vdW  Elec       q    Type
REMARK                         _______ _______ _______ _____ _____    ______ ____
ROOT
ATOM      1  N   UNL     1      45.618   5.596  12.081  0.00  0.00    +0.000 N 
ATOM      2  H   UNL     1      44.837   6.213  12.293  0.00  0.00    +0.000 HD
ENDROOT
BRANCH   1   3
ATOM      3  C   UNL     1      46.845   6.090  12.501  0.00  0.00    +0.000 A 
ATOM      4  C   UNL     1      47.391   5.667  13.716  0.00  0.00    +0.000 A 
ATOM      5  N   UNL     1      48.514   6.153  14.284  0.00  0.00    +0.000 NA
ATOM      6  C   UNL     1      49.130   7.158  13.617  0.00  0.00    +0.000 A 
ATOM      7  C   UNL     1      48.708   7.692  12.396  0.00  0.00    +0.000 A 
ATOM      8  C   UNL     1      47.536   7.121  11.857  0.00  0.00    +0.000 A 
BRANCH   7   9
ATOM      9  C   UNL     1      49.421   8.803  11.727  0.00  0.00    +0.000 A 
ATOM     10  C   UNL     1      48.780  10.021  11.426  0.00  0.00    +0.000 A 
ATOM     11  C   UNL     1      49.453  11.069  10.782  0.00  0.00    +0.000 A 
ATOM     12  C   UNL     1      50.791  10.925  10.434  0.00  0.00    +0.000 A 
ATOM     13  C   UNL     1      51.441   9.736  10.728  0.00  0.00    +0.000 A 
ATOM     14  F   UNL     1      52.732   9.590  10.401  0.00  0.00    +0.000 F 
ATOM     15  C   UNL     1      50.773   8.685  11.355  0.00  0.00    +0.000 A 
ENDBRANCH   7   9
ENDBRANCH   1   3
BRANCH   1  16
ATOM     16  C   UNL     1      45.290   4.171  12.098  0.00  0.00    +0.000 C 
BRANCH  16  18
ATOM     17  C   UNL     1      43.351   2.671  11.475  0.00  0.00    +0.000 C 
ATOM     18  C   UNL     1      44.276   3.806  10.964  0.00  0.00    +0.000 C 
ATOM     19  C   UNL     1      43.363   5.029  10.710  0.00  0.00    +0.000 C 
BRANCH  18  20
ATOM     20  C   UNL     1      45.027   3.448   9.662  0.00  0.00    +0.000 A 
ATOM     21  C   UNL     1      45.280   2.117   9.280  0.00  0.00    +0.000 A 
ATOM     22  C   UNL     1      45.972   1.816   8.105  0.00  0.00    +0.000 A 
ATOM     23  C   UNL     1      46.430   2.839   7.285  0.00  0.00    +0.000 A 
ATOM     24 CL   UNL     1      47.278   2.464   5.837  0.00  0.00    +0.000 Cl
ATOM     25  C   UNL     1      46.203   4.165   7.635  0.00  0.00    +0.000 A 
ATOM     26  C   UNL     1      45.506   4.467   8.809  0.00  0.00    +0.000 A 
ENDBRANCH  18  20
ENDBRANCH  16  18
ENDBRANCH   1  16
TORSDOF 5
ENDMDL
MODEL 4
REMARK VINA RESULT:    -7.472      1.715      2.250
REMARK INTER + INTRA:         -10.634
REMARK INTER:                  -9.831
REMARK INTRA:                  -0.802
REMARK UNBOUND:                -0.977
REMARK  Name = 
REMARK  7 active torsions:
REMARK  status: ('A' for Active; 'I' for Inactive)
REMARK    1  A    between atoms: C_1  and  C_2
REMARK    2  A    between atoms: C_2  and  C_3
REMARK    3  A    between atoms: C_2  and  C_4
REMARK    4  A    between atoms: C_2  and  C_19
REMARK    5  A    between atoms: C_4  and  N_5
REMARK    6  A    between atoms: N_5  and  C_6
REMARK    7  A    between atoms: C_10  and  C_11
REMARK                            x       y       z     vdW  Elec       q    Type
REMARK                         _______ _______ _______ _____ _____    ______ ____
ROOT
ATOM      1  N   UNL     1      44.934   6.311  12.338  0.00  0.00    +0.000 N 
ATOM      2  H   UNL     1      44.765   7.202  11.875  0.00  0.00    +0.000 HD
ENDROOT
BRANCH   1   3
ATOM      3  C   UNL     1      44.537   5.212  11.589  0.00  0.00    +0.000 A 
ATOM      4  C   UNL     1      43.478   4.413  12.026  0.00  0.00    +0.000 A 
ATOM      5  N   UNL     1      43.073   3.262  11.450  0.00  0.00    +0.000 NA
ATOM      6  C   UNL     1      43.789   2.850  10.377  0.00  0.00    +0.000 A 
ATOM      7  C   UNL     1      44.873   3.536   9.822  0.00  0.00    +0.000 A 
ATOM      8  C   UNL     1      45.227   4.739  10.469  0.00  0.00    +0.000 A 
BRANCH   7   9
ATOM      9  C   UNL     1      45.623   3.021   8.655  0.00  0.00    +0.000 A 
ATOM     10  C   UNL     1      45.993   3.858   7.583  0.00  0.00    +0.000 A 
ATOM     11  C   UNL     1      46.693   3.367   6.472  0.00  0.00    +0.000 A 
ATOM     12  C   UNL     1      47.050   2.024   6.413  0.00  0.00    +0.000 A 
ATOM     13  C   UNL     1      46.700   1.187   7.461  0.00  0.00    +0.000 A 
ATOM     14  F   UNL     1      47.045  -0.107   7.415  0.00  0.00    +0.000 F 
ATOM     15  C   UNL     1      45.992   1.666   8.561  0.00  0.00    +0.000 A 
ENDBRANCH   7   9
ENDBRANCH   1   3
BRANCH   1  16
ATOM     16  C   UNL     1      46.104   6.293  13.214  0.00  0.00    +0.000 C 
BRANCH  16  18
ATOM     17  C   UNL     1      47.756   7.404  11.652  0.00  0.00    +0.000 C 
ATOM     18  C   UNL     1      46.999   7.558  12.997  0.00  0.00    +0.000 C 
ATOM     19  C   UNL     1      46.076   8.790  12.838  0.00  0.00    +0.000 C 
BRANCH  18  20
ATOM     20  C   UNL     1      47.934   7.772  14.209  0.00  0.00    +0.000 A 
ATOM     21  C   UNL     1      48.141   9.039  14.786  0.00  0.00    +0.000 A 
ATOM     22  C   UNL     1      49.000   9.213  15.873  0.00  0.00    +0.000 A 
ATOM     23  C   UNL     1      49.677   8.124  16.406  0.00  0.00    +0.000 A 
ATOM     24 CL   UNL     1      50.731   8.341  17.747  0.00  0.00    +0.000 Cl
ATOM     25  C   UNL     1      49.502   6.859  15.856  0.00  0.00    +0.000 A 
ATOM     26  C   UNL     1      48.636   6.684  14.771  0.00  0.00    +0.000 A 
ENDBRANCH  18  20
ENDBRANCH  16  18
ENDBRANCH   1  16
TORSDOF 5
ENDMDL
MODEL 5
REMARK VINA RESULT:    -7.350      3.875      7.470
REMARK INTER + INTRA:         -10.476
REMARK INTER:                  -9.657
REMARK INTRA:                  -0.819
REMARK UNBOUND:                -0.977
REMARK  Name = 
REMARK  7 active torsions:
REMARK  status: ('A' for Active; 'I' for Inactive)
REMARK    1  A    between atoms: C_1  and  C_2
REMARK    2  A    between atoms: C_2  and  C_3
REMARK    3  A    between atoms: C_2  and  C_4
REMARK    4  A    between atoms: C_2  and  C_19
REMARK    5  A    between atoms: C_4  and  N_5
REMARK    6  A    between atoms: N_5  and  C_6
REMARK    7  A    between atoms: C_10  and  C_11
REMARK                            x       y       z     vdW  Elec       q    Type
REMARK                         _______ _______ _______ _____ _____    ______ ____
ROOT
ATOM      1  N   UNL     1      45.590   4.142  13.563  0.00  0.00    +0.000 N 
ATOM      2  H   UNL     1      45.042   3.839  14.366  0.00  0.00    +0.000 HD
ENDROOT
BRANCH   1   3
ATOM      3  C   UNL     1      46.688   4.921  13.903  0.00  0.00    +0.000 A 
ATOM      4  C   UNL     1      47.288   4.774  15.156  0.00  0.00    +0.000 A 
ATOM      5  N   UNL     1      48.283   5.543  15.646  0.00  0.00    +0.000 NA
ATOM      6  C   UNL     1      48.696   6.557  14.849  0.00  0.00    +0.000 A 
ATOM      7  C   UNL     1      48.195   6.836  13.575  0.00  0.00    +0.000 A 
ATOM      8  C   UNL     1      47.168   5.979  13.125  0.00  0.00    +0.000 A 
BRANCH   7   9
ATOM      9  C   UNL     1      48.682   7.973  12.762  0.00  0.00    +0.000 A 
ATOM     10  C   UNL     1      50.015   8.044  12.311  0.00  0.00    +0.000 A 
ATOM     11  C   UNL     1      50.479   9.127  11.550  0.00  0.00    +0.000 A 
ATOM     12  C   UNL     1      49.613  10.161  11.214  0.00  0.00    +0.000 A 
ATOM     13  C   UNL     1      48.296  10.106  11.643  0.00  0.00    +0.000 A 
ATOM     14  F   UNL     1      47.453  11.095  11.319  0.00  0.00    +0.000 F 
ATOM     15  C   UNL     1      47.833   9.039  12.411  0.00  0.00    +0.000 A 
ENDBRANCH   7   9
ENDBRANCH   1   3
BRANCH   1  16
ATOM     16  C   UNL     1      45.602   3.202  12.444  0.00  0.00    +0.000 C 
BRANCH  16  18
ATOM     17  C   UNL     1      43.271   2.681  11.610  0.00  0.00    +0.000 C 
ATOM     18  C   UNL     1      44.520   3.570  11.377  0.00  0.00    +0.000 C 
ATOM     19  C   UNL     1      44.067   5.029  11.622  0.00  0.00    +0.000 C 
BRANCH  18  20
ATOM     20  C   UNL     1      45.104   3.448   9.951  0.00  0.00    +0.000 A 
ATOM     21  C   UNL     1      45.486   4.572   9.195  0.00  0.00    +0.000 A 
ATOM     22  C   UNL     1      46.001   4.440   7.903  0.00  0.00    +0.000 A 
ATOM     23  C   UNL     1      46.141   3.181   7.335  0.00  0.00    +0.000 A 
ATOM     24 CL   UNL     1      46.778   3.023   5.746  0.00  0.00    +0.000 Cl
ATOM     25  C   UNL     1      45.767   2.050   8.051  0.00  0.00    +0.000 A 
ATOM     26  C   UNL     1      45.257   2.181   9.347  0.00  0.00    +0.000 A 
ENDBRANCH  18  20
ENDBRANCH  16  18
ENDBRANCH   1  16
TORSDOF 5
ENDMDL
MODEL 6
REMARK VINA RESULT:    -7.210      3.491      7.979
REMARK INTER + INTRA:         -10.295
REMARK INTER:                  -9.670
REMARK INTRA:                  -0.625
REMARK UNBOUND:                -0.977
REMARK  Name = 
REMARK  7 active torsions:
REMARK  status: ('A' for Active; 'I' for Inactive)
REMARK    1  A    between atoms: C_1  and  C_2
REMARK    2  A    between atoms: C_2  and  C_3
REMARK    3  A    between atoms: C_2  and  C_4
REMARK    4  A    between atoms: C_2  and  C_19
REMARK    5  A    between atoms: C_4  and  N_5
REMARK    6  A    between atoms: N_5  and  C_6
REMARK    7  A    between atoms: C_10  and  C_11
REMARK                            x       y       z     vdW  Elec       q    Type
REMARK                         _______ _______ _______ _____ _____    ______ ____
ROOT
ATOM      1  N   UNL     1      45.918   5.417  11.821  0.00  0.00    +0.000 N 
ATOM      2  H   UNL     1      45.305   6.101  11.380  0.00  0.00    +0.000 HD
ENDROOT
BRANCH   1   3
ATOM      3  C   UNL     1      46.806   5.973  12.732  0.00  0.00    +0.000 A 
ATOM      4  C   UNL     1      47.656   7.008  12.337  0.00  0.00    +0.000 A 
ATOM      5  N   UNL     1      48.634   7.553  13.090  0.00  0.00    +0.000 NA
ATOM      6  C   UNL     1      48.808   7.012  14.319  0.00  0.00    +0.000 A 
ATOM      7  C   UNL     1      48.042   5.973  14.857  0.00  0.00    +0.000 A 
ATOM      8  C   UNL     1      47.028   5.467  14.016  0.00  0.00    +0.000 A 
BRANCH   7   9
ATOM      9  C   UNL     1      48.296   5.416  16.204  0.00  0.00    +0.000 A 
ATOM     10  C   UNL     1      49.108   6.085  17.142  0.00  0.00    +0.000 A 
ATOM     11  C   UNL     1      49.357   5.552  18.415  0.00  0.00    +0.000 A 
ATOM     12  C   UNL     1      48.788   4.338  18.783  0.00  0.00    +0.000 A 
ATOM     13  C   UNL     1      47.981   3.669  17.876  0.00  0.00    +0.000 A 
ATOM     14  F   UNL     1      47.423   2.501  18.225  0.00  0.00    +0.000 F 
ATOM     15  C   UNL     1      47.741   4.187  16.605  0.00  0.00    +0.000 A 
ENDBRANCH   7   9
ENDBRANCH   1   3
BRANCH   1  16
ATOM     16  C   UNL     1      45.322   4.094  12.000  0.00  0.00    +0.000 C 
BRANCH  16  18
ATOM     17  C   UNL     1      43.368   2.631  11.337  0.00  0.00    +0.000 C 
ATOM     18  C   UNL     1      44.312   3.762  10.853  0.00  0.00    +0.000 C 
ATOM     19  C   UNL     1      43.418   5.002  10.614  0.00  0.00    +0.000 C 
BRANCH  18  20
ATOM     20  C   UNL     1      45.069   3.417   9.550  0.00  0.00    +0.000 A 
ATOM     21  C   UNL     1      45.405   2.096   9.202  0.00  0.00    +0.000 A 
ATOM     22  C   UNL     1      46.100   1.806   8.026  0.00  0.00    +0.000 A 
ATOM     23  C   UNL     1      46.478   2.833   7.171  0.00  0.00    +0.000 A 
ATOM     24 CL   UNL     1      47.330   2.472   5.722  0.00  0.00    +0.000 Cl
ATOM     25  C   UNL     1      46.168   4.151   7.487  0.00  0.00    +0.000 A 
ATOM     26  C   UNL     1      45.468   4.440   8.662  0.00  0.00    +0.000 A 
ENDBRANCH  18  20
ENDBRANCH  16  18
ENDBRANCH   1  16
TORSDOF 5
ENDMDL
MODEL 7
REMARK VINA RESULT:    -7.058      3.558      6.970
REMARK INTER + INTRA:         -10.098
REMARK INTER:                  -9.112
REMARK INTRA:                  -0.986
REMARK UNBOUND:                -0.977
REMARK  Name = 
REMARK  7 active torsions:
REMARK  status: ('A' for Active; 'I' for Inactive)
REMARK    1  A    between atoms: C_1  and  C_2
REMARK    2  A    between atoms: C_2  and  C_3
REMARK    3  A    between atoms: C_2  and  C_4
REMARK    4  A    between atoms: C_2  and  C_19
REMARK    5  A    between atoms: C_4  and  N_5
REMARK    6  A    between atoms: N_5  and  C_6
REMARK    7  A    between atoms: C_10  and  C_11
REMARK                            x       y       z     vdW  Elec       q    Type
REMARK                         _______ _______ _______ _____ _____    ______ ____
ROOT
ATOM      1  N   UNL     1      44.928   6.608  13.037  0.00  0.00    +0.000 N 
ATOM      2  H   UNL     1      44.464   6.640  13.943  0.00  0.00    +0.000 HD
ENDROOT
BRANCH   1   3
ATOM      3  C   UNL     1      45.657   7.753  12.746  0.00  0.00    +0.000 A 
ATOM      4  C   UNL     1      45.000   8.971  12.557  0.00  0.00    +0.000 A 
ATOM      5  N   UNL     1      45.580  10.124  12.163  0.00  0.00    +0.000 NA
ATOM      6  C   UNL     1      46.907  10.063  11.904  0.00  0.00    +0.000 A 
ATOM      7  C   UNL     1      47.703   8.921  12.042  0.00  0.00    +0.000 A 
ATOM      8  C   UNL     1      47.029   7.760  12.474  0.00  0.00    +0.000 A 
BRANCH   7   9
ATOM      9  C   UNL     1      49.149   8.919  11.727  0.00  0.00    +0.000 A 
ATOM     10  C   UNL     1      49.940  10.077  11.866  0.00  0.00    +0.000 A 
ATOM     11  C   UNL     1      51.307  10.078  11.556  0.00  0.00    +0.000 A 
ATOM     12  C   UNL     1      51.918   8.912  11.108  0.00  0.00    +0.000 A 
ATOM     13  C   UNL     1      51.157   7.761  10.970  0.00  0.00    +0.000 A 
ATOM     14  F   UNL     1      51.739   6.632  10.545  0.00  0.00    +0.000 F 
ATOM     15  C   UNL     1      49.795   7.758  11.264  0.00  0.00    +0.000 A 
ENDBRANCH   7   9
ENDBRANCH   1   3
BRANCH   1  16
ATOM     16  C   UNL     1      45.347   5.273  12.615  0.00  0.00    +0.000 C 
BRANCH  16  18
ATOM     17  C   UNL     1      43.679   3.371  12.583  0.00  0.00    +0.000 C 
ATOM     18  C   UNL     1      44.238   4.567  11.768  0.00  0.00    +0.000 C 
ATOM     19  C   UNL     1      43.061   5.554  11.582  0.00  0.00    +0.000 C 
BRANCH  18  20
ATOM     20  C   UNL     1      44.791   4.162  10.383  0.00  0.00    +0.000 A 
ATOM     21  C   UNL     1      44.644   2.862   9.865  0.00  0.00    +0.000 A 
ATOM     22  C   UNL     1      45.162   2.513   8.615  0.00  0.00    +0.000 A 
ATOM     23  C   UNL     1      45.844   3.455   7.857  0.00  0.00    +0.000 A 
ATOM     24 CL   UNL     1      46.477   3.023   6.318  0.00  0.00    +0.000 Cl
ATOM     25  C   UNL     1      46.013   4.747   8.342  0.00  0.00    +0.000 A 
ATOM     26  C   UNL     1      45.489   5.098   9.590  0.00  0.00    +0.000 A 
ENDBRANCH  18  20
ENDBRANCH  16  18
ENDBRANCH   1  16
TORSDOF 5
ENDMDL
MODEL 8
REMARK VINA RESULT:    -6.914      2.032      2.702
REMARK INTER + INTRA:          -9.912
REMARK INTER:                  -9.110
REMARK INTRA:                  -0.802
REMARK UNBOUND:                -0.977
REMARK  Name = 
REMARK  7 active torsions:
REMARK  status: ('A' for Active; 'I' for Inactive)
REMARK    1  A    between atoms: C_1  and  C_2
REMARK    2  A    between atoms: C_2  and  C_3
REMARK    3  A    between atoms: C_2  and  C_4
REMARK    4  A    between atoms: C_2  and  C_19
REMARK    5  A    between atoms: C_4  and  N_5
REMARK    6  A    between atoms: N_5  and  C_6
REMARK    7  A    between atoms: C_10  and  C_11
REMARK                            x       y       z     vdW  Elec       q    Type
REMARK                         _______ _______ _______ _____ _____    ______ ____
ROOT
ATOM      1  N   UNL     1      45.841   6.444  13.278  0.00  0.00    +0.000 N 
ATOM      2  H   UNL     1      45.719   7.453  13.344  0.00  0.00    +0.000 HD
ENDROOT
BRANCH   1   3
ATOM      3  C   UNL     1      45.065   5.856  12.289  0.00  0.00    +0.000 A 
ATOM      4  C   UNL     1      43.672   5.854  12.400  0.00  0.00    +0.000 A 
ATOM      5  N   UNL     1      42.818   5.223  11.569  0.00  0.00    +0.000 NA
ATOM      6  C   UNL     1      43.383   4.509  10.567  0.00  0.00    +0.000 A 
ATOM      7  C   UNL     1      44.756   4.409  10.324  0.00  0.00    +0.000 A 
ATOM      8  C   UNL     1      45.585   5.111  11.226  0.00  0.00    +0.000 A 
BRANCH   7   9
ATOM      9  C   UNL     1      45.309   3.598   9.217  0.00  0.00    +0.000 A 
ATOM     10  C   UNL     1      45.361   2.191   9.283  0.00  0.00    +0.000 A 
ATOM     11  C   UNL     1      45.895   1.423   8.239  0.00  0.00    +0.000 A 
ATOM     12  C   UNL     1      46.382   2.048   7.096  0.00  0.00    +0.000 A 
ATOM     13  C   UNL     1      46.335   3.431   7.011  0.00  0.00    +0.000 A 
ATOM     14  F   UNL     1      46.796   4.041   5.911  0.00  0.00    +0.000 F 
ATOM     15  C   UNL     1      45.817   4.200   8.051  0.00  0.00    +0.000 A 
ENDBRANCH   7   9
ENDBRANCH   1   3
BRANCH   1  16
ATOM     16  C   UNL     1      47.179   5.969  13.623  0.00  0.00    +0.000 C 
BRANCH  16  18
ATOM     17  C   UNL     1      48.920   7.299  12.358  0.00  0.00    +0.000 C 
ATOM     18  C   UNL     1      48.197   7.152  13.723  0.00  0.00    +0.000 C 
ATOM     19  C   UNL     1      47.405   8.463  13.939  0.00  0.00    +0.000 C 
BRANCH  18  20
ATOM     20  C   UNL     1      49.163   6.935  14.910  0.00  0.00    +0.000 A 
ATOM     21  C   UNL     1      50.483   7.424  14.906  0.00  0.00    +0.000 A 
ATOM     22  C   UNL     1      51.344   7.207  15.984  0.00  0.00    +0.000 A 
ATOM     23  C   UNL     1      50.906   6.491  17.090  0.00  0.00    +0.000 A 
ATOM     24 CL   UNL     1      51.968   6.228  18.417  0.00  0.00    +0.000 Cl
ATOM     25  C   UNL     1      49.611   5.987  17.124  0.00  0.00    +0.000 A 
ATOM     26  C   UNL     1      48.747   6.209  16.047  0.00  0.00    +0.000 A 
ENDBRANCH  18  20
ENDBRANCH  16  18
ENDBRANCH   1  16
TORSDOF 5
ENDMDL
MODEL 9
REMARK VINA RESULT:    -6.797      2.381      3.133
REMARK INTER + INTRA:          -9.761
REMARK INTER:                  -9.322
REMARK INTRA:                  -0.439
REMARK UNBOUND:                -0.977
REMARK  Name = 
REMARK  7 active torsions:
REMARK  status: ('A' for Active; 'I' for Inactive)
REMARK    1  A    between atoms: C_1  and  C_2
REMARK    2  A    between atoms: C_2  and  C_3
REMARK    3  A    between atoms: C_2  and  C_4
REMARK    4  A    between atoms: C_2  and  C_19
REMARK    5  A    between atoms: C_4  and  N_5
REMARK    6  A    between atoms: N_5  and  C_6
REMARK    7  A    between atoms: C_10  and  C_11
REMARK                            x       y       z     vdW  Elec       q    Type
REMARK                         _______ _______ _______ _____ _____    ______ ____
ROOT
ATOM      1  N   UNL     1      44.944   5.161  12.861  0.00  0.00    +0.000 N 
ATOM      2  H   UNL     1      44.284   5.932  12.934  0.00  0.00    +0.000 HD
ENDROOT
BRANCH   1   3
ATOM      3  C   UNL     1      44.562   4.188  11.946  0.00  0.00    +0.000 A 
ATOM      4  C   UNL     1      43.537   3.295  12.262  0.00  0.00    +0.000 A 
ATOM      5  N   UNL     1      43.151   2.243  11.511  0.00  0.00    +0.000 NA
ATOM      6  C   UNL     1      43.855   2.037  10.372  0.00  0.00    +0.000 A 
ATOM      7  C   UNL     1      44.907   2.839   9.920  0.00  0.00    +0.000 A 
ATOM      8  C   UNL     1      45.241   3.929  10.751  0.00  0.00    +0.000 A 
BRANCH   7   9
ATOM      9  C   UNL     1      45.645   2.548   8.670  0.00  0.00    +0.000 A 
ATOM     10  C   UNL     1      46.140   1.260   8.384  0.00  0.00    +0.000 A 
ATOM     11  C   UNL     1      46.849   0.988   7.205  0.00  0.00    +0.000 A 
ATOM     12  C   UNL     1      47.069   2.001   6.278  0.00  0.00    +0.000 A 
ATOM     13  C   UNL     1      46.584   3.273   6.539  0.00  0.00    +0.000 A 
ATOM     14  F   UNL     1      46.787   4.253   5.649  0.00  0.00    +0.000 F 
ATOM     15  C   UNL     1      45.891   3.552   7.716  0.00  0.00    +0.000 A 
ENDBRANCH   7   9
ENDBRANCH   1   3
BRANCH   1  16
ATOM     16  C   UNL     1      46.340   5.531  13.087  0.00  0.00    +0.000 C 
BRANCH  16  18
ATOM     17  C   UNL     1      46.544   6.772  10.892  0.00  0.00    +0.000 C 
ATOM     18  C   UNL     1      46.678   6.910  12.431  0.00  0.00    +0.000 C 
ATOM     19  C   UNL     1      45.608   7.938  12.870  0.00  0.00    +0.000 C 
BRANCH  18  20
ATOM     20  C   UNL     1      48.073   7.397  12.885  0.00  0.00    +0.000 A 
ATOM     21  C   UNL     1      48.839   8.301  12.126  0.00  0.00    +0.000 A 
ATOM     22  C   UNL     1      50.103   8.719  12.549  0.00  0.00    +0.000 A 
ATOM     23  C   UNL     1      50.632   8.240  13.740  0.00  0.00    +0.000 A 
ATOM     24 CL   UNL     1      52.187   8.759  14.258  0.00  0.00    +0.000 Cl
ATOM     25  C   UNL     1      49.906   7.340  14.511  0.00  0.00    +0.000 A 
ATOM     26  C   UNL     1      48.638   6.925  14.090  0.00  0.00    +0.000 A 
ENDBRANCH  18  20
ENDBRANCH  16  18
ENDBRANCH   1  16
TORSDOF 5
ENDMDL
