MODEL 1
REMARK VINA RESULT:    -8.467      0.000      0.000
REMARK INTER + INTRA:         -11.144
REMARK INTER:                 -10.447
REMARK INTRA:                  -0.696
REMARK UNBOUND:                -0.696
REMARK  Name = 
REMARK  4 active torsions:
REMARK  status: ('A' for Active; 'I' for Inactive)
REMARK    1  A    between atoms: C_2  and  C_4
REMARK    2  A    between atoms: N_8  and  C_9
REMARK    3  A    between atoms: C_9  and  C_10
REMARK    4  A    between atoms: C_14  and  C_15
REMARK                            x       y       z     vdW  Elec       q    Type
REMARK                         _______ _______ _______ _____ _____    ______ ____
ROOT
ATOM      1  C   UNL     1      46.551   2.478   7.267  0.00  0.00    +0.000 A 
ATOM      2  C   UNL     1      45.956   3.691   7.592  0.00  0.00    +0.000 A 
ATOM      3  C   UNL     1      45.095   3.753   8.688  0.00  0.00    +0.000 A 
ATOM      4  C   UNL     1      44.848   2.611   9.440  0.00  0.00    +0.000 A 
ATOM      5  N   UNL     1      44.076   2.594  10.566  0.00  0.00    +0.000 N 
ATOM      6  N   UNL     1      45.391   1.423   9.107  0.00  0.00    +0.000 NA
ATOM      7  C   UNL     1      46.218   1.373   8.032  0.00  0.00    +0.000 A 
ATOM      8  H   UNL     1      43.972   1.672  10.969  0.00  0.00    +0.000 HD
ENDROOT
BRANCH   1  10
ATOM      9  N   UNL     1      47.447   3.259   5.151  0.00  0.00    +0.000 N 
ATOM     10  C   UNL     1      47.508   2.328   6.153  0.00  0.00    +0.000 C 
ATOM     11  O   UNL     1      48.342   1.434   6.141  0.00  0.00    +0.000 OA
ATOM     12  H   UNL     1      48.173   3.211   4.448  0.00  0.00    +0.000 HD
ATOM     13  H   UNL     1      46.955   4.136   5.254  0.00  0.00    +0.000 HD
ENDBRANCH   1  10
BRANCH   5  14
ATOM     14  C   UNL     1      43.371   3.706  11.150  0.00  0.00    +0.000 C 
BRANCH  14  15
ATOM     15  C   UNL     1      44.283   4.633  11.916  0.00  0.00    +0.000 A 
ATOM     16  C   UNL     1      45.149   4.168  12.906  0.00  0.00    +0.000 A 
ATOM     17  C   UNL     1      46.017   5.065  13.504  0.00  0.00    +0.000 A 
ATOM     18  N   UNL     1      46.083   6.375  13.184  0.00  0.00    +0.000 NA
ATOM     19  C   UNL     1      45.237   6.840  12.232  0.00  0.00    +0.000 A 
ATOM     20  C   UNL     1      44.340   5.993  11.577  0.00  0.00    +0.000 A 
BRANCH  19  21
ATOM     21  C   UNL     1      45.341   8.279  11.937  0.00  0.00    +0.000 A 
ATOM     22  C   UNL     1      44.327   8.969  11.257  0.00  0.00    +0.000 A 
ATOM     23  C   UNL     1      44.452  10.330  10.980  0.00  0.00    +0.000 A 
ATOM     24  C   UNL     1      45.600  10.979  11.393  0.00  0.00    +0.000 A 
ATOM     25  N   UNL     1      46.607  10.368  12.050  0.00  0.00    +0.000 NA
ATOM     26  C   UNL     1      46.454   9.041  12.294  0.00  0.00    +0.000 A 
ENDBRANCH  19  21
ENDBRANCH  14  15
ENDBRANCH   5  14
TORSDOF 4
ENDMDL
MODEL 2
REMARK VINA RESULT:    -8.354      1.691      3.752
REMARK INTER + INTRA:         -11.003
REMARK INTER:                 -10.402
REMARK INTRA:                  -0.601
REMARK UNBOUND:                -0.696
REMARK  Name = 
REMARK  4 active torsions:
REMARK  status: ('A' for Active; 'I' for Inactive)
REMARK    1  A    between atoms: C_2  and  C_4
REMARK    2  A    between atoms: N_8  and  C_9
REMARK    3  A    between atoms: C_9  and  C_10
REMARK    4  A    between atoms: C_14  and  C_15
REMARK                            x       y       z     vdW  Elec       q    Type
REMARK                         _______ _______ _______ _____ _____    ______ ____
ROOT
ATOM      1  C   UNL     1      46.603   2.544   7.197  0.00  0.00    +0.000 A 
ATOM      2  C   UNL     1      46.052   3.776   7.524  0.00  0.00    +0.000 A 
ATOM      3  C   UNL     1      45.231   3.876   8.648  0.00  0.00    +0.000 A 
ATOM      4  C   UNL     1      44.979   2.751   9.424  0.00  0.00    +0.000 A 
ATOM      5  N   UNL     1      44.247   2.770  10.575  0.00  0.00    +0.000 N 
ATOM      6  N   UNL     1      45.479   1.545   9.089  0.00  0.00    +0.000 NA
ATOM      7  C   UNL     1      46.267   1.458   7.988  0.00  0.00    +0.000 A 
ATOM      8  H   UNL     1      44.131   1.857  10.995  0.00  0.00    +0.000 HD
ENDROOT
BRANCH   1  10
ATOM      9  N   UNL     1      47.435   3.263   5.034  0.00  0.00    +0.000 N 
ATOM     10  C   UNL     1      47.517   2.353   6.053  0.00  0.00    +0.000 C 
ATOM     11  O   UNL     1      48.335   1.444   6.031  0.00  0.00    +0.000 OA
ATOM     12  H   UNL     1      48.134   3.187   4.306  0.00  0.00    +0.000 HD
ATOM     13  H   UNL     1      46.962   4.150   5.133  0.00  0.00    +0.000 HD
ENDBRANCH   1  10
BRANCH   5  14
ATOM     14  C   UNL     1      43.592   3.908  11.167  0.00  0.00    +0.000 C 
BRANCH  14  15
ATOM     15  C   UNL     1      44.567   4.887  11.774  0.00  0.00    +0.000 A 
ATOM     16  C   UNL     1      44.645   6.214  11.348  0.00  0.00    +0.000 A 
ATOM     17  C   UNL     1      45.502   7.075  12.010  0.00  0.00    +0.000 A 
ATOM     18  N   UNL     1      46.273   6.711  13.056  0.00  0.00    +0.000 NA
ATOM     19  C   UNL     1      46.216   5.421  13.470  0.00  0.00    +0.000 A 
ATOM     20  C   UNL     1      45.367   4.496  12.857  0.00  0.00    +0.000 A 
BRANCH  19  21
ATOM     21  C   UNL     1      47.092   5.076  14.602  0.00  0.00    +0.000 A 
ATOM     22  C   UNL     1      46.964   3.862  15.291  0.00  0.00    +0.000 A 
ATOM     23  C   UNL     1      47.799   3.561  16.367  0.00  0.00    +0.000 A 
ATOM     24  C   UNL     1      48.754   4.490  16.734  0.00  0.00    +0.000 A 
ATOM     25  N   UNL     1      48.923   5.673  16.109  0.00  0.00    +0.000 NA
ATOM     26  C   UNL     1      48.086   5.934  15.072  0.00  0.00    +0.000 A 
ENDBRANCH  19  21
ENDBRANCH  14  15
ENDBRANCH   5  14
TORSDOF 4
ENDMDL
MODEL 3
REMARK VINA RESULT:    -7.587      3.159      6.940
REMARK INTER + INTRA:         -10.057
REMARK INTER:                  -9.369
REMARK INTRA:                  -0.687
REMARK UNBOUND:                -0.696
REMARK  Name = 
REMARK  4 active torsions:
REMARK  status: ('A' for Active; 'I' for Inactive)
REMARK    1  A    between atoms: C_2  and  C_4
REMARK    2  A    between atoms: N_8  and  C_9
REMARK    3  A    between atoms: C_9  and  C_10
REMARK    4  A    between atoms: C_14  and  C_15
REMARK                            x       y       z     vdW  Elec       q    Type
REMARK                         _______ _______ _______ _____ _____    ______ ____
ROOT
ATOM      1  C   UNL     1      49.572   7.675  12.705  0.00  0.00    +0.000 A 
ATOM      2  C   UNL     1      48.659   7.757  11.661  0.00  0.00    +0.000 A 
ATOM      3  C   UNL     1      47.364   7.273  11.852  0.00  0.00    +0.000 A 
ATOM      4  C   UNL     1      47.004   6.721  13.075  0.00  0.00    +0.000 A 
ATOM      5  N   UNL     1      45.745   6.287  13.372  0.00  0.00    +0.000 N 
ATOM      6  N   UNL     1      47.897   6.602  14.079  0.00  0.00    +0.000 NA
ATOM      7  C   UNL     1      49.156   7.067  13.878  0.00  0.00    +0.000 A 
ATOM      8  H   UNL     1      45.666   5.880  14.296  0.00  0.00    +0.000 HD
ENDROOT
BRANCH   1  10
ATOM      9  N   UNL     1      51.690   7.808  11.528  0.00  0.00    +0.000 N 
ATOM     10  C   UNL     1      50.948   8.201  12.609  0.00  0.00    +0.000 C 
ATOM     11  O   UNL     1      51.395   8.981  13.438  0.00  0.00    +0.000 OA
ATOM     12  H   UNL     1      52.591   8.254  11.415  0.00  0.00    +0.000 HD
ATOM     13  H   UNL     1      51.277   7.380  10.712  0.00  0.00    +0.000 HD
ENDBRANCH   1  10
BRANCH   5  14
ATOM     14  C   UNL     1      44.600   6.285  12.499  0.00  0.00    +0.000 C 
BRANCH  14  15
ATOM     15  C   UNL     1      44.393   4.954  11.817  0.00  0.00    +0.000 A 
ATOM     16  C   UNL     1      43.449   4.031  12.268  0.00  0.00    +0.000 A 
ATOM     17  C   UNL     1      43.256   2.869  11.541  0.00  0.00    +0.000 A 
ATOM     18  N   UNL     1      43.927   2.571  10.408  0.00  0.00    +0.000 NA
ATOM     19  C   UNL     1      44.856   3.455   9.968  0.00  0.00    +0.000 A 
ATOM     20  C   UNL     1      45.100   4.653  10.644  0.00  0.00    +0.000 A 
BRANCH  19  21
ATOM     21  C   UNL     1      45.569   3.069   8.739  0.00  0.00    +0.000 A 
ATOM     22  C   UNL     1      45.988   1.751   8.511  0.00  0.00    +0.000 A 
ATOM     23  C   UNL     1      46.670   1.410   7.343  0.00  0.00    +0.000 A 
ATOM     24  C   UNL     1      46.921   2.406   6.418  0.00  0.00    +0.000 A 
ATOM     25  N   UNL     1      46.543   3.690   6.583  0.00  0.00    +0.000 NA
ATOM     26  C   UNL     1      45.889   3.985   7.736  0.00  0.00    +0.000 A 
ENDBRANCH  19  21
ENDBRANCH  14  15
ENDBRANCH   5  14
TORSDOF 4
ENDMDL
MODEL 4
REMARK VINA RESULT:    -7.564      2.335      2.801
REMARK INTER + INTRA:         -10.029
REMARK INTER:                  -9.391
REMARK INTRA:                  -0.638
REMARK UNBOUND:                -0.696
REMARK  Name = 
REMARK  4 active torsions:
REMARK  status: ('A' for Active; 'I' for Inactive)
REMARK    1  A    between atoms: C_2  and  C_4
REMARK    2  A    between atoms: N_8  and  C_9
REMARK    3  A    between atoms: C_9  and  C_10
REMARK    4  A    between atoms: C_14  and  C_15
REMARK                            x       y       z     vdW  Elec       q    Type
REMARK                         _______ _______ _______ _____ _____    ______ ____
ROOT
ATOM      1  C   UNL     1      46.520   2.273   7.508  0.00  0.00    +0.000 A 
ATOM      2  C   UNL     1      46.069   1.954   8.782  0.00  0.00    +0.000 A 
ATOM      3  C   UNL     1      45.377   2.918   9.518  0.00  0.00    +0.000 A 
ATOM      4  C   UNL     1      45.145   4.174   8.970  0.00  0.00    +0.000 A 
ATOM      5  N   UNL     1      44.421   5.151   9.588  0.00  0.00    +0.000 N 
ATOM      6  N   UNL     1      45.615   4.501   7.750  0.00  0.00    +0.000 NA
ATOM      7  C   UNL     1      46.295   3.560   7.048  0.00  0.00    +0.000 A 
ATOM      8  H   UNL     1      44.381   6.016   9.064  0.00  0.00    +0.000 HD
ENDROOT
BRANCH   1  10
ATOM      9  N   UNL     1      48.243   1.787   5.869  0.00  0.00    +0.000 N 
ATOM     10  C   UNL     1      47.220   1.305   6.641  0.00  0.00    +0.000 C 
ATOM     11  O   UNL     1      46.926   0.117   6.637  0.00  0.00    +0.000 OA
ATOM     12  H   UNL     1      48.784   1.100   5.360  0.00  0.00    +0.000 HD
ATOM     13  H   UNL     1      48.670   2.687   6.034  0.00  0.00    +0.000 HD
ENDBRANCH   1  10
BRANCH   5  14
ATOM     14  C   UNL     1      43.809   5.084  10.890  0.00  0.00    +0.000 C 
BRANCH  14  15
ATOM     15  C   UNL     1      44.818   5.168  12.009  0.00  0.00    +0.000 A 
ATOM     16  C   UNL     1      44.725   4.371  13.151  0.00  0.00    +0.000 A 
ATOM     17  C   UNL     1      45.734   4.442  14.095  0.00  0.00    +0.000 A 
ATOM     18  N   UNL     1      46.817   5.239  13.979  0.00  0.00    +0.000 NA
ATOM     19  C   UNL     1      46.911   6.028  12.880  0.00  0.00    +0.000 A 
ATOM     20  C   UNL     1      45.937   6.004  11.880  0.00  0.00    +0.000 A 
BRANCH  19  21
ATOM     21  C   UNL     1      48.104   6.889  12.816  0.00  0.00    +0.000 A 
ATOM     22  C   UNL     1      48.432   7.611  11.659  0.00  0.00    +0.000 A 
ATOM     23  C   UNL     1      49.572   8.414  11.618  0.00  0.00    +0.000 A 
ATOM     24  C   UNL     1      50.368   8.478  12.746  0.00  0.00    +0.000 A 
ATOM     25  N   UNL     1      50.103   7.807  13.885  0.00  0.00    +0.000 NA
ATOM     26  C   UNL     1      48.989   7.030  13.885  0.00  0.00    +0.000 A 
ENDBRANCH  19  21
ENDBRANCH  14  15
ENDBRANCH   5  14
TORSDOF 4
ENDMDL
MODEL 5
REMARK VINA RESULT:    -7.384      2.682      7.062
REMARK INTER + INTRA:          -9.807
REMARK INTER:                  -9.719
REMARK INTRA:                  -0.089
REMARK UNBOUND:                -0.696
REMARK  Name = 
REMARK  4 active torsions:
REMARK  status: ('A' for Active; 'I' for Inactive)
REMARK    1  A    between atoms: C_2  and  C_4
REMARK    2  A    between atoms: N_8  and  C_9
REMARK    3  A    between atoms: C_9  and  C_10
REMARK    4  A    between atoms: C_14  and  C_15
REMARK                            x       y       z     vdW  Elec       q    Type
REMARK                         _______ _______ _______ _____ _____    ______ ____
ROOT
ATOM      1  C   UNL     1      47.400   6.832  13.735  0.00  0.00    +0.000 A 
ATOM      2  C   UNL     1      46.476   5.794  13.754  0.00  0.00    +0.000 A 
ATOM      3  C   UNL     1      45.328   5.892  12.966  0.00  0.00    +0.000 A 
ATOM      4  C   UNL     1      45.126   7.016  12.175  0.00  0.00    +0.000 A 
ATOM      5  N   UNL     1      44.070   7.166  11.323  0.00  0.00    +0.000 N 
ATOM      6  N   UNL     1      45.999   8.043  12.182  0.00  0.00    +0.000 NA
ATOM      7  C   UNL     1      47.106   7.941  12.960  0.00  0.00    +0.000 A 
ATOM      8  H   UNL     1      44.057   8.060  10.850  0.00  0.00    +0.000 HD
ENDROOT
BRANCH   1  10
ATOM      9  N   UNL     1      48.582   6.414  15.813  0.00  0.00    +0.000 N 
ATOM     10  C   UNL     1      48.661   6.795  14.501  0.00  0.00    +0.000 C 
ATOM     11  O   UNL     1      49.736   7.059  13.979  0.00  0.00    +0.000 OA
ATOM     12  H   UNL     1      49.460   6.290  16.300  0.00  0.00    +0.000 HD
ATOM     13  H   UNL     1      47.768   5.954  16.197  0.00  0.00    +0.000 HD
ENDBRANCH   1  10
BRANCH   5  14
ATOM     14  C   UNL     1      42.987   6.240  11.114  0.00  0.00    +0.000 C 
BRANCH  14  15
ATOM     15  C   UNL     1      43.467   4.823  10.913  0.00  0.00    +0.000 A 
ATOM     16  C   UNL     1      43.050   3.776  11.736  0.00  0.00    +0.000 A 
ATOM     17  C   UNL     1      43.464   2.490  11.437  0.00  0.00    +0.000 A 
ATOM     18  N   UNL     1      44.251   2.179  10.385  0.00  0.00    +0.000 NA
ATOM     19  C   UNL     1      44.673   3.190   9.586  0.00  0.00    +0.000 A 
ATOM     20  C   UNL     1      44.288   4.513   9.819  0.00  0.00    +0.000 A 
BRANCH  19  21
ATOM     21  C   UNL     1      45.542   2.795   8.465  0.00  0.00    +0.000 A 
ATOM     22  C   UNL     1      45.903   3.699   7.456  0.00  0.00    +0.000 A 
ATOM     23  C   UNL     1      46.721   3.299   6.399  0.00  0.00    +0.000 A 
ATOM     24  C   UNL     1      47.164   1.990   6.373  0.00  0.00    +0.000 A 
ATOM     25  N   UNL     1      46.850   1.078   7.315  0.00  0.00    +0.000 NA
ATOM     26  C   UNL     1      46.046   1.501   8.324  0.00  0.00    +0.000 A 
ENDBRANCH  19  21
ENDBRANCH  14  15
ENDBRANCH   5  14
TORSDOF 4
ENDMDL
MODEL 6
REMARK VINA RESULT:    -7.057      4.086      8.024
REMARK INTER + INTRA:          -9.404
REMARK INTER:                  -8.959
REMARK INTRA:                  -0.445
REMARK UNBOUND:                -0.696
REMARK  Name = 
REMARK  4 active torsions:
REMARK  status: ('A' for Active; 'I' for Inactive)
REMARK    1  A    between atoms: C_2  and  C_4
REMARK    2  A    between atoms: N_8  and  C_9
REMARK    3  A    between atoms: C_9  and  C_10
REMARK    4  A    between atoms: C_14  and  C_15
REMARK                            x       y       z     vdW  Elec       q    Type
REMARK                         _______ _______ _______ _____ _____    ______ ____
ROOT
ATOM      1  C   UNL     1      49.095   4.223  17.343  0.00  0.00    +0.000 A 
ATOM      2  C   UNL     1      48.824   5.462  16.776  0.00  0.00    +0.000 A 
ATOM      3  C   UNL     1      47.887   5.547  15.746  0.00  0.00    +0.000 A 
ATOM      4  C   UNL     1      47.237   4.401  15.304  0.00  0.00    +0.000 A 
ATOM      5  N   UNL     1      46.260   4.401  14.352  0.00  0.00    +0.000 N 
ATOM      6  N   UNL     1      47.524   3.191  15.823  0.00  0.00    +0.000 NA
ATOM      7  C   UNL     1      48.445   3.119  16.818  0.00  0.00    +0.000 A 
ATOM      8  H   UNL     1      45.919   3.476  14.124  0.00  0.00    +0.000 HD
ENDROOT
BRANCH   1  10
ATOM      9  N   UNL     1      49.515   4.098  19.730  0.00  0.00    +0.000 N 
ATOM     10  C   UNL     1      50.037   4.044  18.466  0.00  0.00    +0.000 C 
ATOM     11  O   UNL     1      51.225   3.823  18.277  0.00  0.00    +0.000 OA
ATOM     12  H   UNL     1      50.146   3.870  20.488  0.00  0.00    +0.000 HD
ATOM     13  H   UNL     1      48.524   4.024  19.912  0.00  0.00    +0.000 HD
ENDBRANCH   1  10
BRANCH   5  14
ATOM     14  C   UNL     1      45.757   5.538  13.626  0.00  0.00    +0.000 C 
BRANCH  14  15
ATOM     15  C   UNL     1      44.967   5.141  12.402  0.00  0.00    +0.000 A 
ATOM     16  C   UNL     1      43.631   5.508  12.233  0.00  0.00    +0.000 A 
ATOM     17  C   UNL     1      42.998   5.182  11.046  0.00  0.00    +0.000 A 
ATOM     18  N   UNL     1      43.598   4.528  10.030  0.00  0.00    +0.000 NA
ATOM     19  C   UNL     1      44.892   4.155  10.189  0.00  0.00    +0.000 A 
ATOM     20  C   UNL     1      45.600   4.458  11.354  0.00  0.00    +0.000 A 
BRANCH  19  21
ATOM     21  C   UNL     1      45.489   3.429   9.055  0.00  0.00    +0.000 A 
ATOM     22  C   UNL     1      45.966   4.099   7.919  0.00  0.00    +0.000 A 
ATOM     23  C   UNL     1      46.519   3.390   6.853  0.00  0.00    +0.000 A 
ATOM     24  C   UNL     1      46.584   2.012   6.947  0.00  0.00    +0.000 A 
ATOM     25  N   UNL     1      46.141   1.315   8.012  0.00  0.00    +0.000 NA
ATOM     26  C   UNL     1      45.602   2.039   9.027  0.00  0.00    +0.000 A 
ENDBRANCH  19  21
ENDBRANCH  14  15
ENDBRANCH   5  14
TORSDOF 4
ENDMDL
MODEL 7
REMARK VINA RESULT:    -6.441      6.073      8.619
REMARK INTER + INTRA:          -8.643
REMARK INTER:                  -8.014
REMARK INTRA:                  -0.629
REMARK UNBOUND:                -0.696
REMARK  Name = 
REMARK  4 active torsions:
REMARK  status: ('A' for Active; 'I' for Inactive)
REMARK    1  A    between atoms: C_2  and  C_4
REMARK    2  A    between atoms: N_8  and  C_9
REMARK    3  A    between atoms: C_9  and  C_10
REMARK    4  A    between atoms: C_14  and  C_15
REMARK                            x       y       z     vdW  Elec       q    Type
REMARK                         _______ _______ _______ _____ _____    ______ ____
ROOT
ATOM      1  C   UNL     1      52.501   2.335  18.035  0.00  0.00    +0.000 A 
ATOM      2  C   UNL     1      51.849   3.535  18.286  0.00  0.00    +0.000 A 
ATOM      3  C   UNL     1      50.514   3.675  17.904  0.00  0.00    +0.000 A 
ATOM      4  C   UNL     1      49.857   2.618  17.285  0.00  0.00    +0.000 A 
ATOM      5  N   UNL     1      48.536   2.642  16.940  0.00  0.00    +0.000 N 
ATOM      6  N   UNL     1      50.496   1.465  17.003  0.00  0.00    +0.000 NA
ATOM      7  C   UNL     1      51.797   1.345  17.370  0.00  0.00    +0.000 A 
ATOM      8  H   UNL     1      48.228   1.803  16.466  0.00  0.00    +0.000 HD
ENDROOT
BRANCH   1  10
ATOM      9  N   UNL     1      54.853   2.145  17.465  0.00  0.00    +0.000 N 
ATOM     10  C   UNL     1      53.897   2.082  18.443  0.00  0.00    +0.000 C 
ATOM     11  O   UNL     1      54.194   1.859  19.609  0.00  0.00    +0.000 OA
ATOM     12  H   UNL     1      55.815   2.076  17.771  0.00  0.00    +0.000 HD
ATOM     13  H   UNL     1      54.681   2.568  16.564  0.00  0.00    +0.000 HD
ENDBRANCH   1  10
BRANCH   5  14
ATOM     14  C   UNL     1      47.615   3.735  17.114  0.00  0.00    +0.000 C 
BRANCH  14  15
ATOM     15  C   UNL     1      47.579   4.658  15.920  0.00  0.00    +0.000 A 
ATOM     16  C   UNL     1      48.351   5.819  15.858  0.00  0.00    +0.000 A 
ATOM     17  C   UNL     1      48.331   6.569  14.696  0.00  0.00    +0.000 A 
ATOM     18  N   UNL     1      47.607   6.244  13.604  0.00  0.00    +0.000 NA
ATOM     19  C   UNL     1      46.842   5.126  13.657  0.00  0.00    +0.000 A 
ATOM     20  C   UNL     1      46.819   4.312  14.793  0.00  0.00    +0.000 A 
BRANCH  19  21
ATOM     21  C   UNL     1      46.061   4.831  12.445  0.00  0.00    +0.000 A 
ATOM     22  C   UNL     1      46.011   5.722  11.363  0.00  0.00    +0.000 A 
ATOM     23  C   UNL     1      45.256   5.426  10.229  0.00  0.00    +0.000 A 
ATOM     24  C   UNL     1      44.560   4.232  10.199  0.00  0.00    +0.000 A 
ATOM     25  N   UNL     1      44.571   3.337  11.207  0.00  0.00    +0.000 NA
ATOM     26  C   UNL     1      45.310   3.664  12.299  0.00  0.00    +0.000 A 
ENDBRANCH  19  21
ENDBRANCH  14  15
ENDBRANCH   5  14
TORSDOF 4
ENDMDL
MODEL 8
REMARK VINA RESULT:    -6.369      3.797      7.720
REMARK INTER + INTRA:          -8.555
REMARK INTER:                  -8.411
REMARK INTRA:                  -0.144
REMARK UNBOUND:                -0.696
REMARK  Name = 
REMARK  4 active torsions:
REMARK  status: ('A' for Active; 'I' for Inactive)
REMARK    1  A    between atoms: C_2  and  C_4
REMARK    2  A    between atoms: N_8  and  C_9
REMARK    3  A    between atoms: C_9  and  C_10
REMARK    4  A    between atoms: C_14  and  C_15
REMARK                            x       y       z     vdW  Elec       q    Type
REMARK                         _______ _______ _______ _____ _____    ______ ____
ROOT
ATOM      1  C   UNL     1      47.822   4.445  16.934  0.00  0.00    +0.000 A 
ATOM      2  C   UNL     1      47.543   4.365  15.575  0.00  0.00    +0.000 A 
ATOM      3  C   UNL     1      47.900   5.429  14.746  0.00  0.00    +0.000 A 
ATOM      4  C   UNL     1      48.529   6.546  15.283  0.00  0.00    +0.000 A 
ATOM      5  N   UNL     1      48.974   7.599  14.539  0.00  0.00    +0.000 N 
ATOM      6  N   UNL     1      48.768   6.645  16.606  0.00  0.00    +0.000 NA
ATOM      7  C   UNL     1      48.407   5.608  17.405  0.00  0.00    +0.000 A 
ATOM      8  H   UNL     1      49.377   8.344  15.094  0.00  0.00    +0.000 HD
ENDROOT
BRANCH   1  10
ATOM      9  N   UNL     1      48.315   3.252  18.990  0.00  0.00    +0.000 N 
ATOM     10  C   UNL     1      47.522   3.350  17.878  0.00  0.00    +0.000 C 
ATOM     11  O   UNL     1      46.584   2.586  17.696  0.00  0.00    +0.000 OA
ATOM     12  H   UNL     1      48.037   2.568  19.682  0.00  0.00    +0.000 HD
ATOM     13  H   UNL     1      48.919   4.003  19.293  0.00  0.00    +0.000 HD
ENDBRANCH   1  10
BRANCH   5  14
ATOM     14  C   UNL     1      48.852   7.767  13.114  0.00  0.00    +0.000 C 
BRANCH  14  15
ATOM     15  C   UNL     1      47.430   7.612  12.632  0.00  0.00    +0.000 A 
ATOM     16  C   UNL     1      46.455   8.581  12.879  0.00  0.00    +0.000 A 
ATOM     17  C   UNL     1      45.196   8.410  12.332  0.00  0.00    +0.000 A 
ATOM     18  N   UNL     1      44.847   7.358  11.562  0.00  0.00    +0.000 NA
ATOM     19  C   UNL     1      45.782   6.404  11.327  0.00  0.00    +0.000 A 
ATOM     20  C   UNL     1      47.078   6.512  11.837  0.00  0.00    +0.000 A 
BRANCH  19  21
ATOM     21  C   UNL     1      45.340   5.272  10.496  0.00  0.00    +0.000 A 
ATOM     22  C   UNL     1      45.741   5.135   9.159  0.00  0.00    +0.000 A 
ATOM     23  C   UNL     1      45.302   4.059   8.389  0.00  0.00    +0.000 A 
ATOM     24  C   UNL     1      44.463   3.132   8.978  0.00  0.00    +0.000 A 
ATOM     25  N   UNL     1      44.045   3.211  10.257  0.00  0.00    +0.000 NA
ATOM     26  C   UNL     1      44.486   4.277  10.974  0.00  0.00    +0.000 A 
ENDBRANCH  19  21
ENDBRANCH  14  15
ENDBRANCH   5  14
TORSDOF 4
ENDMDL
MODEL 9
REMARK VINA RESULT:    -6.337      3.714      6.268
REMARK INTER + INTRA:          -8.515
REMARK INTER:                  -7.837
REMARK INTRA:                  -0.678
REMARK UNBOUND:                -0.696
REMARK  Name = 
REMARK  4 active torsions:
REMARK  status: ('A' for Active; 'I' for Inactive)
REMARK    1  A    between atoms: C_2  and  C_4
REMARK    2  A    between atoms: N_8  and  C_9
REMARK    3  A    between atoms: C_9  and  C_10
REMARK    4  A    between atoms: C_14  and  C_15
REMARK                            x       y       z     vdW  Elec       q    Type
REMARK                         _______ _______ _______ _____ _____    ______ ____
ROOT
ATOM      1  C   UNL     1      44.200   4.167  11.470  0.00  0.00    +0.000 A 
ATOM      2  C   UNL     1      44.992   5.002  10.692  0.00  0.00    +0.000 A 
ATOM      3  C   UNL     1      45.351   6.255  11.191  0.00  0.00    +0.000 A 
ATOM      4  C   UNL     1      44.921   6.647  12.452  0.00  0.00    +0.000 A 
ATOM      5  N   UNL     1      45.280   7.822  13.047  0.00  0.00    +0.000 N 
ATOM      6  N   UNL     1      44.121   5.857  13.196  0.00  0.00    +0.000 NA
ATOM      7  C   UNL     1      43.769   4.646  12.695  0.00  0.00    +0.000 A 
ATOM      8  H   UNL     1      44.848   7.966  13.950  0.00  0.00    +0.000 HD
ENDROOT
BRANCH   1  10
ATOM      9  N   UNL     1      44.468   2.280   9.967  0.00  0.00    +0.000 N 
ATOM     10  C   UNL     1      43.808   2.809  11.043  0.00  0.00    +0.000 C 
ATOM     11  O   UNL     1      42.956   2.169  11.643  0.00  0.00    +0.000 OA
ATOM     12  H   UNL     1      44.268   1.313   9.747  0.00  0.00    +0.000 HD
ATOM     13  H   UNL     1      45.332   2.668   9.615  0.00  0.00    +0.000 HD
ENDBRANCH   1  10
BRANCH   5  14
ATOM     14  C   UNL     1      46.115   8.855  12.490  0.00  0.00    +0.000 C 
BRANCH  14  15
ATOM     15  C   UNL     1      47.581   8.631  12.769  0.00  0.00    +0.000 A 
ATOM     16  C   UNL     1      48.581   9.179  11.965  0.00  0.00    +0.000 A 
ATOM     17  C   UNL     1      49.902   9.001  12.334  0.00  0.00    +0.000 A 
ATOM     18  N   UNL     1      50.291   8.327  13.437  0.00  0.00    +0.000 NA
ATOM     19  C   UNL     1      49.328   7.779  14.219  0.00  0.00    +0.000 A 
ATOM     20  C   UNL     1      47.972   7.925  13.916  0.00  0.00    +0.000 A 
BRANCH  19  21
ATOM     21  C   UNL     1      49.811   7.041  15.398  0.00  0.00    +0.000 A 
ATOM     22  C   UNL     1      51.160   7.062  15.781  0.00  0.00    +0.000 A 
ATOM     23  C   UNL     1      51.596   6.348  16.897  0.00  0.00    +0.000 A 
ATOM     24  C   UNL     1      50.664   5.620  17.613  0.00  0.00    +0.000 A 
ATOM     25  N   UNL     1      49.356   5.563  17.292  0.00  0.00    +0.000 NA
ATOM     26  C   UNL     1      48.970   6.264  16.196  0.00  0.00    +0.000 A 
ENDBRANCH  19  21
ENDBRANCH  14  15
ENDBRANCH   5  14
TORSDOF 4
ENDMDL
