MODEL 1
REMARK VINA RESULT:    -8.237      0.000      0.000
REMARK INTER + INTRA:         -10.338
REMARK INTER:                  -9.922
REMARK INTRA:                  -0.416
REMARK UNBOUND:                -0.416
REMARK  Name = 
REMARK  4 active torsions:
REMARK  status: ('A' for Active; 'I' for Inactive)
REMARK    1  A    between atoms: N_1  and  C_2
REMARK    2  A    between atoms: C_2  and  C_3
REMARK    3  A    between atoms: C_6  and  C_7
REMARK    4  A    between atoms: C_7  and  N_8
REMARK                            x       y       z     vdW  Elec       q    Type
REMARK                         _______ _______ _______ _____ _____    ______ ____
ROOT
ATOM      1  C   UNL     1      43.979   4.360   9.697  0.00  0.00    +0.000 C 
ENDROOT
BRANCH   1   2
ATOM      2  N   UNL     1      44.343   4.351  11.100  0.00  0.00    +0.000 N 
ATOM      3  C   UNL     1      43.735   3.591  12.062  0.00  0.00    +0.000 A 
ATOM      4  N   UNL     1      44.312   3.736  13.233  0.00  0.00    +0.000 NA
ATOM      5  C   UNL     1      45.321   4.644  13.027  0.00  0.00    +0.000 A 
ATOM      6  C   UNL     1      46.266   5.135  13.935  0.00  0.00    +0.000 A 
ATOM      7  C   UNL     1      47.195   6.077  13.480  0.00  0.00    +0.000 A 
ATOM      8 CL   UNL     1      48.403   6.664  14.559  0.00  0.00    +0.000 Cl
ATOM      9  C   UNL     1      47.172   6.546  12.167  0.00  0.00    +0.000 A 
ATOM     10  C   UNL     1      46.235   6.057  11.245  0.00  0.00    +0.000 A 
ATOM     11  C   UNL     1      45.336   5.086  11.704  0.00  0.00    +0.000 A 
ENDBRANCH   1   2
BRANCH   1  15
ATOM     12  C   UNL     1      46.856   2.207   7.386  0.00  0.00    +0.000 A 
ATOM     13  C   UNL     1      46.034   1.507   8.272  0.00  0.00    +0.000 A 
ATOM     14  C   UNL     1      45.067   2.185   9.013  0.00  0.00    +0.000 A 
ATOM     15  C   UNL     1      44.954   3.567   8.865  0.00  0.00    +0.000 A 
ATOM     16  N   UNL     1      45.718   4.265   7.988  0.00  0.00    +0.000 NA
ATOM     17  C   UNL     1      46.638   3.575   7.273  0.00  0.00    +0.000 A 
BRANCH  12  18
ATOM     18  C   UNL     1      47.969   1.536   6.633  0.00  0.00    +0.000 C 
BRANCH  18  19
ATOM     19  N   UNL     1      48.371   2.291   5.452  0.00  0.00    +0.000 NA
ATOM     20  H   UNL     1      48.172   1.738   4.620  0.00  0.00    +0.000 HD
ATOM     21  H   UNL     1      49.382   2.424   5.469  0.00  0.00    +0.000 HD
ENDBRANCH  18  19
ENDBRANCH  12  18
ENDBRANCH   1  15
TORSDOF 4
ENDMDL
MODEL 2
REMARK VINA RESULT:    -7.594      1.251      1.788
REMARK INTER + INTRA:          -9.564
REMARK INTER:                  -9.134
REMARK INTRA:                  -0.429
REMARK UNBOUND:                -0.416
REMARK  Name = 
REMARK  4 active torsions:
REMARK  status: ('A' for Active; 'I' for Inactive)
REMARK    1  A    between atoms: N_1  and  C_2
REMARK    2  A    between atoms: C_2  and  C_3
REMARK    3  A    between atoms: C_6  and  C_7
REMARK    4  A    between atoms: C_7  and  N_8
REMARK                            x       y       z     vdW  Elec       q    Type
REMARK                         _______ _______ _______ _____ _____    ______ ____
ROOT
ATOM      1  C   UNL     1      43.872   4.415  10.111  0.00  0.00    +0.000 C 
ENDROOT
BRANCH   1   2
ATOM      2  N   UNL     1      44.625   5.230  11.044  0.00  0.00    +0.000 N 
ATOM      3  C   UNL     1      44.677   6.598  11.023  0.00  0.00    +0.000 A 
ATOM      4  N   UNL     1      45.383   7.072  12.024  0.00  0.00    +0.000 NA
ATOM      5  C   UNL     1      45.824   5.967  12.709  0.00  0.00    +0.000 A 
ATOM      6  C   UNL     1      46.594   5.901  13.876  0.00  0.00    +0.000 A 
ATOM      7  C   UNL     1      46.930   4.639  14.378  0.00  0.00    +0.000 A 
ATOM      8 CL   UNL     1      47.833   4.522  15.839  0.00  0.00    +0.000 Cl
ATOM      9  C   UNL     1      46.542   3.469  13.724  0.00  0.00    +0.000 A 
ATOM     10  C   UNL     1      45.765   3.521  12.557  0.00  0.00    +0.000 A 
ATOM     11  C   UNL     1      45.403   4.791  12.089  0.00  0.00    +0.000 A 
ENDBRANCH   1   2
BRANCH   1  15
ATOM     12  C   UNL     1      46.560   2.348   7.513  0.00  0.00    +0.000 A 
ATOM     13  C   UNL     1      45.813   1.617   8.440  0.00  0.00    +0.000 A 
ATOM     14  C   UNL     1      44.906   2.267   9.275  0.00  0.00    +0.000 A 
ATOM     15  C   UNL     1      44.779   3.653   9.180  0.00  0.00    +0.000 A 
ATOM     16  N   UNL     1      45.469   4.380   8.267  0.00  0.00    +0.000 NA
ATOM     17  C   UNL     1      46.331   3.717   7.460  0.00  0.00    +0.000 A 
BRANCH  12  18
ATOM     18  C   UNL     1      47.611   1.706   6.653  0.00  0.00    +0.000 C 
BRANCH  18  19
ATOM     19  N   UNL     1      48.657   2.644   6.265  0.00  0.00    +0.000 NA
ATOM     20  H   UNL     1      48.239   3.559   6.103  0.00  0.00    +0.000 HD
ATOM     21  H   UNL     1      49.053   2.352   5.372  0.00  0.00    +0.000 HD
ENDBRANCH  18  19
ENDBRANCH  12  18
ENDBRANCH   1  15
TORSDOF 4
ENDMDL
MODEL 3
REMARK VINA RESULT:    -6.939      3.087      6.171
REMARK INTER + INTRA:          -8.775
REMARK INTER:                  -8.460
REMARK INTRA:                  -0.315
REMARK UNBOUND:                -0.416
REMARK  Name = 
REMARK  4 active torsions:
REMARK  status: ('A' for Active; 'I' for Inactive)
REMARK    1  A    between atoms: N_1  and  C_2
REMARK    2  A    between atoms: C_2  and  C_3
REMARK    3  A    between atoms: C_6  and  C_7
REMARK    4  A    between atoms: C_7  and  N_8
REMARK                            x       y       z     vdW  Elec       q    Type
REMARK                         _______ _______ _______ _____ _____    ______ ____
ROOT
ATOM      1  C   UNL     1      43.371   5.718  10.987  0.00  0.00    +0.000 C 
ENDROOT
BRANCH   1   2
ATOM      2  N   UNL     1      43.772   4.365  10.657  0.00  0.00    +0.000 N 
ATOM      3  C   UNL     1      43.320   3.238  11.289  0.00  0.00    +0.000 A 
ATOM      4  N   UNL     1      43.802   2.147  10.740  0.00  0.00    +0.000 NA
ATOM      5  C   UNL     1      44.616   2.584   9.725  0.00  0.00    +0.000 A 
ATOM      6  C   UNL     1      45.355   1.835   8.802  0.00  0.00    +0.000 A 
ATOM      7  C   UNL     1      46.129   2.522   7.860  0.00  0.00    +0.000 A 
ATOM      8 CL   UNL     1      47.011   1.632   6.678  0.00  0.00    +0.000 Cl
ATOM      9  C   UNL     1      46.197   3.916   7.850  0.00  0.00    +0.000 A 
ATOM     10  C   UNL     1      45.457   4.678   8.766  0.00  0.00    +0.000 A 
ATOM     11  C   UNL     1      44.656   3.977   9.678  0.00  0.00    +0.000 A 
ENDBRANCH   1   2
BRANCH   1  15
ATOM     12  C   UNL     1      46.545   7.696  13.051  0.00  0.00    +0.000 A 
ATOM     13  C   UNL     1      45.787   8.413  12.123  0.00  0.00    +0.000 A 
ATOM     14  C   UNL     1      44.726   7.797  11.462  0.00  0.00    +0.000 A 
ATOM     15  C   UNL     1      44.455   6.455  11.730  0.00  0.00    +0.000 A 
ATOM     16  N   UNL     1      45.156   5.747  12.649  0.00  0.00    +0.000 NA
ATOM     17  C   UNL     1      46.172   6.378  13.285  0.00  0.00    +0.000 A 
BRANCH  12  18
ATOM     18  C   UNL     1      47.751   8.289  13.724  0.00  0.00    +0.000 C 
BRANCH  18  19
ATOM     19  N   UNL     1      47.406   9.003  14.947  0.00  0.00    +0.000 NA
ATOM     20  H   UNL     1      46.392   9.040  15.035  0.00  0.00    +0.000 HD
ATOM     21  H   UNL     1      47.720   9.970  14.869  0.00  0.00    +0.000 HD
ENDBRANCH  18  19
ENDBRANCH  12  18
ENDBRANCH   1  15
TORSDOF 4
ENDMDL
MODEL 4
REMARK VINA RESULT:    -6.493      1.727      2.138
REMARK INTER + INTRA:          -8.238
REMARK INTER:                  -7.819
REMARK INTRA:                  -0.419
REMARK UNBOUND:                -0.416
REMARK  Name = 
REMARK  4 active torsions:
REMARK  status: ('A' for Active; 'I' for Inactive)
REMARK    1  A    between atoms: N_1  and  C_2
REMARK    2  A    between atoms: C_2  and  C_3
REMARK    3  A    between atoms: C_6  and  C_7
REMARK    4  A    between atoms: C_7  and  N_8
REMARK                            x       y       z     vdW  Elec       q    Type
REMARK                         _______ _______ _______ _____ _____    ______ ____
ROOT
ATOM      1  C   UNL     1      44.353   4.472  11.788  0.00  0.00    +0.000 C 
ENDROOT
BRANCH   1   2
ATOM      2  N   UNL     1      45.506   4.823  12.593  0.00  0.00    +0.000 N 
ATOM      3  C   UNL     1      46.335   3.925  13.209  0.00  0.00    +0.000 A 
ATOM      4  N   UNL     1      47.334   4.523  13.817  0.00  0.00    +0.000 NA
ATOM      5  C   UNL     1      47.134   5.864  13.605  0.00  0.00    +0.000 A 
ATOM      6  C   UNL     1      47.920   6.949  14.010  0.00  0.00    +0.000 A 
ATOM      7  C   UNL     1      47.491   8.239  13.678  0.00  0.00    +0.000 A 
ATOM      8 CL   UNL     1      48.460   9.593  14.118  0.00  0.00    +0.000 Cl
ATOM      9  C   UNL     1      46.296   8.454  12.990  0.00  0.00    +0.000 A 
ATOM     10  C   UNL     1      45.502   7.376  12.573  0.00  0.00    +0.000 A 
ATOM     11  C   UNL     1      45.965   6.088  12.878  0.00  0.00    +0.000 A 
ENDBRANCH   1   2
BRANCH   1  15
ATOM     12  C   UNL     1      45.637   3.158   7.931  0.00  0.00    +0.000 A 
ATOM     13  C   UNL     1      45.100   2.227   8.823  0.00  0.00    +0.000 A 
ATOM     14  C   UNL     1      44.645   2.639  10.074  0.00  0.00    +0.000 A 
ATOM     15  C   UNL     1      44.757   3.985  10.420  0.00  0.00    +0.000 A 
ATOM     16  N   UNL     1      45.246   4.914   9.561  0.00  0.00    +0.000 NA
ATOM     17  C   UNL     1      45.666   4.483   8.347  0.00  0.00    +0.000 A 
BRANCH  12  18
ATOM     18  C   UNL     1      46.220   2.750   6.608  0.00  0.00    +0.000 C 
BRANCH  18  19
ATOM     19  N   UNL     1      46.987   3.824   5.987  0.00  0.00    +0.000 NA
ATOM     20  H   UNL     1      47.411   3.475   5.129  0.00  0.00    +0.000 HD
ATOM     21  H   UNL     1      47.760   4.080   6.601  0.00  0.00    +0.000 HD
ENDBRANCH  18  19
ENDBRANCH  12  18
ENDBRANCH   1  15
TORSDOF 4
ENDMDL
MODEL 5
REMARK VINA RESULT:    -5.665      1.924      2.682
REMARK INTER + INTRA:          -7.241
REMARK INTER:                  -7.210
REMARK INTRA:                  -0.030
REMARK UNBOUND:                -0.416
REMARK  Name = 
REMARK  4 active torsions:
REMARK  status: ('A' for Active; 'I' for Inactive)
REMARK    1  A    between atoms: N_1  and  C_2
REMARK    2  A    between atoms: C_2  and  C_3
REMARK    3  A    between atoms: C_6  and  C_7
REMARK    4  A    between atoms: C_7  and  N_8
REMARK                            x       y       z     vdW  Elec       q    Type
REMARK                         _______ _______ _______ _____ _____    ______ ____
ROOT
ATOM      1  C   UNL     1      44.558   4.846  12.151  0.00  0.00    +0.000 C 
ENDROOT
BRANCH   1   2
ATOM      2  N   UNL     1      45.086   6.182  12.341  0.00  0.00    +0.000 N 
ATOM      3  C   UNL     1      44.506   7.328  11.866  0.00  0.00    +0.000 A 
ATOM      4  N   UNL     1      45.167   8.398  12.243  0.00  0.00    +0.000 NA
ATOM      5  C   UNL     1      46.230   7.927  12.972  0.00  0.00    +0.000 A 
ATOM      6  C   UNL     1      47.236   8.644  13.631  0.00  0.00    +0.000 A 
ATOM      7  C   UNL     1      48.230   7.925  14.304  0.00  0.00    +0.000 A 
ATOM      8 CL   UNL     1      49.454   8.777  15.167  0.00  0.00    +0.000 Cl
ATOM      9  C   UNL     1      48.249   6.530  14.298  0.00  0.00    +0.000 A 
ATOM     10  C   UNL     1      47.244   5.800  13.648  0.00  0.00    +0.000 A 
ATOM     11  C   UNL     1      46.234   6.533  13.012  0.00  0.00    +0.000 A 
ENDBRANCH   1   2
BRANCH   1  15
ATOM     12  C   UNL     1      45.596   3.388   8.272  0.00  0.00    +0.000 A 
ATOM     13  C   UNL     1      45.018   2.514   9.194  0.00  0.00    +0.000 A 
ATOM     14  C   UNL     1      44.642   2.975  10.455  0.00  0.00    +0.000 A 
ATOM     15  C   UNL     1      44.873   4.313  10.777  0.00  0.00    +0.000 A 
ATOM     16  N   UNL     1      45.404   5.189   9.888  0.00  0.00    +0.000 NA
ATOM     17  C   UNL     1      45.745   4.712   8.667  0.00  0.00    +0.000 A 
BRANCH  12  18
ATOM     18  C   UNL     1      46.098   2.919   6.935  0.00  0.00    +0.000 C 
BRANCH  18  19
ATOM     19  N   UNL     1      46.895   3.934   6.256  0.00  0.00    +0.000 NA
ATOM     20  H   UNL     1      46.442   4.178   5.377  0.00  0.00    +0.000 HD
ATOM     21  H   UNL     1      47.800   3.537   6.009  0.00  0.00    +0.000 HD
ENDBRANCH  18  19
ENDBRANCH  12  18
ENDBRANCH   1  15
TORSDOF 4
ENDMDL
MODEL 6
REMARK VINA RESULT:    -5.562      2.454      3.830
REMARK INTER + INTRA:          -7.117
REMARK INTER:                  -6.665
REMARK INTRA:                  -0.452
REMARK UNBOUND:                -0.416
REMARK  Name = 
REMARK  4 active torsions:
REMARK  status: ('A' for Active; 'I' for Inactive)
REMARK    1  A    between atoms: N_1  and  C_2
REMARK    2  A    between atoms: C_2  and  C_3
REMARK    3  A    between atoms: C_6  and  C_7
REMARK    4  A    between atoms: C_7  and  N_8
REMARK                            x       y       z     vdW  Elec       q    Type
REMARK                         _______ _______ _______ _____ _____    ______ ____
ROOT
ATOM      1  C   UNL     1      45.252   6.107  12.780  0.00  0.00    +0.000 C 
ENDROOT
BRANCH   1   2
ATOM      2  N   UNL     1      46.592   6.265  13.308  0.00  0.00    +0.000 N 
ATOM      3  C   UNL     1      47.156   5.468  14.267  0.00  0.00    +0.000 A 
ATOM      4  N   UNL     1      48.403   5.803  14.506  0.00  0.00    +0.000 NA
ATOM      5  C   UNL     1      48.652   6.874  13.684  0.00  0.00    +0.000 A 
ATOM      6  C   UNL     1      49.836   7.601  13.517  0.00  0.00    +0.000 A 
ATOM      7  C   UNL     1      49.834   8.673  12.618  0.00  0.00    +0.000 A 
ATOM      8 CL   UNL     1      51.288   9.558  12.350  0.00  0.00    +0.000 Cl
ATOM      9  C   UNL     1      48.679   9.039  11.924  0.00  0.00    +0.000 A 
ATOM     10  C   UNL     1      47.488   8.315  12.078  0.00  0.00    +0.000 A 
ATOM     11  C   UNL     1      47.517   7.220  12.952  0.00  0.00    +0.000 A 
ENDBRANCH   1   2
BRANCH   1  15
ATOM     12  C   UNL     1      45.014   3.318   9.553  0.00  0.00    +0.000 A 
ATOM     13  C   UNL     1      45.356   4.644   9.281  0.00  0.00    +0.000 A 
ATOM     14  C   UNL     1      45.472   5.564  10.322  0.00  0.00    +0.000 A 
ATOM     15  C   UNL     1      45.219   5.138  11.626  0.00  0.00    +0.000 A 
ATOM     16  N   UNL     1      44.915   3.849  11.919  0.00  0.00    +0.000 NA
ATOM     17  C   UNL     1      44.825   2.977  10.886  0.00  0.00    +0.000 A 
BRANCH  12  18
ATOM     18  C   UNL     1      44.792   2.313   8.459  0.00  0.00    +0.000 C 
BRANCH  18  19
ATOM     19  N   UNL     1      45.638   1.135   8.610  0.00  0.00    +0.000 NA
ATOM     20  H   UNL     1      46.494   1.401   9.094  0.00  0.00    +0.000 HD
ATOM     21  H   UNL     1      45.924   0.808   7.688  0.00  0.00    +0.000 HD
ENDBRANCH  18  19
ENDBRANCH  12  18
ENDBRANCH   1  15
TORSDOF 4
ENDMDL
MODEL 7
REMARK VINA RESULT:    -5.513      3.573      6.425
REMARK INTER + INTRA:          -7.058
REMARK INTER:                  -6.613
REMARK INTRA:                  -0.444
REMARK UNBOUND:                -0.416
REMARK  Name = 
REMARK  4 active torsions:
REMARK  status: ('A' for Active; 'I' for Inactive)
REMARK    1  A    between atoms: N_1  and  C_2
REMARK    2  A    between atoms: C_2  and  C_3
REMARK    3  A    between atoms: C_6  and  C_7
REMARK    4  A    between atoms: C_7  and  N_8
REMARK                            x       y       z     vdW  Elec       q    Type
REMARK                         _______ _______ _______ _____ _____    ______ ____
ROOT
ATOM      1  C   UNL     1      45.558   7.562  11.881  0.00  0.00    +0.000 C 
ENDROOT
BRANCH   1   2
ATOM      2  N   UNL     1      45.272   6.151  12.045  0.00  0.00    +0.000 N 
ATOM      3  C   UNL     1      44.971   5.546  13.236  0.00  0.00    +0.000 A 
ATOM      4  N   UNL     1      44.695   4.272  13.077  0.00  0.00    +0.000 NA
ATOM      5  C   UNL     1      44.844   4.036  11.733  0.00  0.00    +0.000 A 
ATOM      6  C   UNL     1      44.643   2.849  11.017  0.00  0.00    +0.000 A 
ATOM      7  C   UNL     1      44.878   2.860   9.638  0.00  0.00    +0.000 A 
ATOM      8 CL   UNL     1      44.592   1.431   8.720  0.00  0.00    +0.000 Cl
ATOM      9  C   UNL     1      45.331   4.007   8.986  0.00  0.00    +0.000 A 
ATOM     10  C   UNL     1      45.530   5.203   9.689  0.00  0.00    +0.000 A 
ATOM     11  C   UNL     1      45.254   5.188  11.063  0.00  0.00    +0.000 A 
ENDBRANCH   1   2
BRANCH   1  15
ATOM     12  C   UNL     1      49.325   8.539  13.643  0.00  0.00    +0.000 A 
ATOM     13  C   UNL     1      49.300   7.820  12.446  0.00  0.00    +0.000 A 
ATOM     14  C   UNL     1      48.083   7.518  11.836  0.00  0.00    +0.000 A 
ATOM     15  C   UNL     1      46.902   7.929  12.454  0.00  0.00    +0.000 A 
ATOM     16  N   UNL     1      46.901   8.655  13.600  0.00  0.00    +0.000 NA
ATOM     17  C   UNL     1      48.100   8.944  14.159  0.00  0.00    +0.000 A 
BRANCH  12  18
ATOM     18  C   UNL     1      50.604   8.813  14.382  0.00  0.00    +0.000 C 
BRANCH  18  19
ATOM     19  N   UNL     1      51.404   7.608  14.566  0.00  0.00    +0.000 NA
ATOM     20  H   UNL     1      50.820   6.792  14.393  0.00  0.00    +0.000 HD
ATOM     21  H   UNL     1      51.695   7.547  15.541  0.00  0.00    +0.000 HD
ENDBRANCH  18  19
ENDBRANCH  12  18
ENDBRANCH   1  15
TORSDOF 4
ENDMDL
MODEL 8
REMARK VINA RESULT:    -5.488      4.411      6.995
REMARK INTER + INTRA:          -7.027
REMARK INTER:                  -6.878
REMARK INTRA:                  -0.148
REMARK UNBOUND:                -0.416
REMARK  Name = 
REMARK  4 active torsions:
REMARK  status: ('A' for Active; 'I' for Inactive)
REMARK    1  A    between atoms: N_1  and  C_2
REMARK    2  A    between atoms: C_2  and  C_3
REMARK    3  A    between atoms: C_6  and  C_7
REMARK    4  A    between atoms: C_7  and  N_8
REMARK                            x       y       z     vdW  Elec       q    Type
REMARK                         _______ _______ _______ _____ _____    ______ ____
ROOT
ATOM      1  C   UNL     1      46.940   3.595  13.592  0.00  0.00    +0.000 C 
ENDROOT
BRANCH   1   2
ATOM      2  N   UNL     1      46.111   4.733  13.247  0.00  0.00    +0.000 N 
ATOM      3  C   UNL     1      44.742   4.734  13.250  0.00  0.00    +0.000 A 
ATOM      4  N   UNL     1      44.257   5.919  12.959  0.00  0.00    +0.000 NA
ATOM      5  C   UNL     1      45.355   6.713  12.737  0.00  0.00    +0.000 A 
ATOM      6  C   UNL     1      45.410   8.076  12.421  0.00  0.00    +0.000 A 
ATOM      7  C   UNL     1      46.666   8.661  12.228  0.00  0.00    +0.000 A 
ATOM      8 CL   UNL     1      46.771  10.346  11.887  0.00  0.00    +0.000 Cl
ATOM      9  C   UNL     1      47.839   7.911  12.312  0.00  0.00    +0.000 A 
ATOM     10  C   UNL     1      47.799   6.547  12.635  0.00  0.00    +0.000 A 
ATOM     11  C   UNL     1      46.536   5.983  12.864  0.00  0.00    +0.000 A 
ENDBRANCH   1   2
BRANCH   1  15
ATOM     12  C   UNL     1      48.416   3.746  17.598  0.00  0.00    +0.000 A 
ATOM     13  C   UNL     1      47.707   4.838  17.093  0.00  0.00    +0.000 A 
ATOM     14  C   UNL     1      47.188   4.797  15.800  0.00  0.00    +0.000 A 
ATOM     15  C   UNL     1      47.410   3.661  15.022  0.00  0.00    +0.000 A 
ATOM     16  N   UNL     1      48.069   2.576  15.500  0.00  0.00    +0.000 NA
ATOM     17  C   UNL     1      48.547   2.641  16.765  0.00  0.00    +0.000 A 
BRANCH  12  18
ATOM     18  C   UNL     1      49.068   3.776  18.951  0.00  0.00    +0.000 C 
BRANCH  18  19
ATOM     19  N   UNL     1      48.309   3.031  19.947  0.00  0.00    +0.000 NA
ATOM     20  H   UNL     1      47.830   2.258  19.489  0.00  0.00    +0.000 HD
ATOM     21  H   UNL     1      47.579   3.631  20.328  0.00  0.00    +0.000 HD
ENDBRANCH  18  19
ENDBRANCH  12  18
ENDBRANCH   1  15
TORSDOF 4
ENDMDL
MODEL 9
REMARK VINA RESULT:    -5.334      3.674      5.511
REMARK INTER + INTRA:          -6.842
REMARK INTER:                  -6.426
REMARK INTRA:                  -0.416
REMARK UNBOUND:                -0.416
REMARK  Name = 
REMARK  4 active torsions:
REMARK  status: ('A' for Active; 'I' for Inactive)
REMARK    1  A    between atoms: N_1  and  C_2
REMARK    2  A    between atoms: C_2  and  C_3
REMARK    3  A    between atoms: C_6  and  C_7
REMARK    4  A    between atoms: C_7  and  N_8
REMARK                            x       y       z     vdW  Elec       q    Type
REMARK                         _______ _______ _______ _____ _____    ______ ____
ROOT
ATOM      1  C   UNL     1      46.062   7.791  13.109  0.00  0.00    +0.000 C 
ENDROOT
BRANCH   1   2
ATOM      2  N   UNL     1      47.498   7.723  13.290  0.00  0.00    +0.000 N 
ATOM      3  C   UNL     1      48.142   6.845  14.120  0.00  0.00    +0.000 A 
ATOM      4  N   UNL     1      49.447   6.965  14.036  0.00  0.00    +0.000 NA
ATOM      5  C   UNL     1      49.658   7.975  13.131  0.00  0.00    +0.000 A 
ATOM      6  C   UNL     1      50.867   8.491  12.649  0.00  0.00    +0.000 A 
ATOM      7  C   UNL     1      50.819   9.544  11.729  0.00  0.00    +0.000 A 
ATOM      8 CL   UNL     1      52.287  10.168  11.079  0.00  0.00    +0.000 Cl
ATOM      9  C   UNL     1      49.605  10.097  11.319  0.00  0.00    +0.000 A 
ATOM     10  C   UNL     1      48.387   9.585  11.789  0.00  0.00    +0.000 A 
ATOM     11  C   UNL     1      48.450   8.505  12.679  0.00  0.00    +0.000 A 
ENDBRANCH   1   2
BRANCH   1  15
ATOM     12  C   UNL     1      44.382   4.286  11.337  0.00  0.00    +0.000 A 
ATOM     13  C   UNL     1      45.282   5.057  10.598  0.00  0.00    +0.000 A 
ATOM     14  C   UNL     1      45.867   6.187  11.167  0.00  0.00    +0.000 A 
ATOM     15  C   UNL     1      45.520   6.537  12.472  0.00  0.00    +0.000 A 
ATOM     16  N   UNL     1      44.674   5.788  13.221  0.00  0.00    +0.000 NA
ATOM     17  C   UNL     1      44.134   4.688  12.643  0.00  0.00    +0.000 A 
BRANCH  12  18
ATOM     18  C   UNL     1      43.661   3.112  10.739  0.00  0.00    +0.000 C 
BRANCH  18  19
ATOM     19  N   UNL     1      43.091   2.236  11.756  0.00  0.00    +0.000 NA
ATOM     20  H   UNL     1      42.082   2.187  11.624  0.00  0.00    +0.000 HD
ATOM     21  H   UNL     1      43.236   2.653  12.675  0.00  0.00    +0.000 HD
ENDBRANCH  18  19
ENDBRANCH  12  18
ENDBRANCH   1  15
TORSDOF 4
ENDMDL
