MODEL 1
REMARK VINA RESULT:    -7.752      0.000      0.000
REMARK INTER + INTRA:          -8.775
REMARK INTER:                  -9.112
REMARK INTRA:                   0.337
REMARK UNBOUND:                 0.337
REMARK  Name = 
REMARK  3 active torsions:
REMARK  status: ('A' for Active; 'I' for Inactive)
REMARK    1  A    between atoms: C_2  and  C_4
REMARK    2  A    between atoms: N_8  and  C_9
REMARK    3  A    between atoms: C_9  and  C_10
REMARK                            x       y       z     vdW  Elec       q    Type
REMARK                         _______ _______ _______ _____ _____    ______ ____
ROOT
ATOM      1  C   UNL     1      46.334   2.134   7.891  0.00  0.00    +0.000 A 
ATOM      2  C   UNL     1      46.436   3.439   7.422  0.00  0.00    +0.000 A 
ATOM      3  C   UNL     1      45.715   4.447   8.066  0.00  0.00    +0.000 A 
ATOM      4  C   UNL     1      44.924   4.142   9.175  0.00  0.00    +0.000 A 
ATOM      5  N   UNL     1      44.342   5.226   9.864  0.00  0.00    +0.000 N 
ATOM      6  N   UNL     1      44.791   2.872   9.613  0.00  0.00    +0.000 NA
ATOM      7  C   UNL     1      45.480   1.898   8.959  0.00  0.00    +0.000 A 
ATOM      8  H   UNL     1      43.777   5.795   9.235  0.00  0.00    +0.000 HD
ENDROOT
BRANCH   1  10
ATOM      9  N   UNL     1      46.722  -0.254   7.689  0.00  0.00    +0.000 N 
ATOM     10  C   UNL     1      47.088   1.009   7.309  0.00  0.00    +0.000 C 
ATOM     11  O   UNL     1      47.974   1.189   6.485  0.00  0.00    +0.000 OA
ATOM     12  H   UNL     1      47.165  -1.017   7.193  0.00  0.00    +0.000 HD
ATOM     13  H   UNL     1      45.840  -0.449   8.144  0.00  0.00    +0.000 HD
ENDBRANCH   1  10
BRANCH   5  14
ATOM     14  C   UNL     1      43.905   5.148  11.279  0.00  0.00    +0.000 C 
ATOM     15  C   UNL     1      42.956   3.989  11.557  0.00  0.00    +0.000 C 
ATOM     16  C   UNL     1      42.462   5.392  11.685  0.00  0.00    +0.000 C 
BRANCH  14  17
ATOM     17  C   UNL     1      44.953   5.450  12.357  0.00  0.00    +0.000 C 
ATOM     18  C   UNL     1      44.879   6.869  12.876  0.00  0.00    +0.000 C 
ATOM     19  C   UNL     1      45.808   7.634  11.957  0.00  0.00    +0.000 C 
ATOM     20  O   UNL     1      46.736   6.693  11.392  0.00  0.00    +0.000 OA
ATOM     21  C   UNL     1      46.385   5.377  11.851  0.00  0.00    +0.000 C 
ENDBRANCH  14  17
ENDBRANCH   5  14
TORSDOF 3
ENDMDL
MODEL 2
REMARK VINA RESULT:    -7.467      1.420      2.498
REMARK INTER + INTRA:          -8.440
REMARK INTER:                  -8.220
REMARK INTRA:                  -0.220
REMARK UNBOUND:                 0.337
REMARK  Name = 
REMARK  3 active torsions:
REMARK  status: ('A' for Active; 'I' for Inactive)
REMARK    1  A    between atoms: C_2  and  C_4
REMARK    2  A    between atoms: N_8  and  C_9
REMARK    3  A    between atoms: C_9  and  C_10
REMARK                            x       y       z     vdW  Elec       q    Type
REMARK                         _______ _______ _______ _____ _____    ______ ____
ROOT
ATOM      1  C   UNL     1      46.477   2.289   7.874  0.00  0.00    +0.000 A 
ATOM      2  C   UNL     1      46.459   3.535   7.257  0.00  0.00    +0.000 A 
ATOM      3  C   UNL     1      45.957   4.631   7.962  0.00  0.00    +0.000 A 
ATOM      4  C   UNL     1      45.502   4.472   9.273  0.00  0.00    +0.000 A 
ATOM      5  N   UNL     1      45.148   5.643   9.974  0.00  0.00    +0.000 N 
ATOM      6  N   UNL     1      45.483   3.259   9.864  0.00  0.00    +0.000 NA
ATOM      7  C   UNL     1      45.950   2.197   9.155  0.00  0.00    +0.000 A 
ATOM      8  H   UNL     1      44.437   6.168   9.467  0.00  0.00    +0.000 HD
ENDROOT
BRANCH   1  10
ATOM      9  N   UNL     1      46.621  -0.130   7.725  0.00  0.00    +0.000 N 
ATOM     10  C   UNL     1      47.026   1.081   7.232  0.00  0.00    +0.000 C 
ATOM     11  O   UNL     1      47.775   1.152   6.268  0.00  0.00    +0.000 OA
ATOM     12  H   UNL     1      46.910  -0.946   7.200  0.00  0.00    +0.000 HD
ATOM     13  H   UNL     1      45.813  -0.228   8.325  0.00  0.00    +0.000 HD
ENDBRANCH   1  10
BRANCH   5  14
ATOM     14  C   UNL     1      45.122   5.725  11.455  0.00  0.00    +0.000 C 
ATOM     15  C   UNL     1      45.983   6.853  12.013  0.00  0.00    +0.000 C 
ATOM     16  C   UNL     1      46.355   5.434  12.292  0.00  0.00    +0.000 C 
BRANCH  14  17
ATOM     17  C   UNL     1      43.779   5.479  12.151  0.00  0.00    +0.000 C 
ATOM     18  C   UNL     1      43.836   4.367  13.175  0.00  0.00    +0.000 C 
ATOM     19  C   UNL     1      43.490   3.127  12.376  0.00  0.00    +0.000 C 
ATOM     20  O   UNL     1      42.753   3.547  11.215  0.00  0.00    +0.000 OA
ATOM     21  C   UNL     1      42.690   4.983  11.213  0.00  0.00    +0.000 C 
ENDBRANCH  14  17
ENDBRANCH   5  14
TORSDOF 3
ENDMDL
MODEL 3
REMARK VINA RESULT:    -7.092      1.614      1.998
REMARK INTER + INTRA:          -7.999
REMARK INTER:                  -7.355
REMARK INTRA:                  -0.644
REMARK UNBOUND:                 0.337
REMARK  Name = 
REMARK  3 active torsions:
REMARK  status: ('A' for Active; 'I' for Inactive)
REMARK    1  A    between atoms: C_2  and  C_4
REMARK    2  A    between atoms: N_8  and  C_9
REMARK    3  A    between atoms: C_9  and  C_10
REMARK                            x       y       z     vdW  Elec       q    Type
REMARK                         _______ _______ _______ _____ _____    ______ ____
ROOT
ATOM      1  C   UNL     1      46.028   3.045   7.838  0.00  0.00    +0.000 A 
ATOM      2  C   UNL     1      45.406   2.044   8.575  0.00  0.00    +0.000 A 
ATOM      3  C   UNL     1      44.871   2.358   9.826  0.00  0.00    +0.000 A 
ATOM      4  C   UNL     1      44.946   3.666  10.310  0.00  0.00    +0.000 A 
ATOM      5  N   UNL     1      44.258   3.945  11.509  0.00  0.00    +0.000 N 
ATOM      6  N   UNL     1      45.580   4.635   9.616  0.00  0.00    +0.000 NA
ATOM      7  C   UNL     1      46.119   4.305   8.411  0.00  0.00    +0.000 A 
ATOM      8  H   UNL     1      44.567   3.326  12.257  0.00  0.00    +0.000 HD
ENDROOT
BRANCH   1  10
ATOM      9  N   UNL     1      46.848   3.933   5.731  0.00  0.00    +0.000 N 
ATOM     10  C   UNL     1      46.584   2.825   6.490  0.00  0.00    +0.000 C 
ATOM     11  O   UNL     1      46.845   1.702   6.080  0.00  0.00    +0.000 OA
ATOM     12  H   UNL     1      47.339   3.773   4.861  0.00  0.00    +0.000 HD
ATOM     13  H   UNL     1      46.901   4.861   6.129  0.00  0.00    +0.000 HD
ENDBRANCH   1  10
BRANCH   5  14
ATOM     14  C   UNL     1      43.824   5.309  11.897  0.00  0.00    +0.000 C 
ATOM     15  C   UNL     1      42.309   5.468  11.957  0.00  0.00    +0.000 C 
ATOM     16  C   UNL     1      43.089   6.219  10.928  0.00  0.00    +0.000 C 
BRANCH  14  17
ATOM     17  C   UNL     1      44.632   6.022  12.987  0.00  0.00    +0.000 C 
ATOM     18  C   UNL     1      45.393   7.224  12.472  0.00  0.00    +0.000 C 
ATOM     19  C   UNL     1      46.730   6.648  12.054  0.00  0.00    +0.000 C 
ATOM     20  O   UNL     1      46.926   5.424  12.782  0.00  0.00    +0.000 OA
ATOM     21  C   UNL     1      45.750   5.172  13.570  0.00  0.00    +0.000 C 
ENDBRANCH  14  17
ENDBRANCH   5  14
TORSDOF 3
ENDMDL
MODEL 4
REMARK VINA RESULT:    -6.126      3.188      6.025
REMARK INTER + INTRA:          -6.864
REMARK INTER:                  -6.978
REMARK INTRA:                   0.114
REMARK UNBOUND:                 0.337
REMARK  Name = 
REMARK  3 active torsions:
REMARK  status: ('A' for Active; 'I' for Inactive)
REMARK    1  A    between atoms: C_2  and  C_4
REMARK    2  A    between atoms: N_8  and  C_9
REMARK    3  A    between atoms: C_9  and  C_10
REMARK                            x       y       z     vdW  Elec       q    Type
REMARK                         _______ _______ _______ _____ _____    ______ ____
ROOT
ATOM      1  C   UNL     1      47.418   4.899  14.759  0.00  0.00    +0.000 A 
ATOM      2  C   UNL     1      47.450   6.021  13.939  0.00  0.00    +0.000 A 
ATOM      3  C   UNL     1      46.800   5.974  12.704  0.00  0.00    +0.000 A 
ATOM      4  C   UNL     1      46.113   4.821  12.318  0.00  0.00    +0.000 A 
ATOM      5  N   UNL     1      45.358   4.893  11.129  0.00  0.00    +0.000 N 
ATOM      6  N   UNL     1      46.109   3.716  13.093  0.00  0.00    +0.000 NA
ATOM      7  C   UNL     1      46.770   3.769  14.281  0.00  0.00    +0.000 A 
ATOM      8  H   UNL     1      45.943   5.176  10.344  0.00  0.00    +0.000 HD
ENDROOT
BRANCH   1  10
ATOM      9  N   UNL     1      47.873   5.964  16.893  0.00  0.00    +0.000 N 
ATOM     10  C   UNL     1      48.036   4.862  16.097  0.00  0.00    +0.000 C 
ATOM     11  O   UNL     1      48.629   3.872  16.503  0.00  0.00    +0.000 OA
ATOM     12  H   UNL     1      48.197   5.878  17.848  0.00  0.00    +0.000 HD
ATOM     13  H   UNL     1      47.176   6.671  16.703  0.00  0.00    +0.000 HD
ENDBRANCH   1  10
BRANCH   5  14
ATOM     14  C   UNL     1      44.222   3.987  10.833  0.00  0.00    +0.000 C 
ATOM     15  C   UNL     1      42.950   4.343  11.594  0.00  0.00    +0.000 C 
ATOM     16  C   UNL     1      43.648   3.056  11.887  0.00  0.00    +0.000 C 
BRANCH  14  17
ATOM     17  C   UNL     1      44.046   3.528   9.382  0.00  0.00    +0.000 C 
ATOM     18  C   UNL     1      44.442   2.085   9.163  0.00  0.00    +0.000 C 
ATOM     19  C   UNL     1      45.913   2.167   8.812  0.00  0.00    +0.000 C 
ATOM     20  O   UNL     1      46.169   3.489   8.308  0.00  0.00    +0.000 OA
ATOM     21  C   UNL     1      44.954   4.252   8.401  0.00  0.00    +0.000 C 
ENDBRANCH  14  17
ENDBRANCH   5  14
TORSDOF 3
ENDMDL
MODEL 5
REMARK VINA RESULT:    -5.919      2.432      4.065
REMARK INTER + INTRA:          -6.620
REMARK INTER:                  -6.017
REMARK INTRA:                  -0.604
REMARK UNBOUND:                 0.337
REMARK  Name = 
REMARK  3 active torsions:
REMARK  status: ('A' for Active; 'I' for Inactive)
REMARK    1  A    between atoms: C_2  and  C_4
REMARK    2  A    between atoms: N_8  and  C_9
REMARK    3  A    between atoms: C_9  and  C_10
REMARK                            x       y       z     vdW  Elec       q    Type
REMARK                         _______ _______ _______ _____ _____    ______ ____
ROOT
ATOM      1  C   UNL     1      44.874   3.934  10.148  0.00  0.00    +0.000 A 
ATOM      2  C   UNL     1      44.368   3.779  11.434  0.00  0.00    +0.000 A 
ATOM      3  C   UNL     1      44.732   4.699  12.419  0.00  0.00    +0.000 A 
ATOM      4  C   UNL     1      45.574   5.767  12.101  0.00  0.00    +0.000 A 
ATOM      5  N   UNL     1      45.782   6.738  13.103  0.00  0.00    +0.000 N 
ATOM      6  N   UNL     1      46.098   5.903  10.865  0.00  0.00    +0.000 NA
ATOM      7  C   UNL     1      45.754   4.983   9.924  0.00  0.00    +0.000 A 
ATOM      8  H   UNL     1      46.141   6.310  13.955  0.00  0.00    +0.000 HD
ENDROOT
BRANCH   1  10
ATOM      9  N   UNL     1      44.271   3.626   7.816  0.00  0.00    +0.000 N 
ATOM     10  C   UNL     1      44.516   3.042   9.029  0.00  0.00    +0.000 C 
ATOM     11  O   UNL     1      44.484   1.827   9.163  0.00  0.00    +0.000 OA
ATOM     12  H   UNL     1      44.146   2.996   7.033  0.00  0.00    +0.000 HD
ATOM     13  H   UNL     1      44.549   4.575   7.606  0.00  0.00    +0.000 HD
ENDBRANCH   1  10
BRANCH   5  14
ATOM     14  C   UNL     1      46.213   8.126  12.810  0.00  0.00    +0.000 C 
ATOM     15  C   UNL     1      45.099   9.154  12.971  0.00  0.00    +0.000 C 
ATOM     16  C   UNL     1      45.673   8.896  11.617  0.00  0.00    +0.000 C 
BRANCH  14  17
ATOM     17  C   UNL     1      47.607   8.546  13.290  0.00  0.00    +0.000 C 
ATOM     18  C   UNL     1      48.624   8.614  12.172  0.00  0.00    +0.000 C 
ATOM     19  C   UNL     1      49.210   7.218  12.138  0.00  0.00    +0.000 C 
ATOM     20  O   UNL     1      49.002   6.624  13.430  0.00  0.00    +0.000 OA
ATOM     21  C   UNL     1      48.251   7.547  14.237  0.00  0.00    +0.000 C 
ENDBRANCH  14  17
ENDBRANCH   5  14
TORSDOF 3
ENDMDL
MODEL 6
REMARK VINA RESULT:    -5.892      3.274      6.461
REMARK INTER + INTRA:          -6.588
REMARK INTER:                  -6.173
REMARK INTRA:                  -0.416
REMARK UNBOUND:                 0.337
REMARK  Name = 
REMARK  3 active torsions:
REMARK  status: ('A' for Active; 'I' for Inactive)
REMARK    1  A    between atoms: C_2  and  C_4
REMARK    2  A    between atoms: N_8  and  C_9
REMARK    3  A    between atoms: C_9  and  C_10
REMARK                            x       y       z     vdW  Elec       q    Type
REMARK                         _______ _______ _______ _____ _____    ______ ____
ROOT
ATOM      1  C   UNL     1      47.438   7.859  13.746  0.00  0.00    +0.000 A 
ATOM      2  C   UNL     1      48.122   6.653  13.845  0.00  0.00    +0.000 A 
ATOM      3  C   UNL     1      47.569   5.513  13.259  0.00  0.00    +0.000 A 
ATOM      4  C   UNL     1      46.358   5.598  12.568  0.00  0.00    +0.000 A 
ATOM      5  N   UNL     1      45.932   4.444  11.878  0.00  0.00    +0.000 N 
ATOM      6  N   UNL     1      45.672   6.758  12.499  0.00  0.00    +0.000 NA
ATOM      7  C   UNL     1      46.212   7.854  13.098  0.00  0.00    +0.000 A 
ATOM      8  H   UNL     1      45.867   3.647  12.509  0.00  0.00    +0.000 HD
ENDROOT
BRANCH   1  10
ATOM      9  N   UNL     1      47.677   9.408  15.601  0.00  0.00    +0.000 N 
ATOM     10  C   UNL     1      47.959   9.127  14.292  0.00  0.00    +0.000 C 
ATOM     11  O   UNL     1      48.654   9.876  13.620  0.00  0.00    +0.000 OA
ATOM     12  H   UNL     1      48.139  10.218  15.994  0.00  0.00    +0.000 HD
ATOM     13  H   UNL     1      47.348   8.704  16.248  0.00  0.00    +0.000 HD
ENDBRANCH   1  10
BRANCH   5  14
ATOM     14  C   UNL     1      44.984   4.484  10.738  0.00  0.00    +0.000 C 
ATOM     15  C   UNL     1      45.599   4.025   9.422  0.00  0.00    +0.000 C 
ATOM     16  C   UNL     1      45.170   5.446   9.578  0.00  0.00    +0.000 C 
BRANCH  14  17
ATOM     17  C   UNL     1      43.539   4.050  11.009  0.00  0.00    +0.000 C 
ATOM     18  C   UNL     1      42.702   5.136  11.647  0.00  0.00    +0.000 C 
ATOM     19  C   UNL     1      42.899   4.912  13.132  0.00  0.00    +0.000 C 
ATOM     20  O   UNL     1      43.292   3.542  13.319  0.00  0.00    +0.000 OA
ATOM     21  C   UNL     1      43.422   2.927  12.027  0.00  0.00    +0.000 C 
ENDBRANCH  14  17
ENDBRANCH   5  14
TORSDOF 3
ENDMDL
MODEL 7
REMARK VINA RESULT:    -5.758      4.058      6.107
REMARK INTER + INTRA:          -6.432
REMARK INTER:                  -5.789
REMARK INTRA:                  -0.643
REMARK UNBOUND:                 0.337
REMARK  Name = 
REMARK  3 active torsions:
REMARK  status: ('A' for Active; 'I' for Inactive)
REMARK    1  A    between atoms: C_2  and  C_4
REMARK    2  A    between atoms: N_8  and  C_9
REMARK    3  A    between atoms: C_9  and  C_10
REMARK                            x       y       z     vdW  Elec       q    Type
REMARK                         _______ _______ _______ _____ _____    ______ ____
ROOT
ATOM      1  C   UNL     1      45.203   4.953  12.706  0.00  0.00    +0.000 A 
ATOM      2  C   UNL     1      44.556   6.171  12.533  0.00  0.00    +0.000 A 
ATOM      3  C   UNL     1      45.285   7.352  12.692  0.00  0.00    +0.000 A 
ATOM      4  C   UNL     1      46.646   7.298  12.999  0.00  0.00    +0.000 A 
ATOM      5  N   UNL     1      47.351   8.520  13.000  0.00  0.00    +0.000 N 
ATOM      6  N   UNL     1      47.272   6.120  13.205  0.00  0.00    +0.000 NA
ATOM      7  C   UNL     1      46.541   4.980  13.072  0.00  0.00    +0.000 A 
ATOM      8  H   UNL     1      46.921   9.186  13.639  0.00  0.00    +0.000 HD
ENDROOT
BRANCH   1  10
ATOM      9  N   UNL     1      44.991   2.853  11.505  0.00  0.00    +0.000 N 
ATOM     10  C   UNL     1      44.534   3.652  12.518  0.00  0.00    +0.000 C 
ATOM     11  O   UNL     1      43.638   3.279  13.262  0.00  0.00    +0.000 OA
ATOM     12  H   UNL     1      44.605   1.918  11.464  0.00  0.00    +0.000 HD
ATOM     13  H   UNL     1      45.884   3.004  11.057  0.00  0.00    +0.000 HD
ENDBRANCH   1  10
BRANCH   5  14
ATOM     14  C   UNL     1      48.820   8.609  12.818  0.00  0.00    +0.000 C 
ATOM     15  C   UNL     1      49.229   9.298  11.521  0.00  0.00    +0.000 C 
ATOM     16  C   UNL     1      49.535   7.849  11.714  0.00  0.00    +0.000 C 
BRANCH  14  17
ATOM     17  C   UNL     1      49.666   8.922  14.057  0.00  0.00    +0.000 C 
ATOM     18  C   UNL     1      50.494   7.746  14.524  0.00  0.00    +0.000 C 
ATOM     19  C   UNL     1      49.582   7.032  15.500  0.00  0.00    +0.000 C 
ATOM     20  O   UNL     1      48.620   7.987  15.978  0.00  0.00    +0.000 OA
ATOM     21  C   UNL     1      48.839   9.232  15.295  0.00  0.00    +0.000 C 
ENDBRANCH  14  17
ENDBRANCH   5  14
TORSDOF 3
ENDMDL
MODEL 8
REMARK VINA RESULT:    -5.526      4.699      6.576
REMARK INTER + INTRA:          -6.159
REMARK INTER:                  -5.514
REMARK INTRA:                  -0.645
REMARK UNBOUND:                 0.337
REMARK  Name = 
REMARK  3 active torsions:
REMARK  status: ('A' for Active; 'I' for Inactive)
REMARK    1  A    between atoms: C_2  and  C_4
REMARK    2  A    between atoms: N_8  and  C_9
REMARK    3  A    between atoms: C_9  and  C_10
REMARK                            x       y       z     vdW  Elec       q    Type
REMARK                         _______ _______ _______ _____ _____    ______ ____
ROOT
ATOM      1  C   UNL     1      44.718   5.804  12.927  0.00  0.00    +0.000 A 
ATOM      2  C   UNL     1      45.585   4.800  13.344  0.00  0.00    +0.000 A 
ATOM      3  C   UNL     1      46.906   5.132  13.650  0.00  0.00    +0.000 A 
ATOM      4  C   UNL     1      47.333   6.459  13.557  0.00  0.00    +0.000 A 
ATOM      5  N   UNL     1      48.634   6.746  14.021  0.00  0.00    +0.000 N 
ATOM      6  N   UNL     1      46.507   7.432  13.118  0.00  0.00    +0.000 NA
ATOM      7  C   UNL     1      45.231   7.087  12.799  0.00  0.00    +0.000 A 
ATOM      8  H   UNL     1      49.325   6.169  13.544  0.00  0.00    +0.000 HD
ENDROOT
BRANCH   1  10
ATOM      9  N   UNL     1      42.747   6.271  11.587  0.00  0.00    +0.000 N 
ATOM     10  C   UNL     1      43.295   5.564  12.623  0.00  0.00    +0.000 C 
ATOM     11  O   UNL     1      42.640   4.734  13.238  0.00  0.00    +0.000 OA
ATOM     12  H   UNL     1      41.808   6.009  11.314  0.00  0.00    +0.000 HD
ATOM     13  H   UNL     1      43.312   6.750  10.899  0.00  0.00    +0.000 HD
ENDBRANCH   1  10
BRANCH   5  14
ATOM     14  C   UNL     1      49.062   8.100  14.448  0.00  0.00    +0.000 C 
ATOM     15  C   UNL     1      49.391   8.191  15.934  0.00  0.00    +0.000 C 
ATOM     16  C   UNL     1      48.221   8.943  15.391  0.00  0.00    +0.000 C 
BRANCH  14  17
ATOM     17  C   UNL     1      49.972   8.885  13.496  0.00  0.00    +0.000 C 
ATOM     18  C   UNL     1      49.292  10.089  12.883  0.00  0.00    +0.000 C 
ATOM     19  C   UNL     1      48.672   9.541  11.614  0.00  0.00    +0.000 C 
ATOM     20  O   UNL     1      49.398   8.355  11.249  0.00  0.00    +0.000 OA
ATOM     21  C   UNL     1      50.384   8.097  12.263  0.00  0.00    +0.000 C 
ENDBRANCH  14  17
ENDBRANCH   5  14
TORSDOF 3
ENDMDL
MODEL 9
REMARK VINA RESULT:    -5.275      5.634      7.556
REMARK INTER + INTRA:          -5.863
REMARK INTER:                  -5.386
REMARK INTRA:                  -0.478
REMARK UNBOUND:                 0.337
REMARK  Name = 
REMARK  3 active torsions:
REMARK  status: ('A' for Active; 'I' for Inactive)
REMARK    1  A    between atoms: C_2  and  C_4
REMARK    2  A    between atoms: N_8  and  C_9
REMARK    3  A    between atoms: C_9  and  C_10
REMARK                            x       y       z     vdW  Elec       q    Type
REMARK                         _______ _______ _______ _____ _____    ______ ____
ROOT
ATOM      1  C   UNL     1      47.218   5.953  13.048  0.00  0.00    +0.000 A 
ATOM      2  C   UNL     1      46.322   4.943  13.381  0.00  0.00    +0.000 A 
ATOM      3  C   UNL     1      46.428   4.331  14.631  0.00  0.00    +0.000 A 
ATOM      4  C   UNL     1      47.408   4.749  15.534  0.00  0.00    +0.000 A 
ATOM      5  N   UNL     1      47.365   4.192  16.829  0.00  0.00    +0.000 N 
ATOM      6  N   UNL     1      48.304   5.703  15.204  0.00  0.00    +0.000 NA
ATOM      7  C   UNL     1      48.203   6.270  13.972  0.00  0.00    +0.000 A 
ATOM      8  H   UNL     1      47.403   3.174  16.788  0.00  0.00    +0.000 HD
ENDROOT
BRANCH   1  10
ATOM      9  N   UNL     1      48.119   7.644  11.557  0.00  0.00    +0.000 N 
ATOM     10  C   UNL     1      47.162   6.690  11.772  0.00  0.00    +0.000 C 
ATOM     11  O   UNL     1      46.325   6.430  10.918  0.00  0.00    +0.000 OA
ATOM     12  H   UNL     1      48.141   8.056  10.632  0.00  0.00    +0.000 HD
ATOM     13  H   UNL     1      48.967   7.695  12.106  0.00  0.00    +0.000 HD
ENDBRANCH   1  10
BRANCH   5  14
ATOM     14  C   UNL     1      47.974   4.844  18.014  0.00  0.00    +0.000 C 
ATOM     15  C   UNL     1      46.951   5.482  18.946  0.00  0.00    +0.000 C 
ATOM     16  C   UNL     1      47.921   6.349  18.212  0.00  0.00    +0.000 C 
BRANCH  14  17
ATOM     17  C   UNL     1      49.158   4.133  18.678  0.00  0.00    +0.000 C 
ATOM     18  C   UNL     1      50.426   4.956  18.670  0.00  0.00    +0.000 C 
ATOM     19  C   UNL     1      51.099   4.562  17.372  0.00  0.00    +0.000 C 
ATOM     20  O   UNL     1      50.600   3.268  16.996  0.00  0.00    +0.000 OA
ATOM     21  C   UNL     1      49.599   2.874  17.949  0.00  0.00    +0.000 C 
ENDBRANCH  14  17
ENDBRANCH   5  14
TORSDOF 3
ENDMDL
