MODEL 1
REMARK VINA RESULT:    -7.965      0.000      0.000
REMARK INTER + INTRA:         -11.713
REMARK INTER:                 -10.758
REMARK INTRA:                  -0.955
REMARK UNBOUND:                -0.955
REMARK  Name = 
REMARK  6 active torsions:
REMARK  status: ('A' for Active; 'I' for Inactive)
REMARK    1  A    between atoms: C_2  and  C_19
REMARK    2  A    between atoms: N_3  and  C_4
REMARK    3  A    between atoms: C_4  and  C_5
REMARK    4  A    between atoms: C_8  and  C_9
REMARK    5  A    between atoms: C_9  and  N_10
REMARK    6  A    between atoms: N_10  and  C_11
REMARK                            x       y       z     vdW  Elec       q    Type
REMARK                         _______ _______ _______ _____ _____    ______ ____
ROOT
ATOM      1  C   UNL     1      46.945   8.458  12.960  0.00  0.00    +0.000 C 
ENDROOT
BRANCH   1   2
ATOM      2  C   UNL     1      46.147   7.316  12.365  0.00  0.00    +0.000 A 
ATOM      3  C   UNL     1      44.878   7.023  12.852  0.00  0.00    +0.000 A 
ATOM      4  C   UNL     1      44.145   5.996  12.258  0.00  0.00    +0.000 A 
ATOM      5  C   UNL     1      44.682   5.293  11.175  0.00  0.00    +0.000 A 
ATOM      6  C   UNL     1      45.951   5.663  10.748  0.00  0.00    +0.000 A 
ATOM      7  N   UNL     1      46.682   6.663  11.299  0.00  0.00    +0.000 NA
BRANCH   5   8
ATOM      8  C   UNL     1      43.927   4.184  10.498  0.00  0.00    +0.000 C 
BRANCH   8   9
ATOM      9  N   UNL     1      44.132   4.248   9.054  0.00  0.00    +0.000 N 
ATOM     10  H   UNL     1      44.261   5.203   8.726  0.00  0.00    +0.000 HD
BRANCH   9  11
ATOM     11  C   UNL     1      45.047   3.362   8.475  0.00  0.00    +0.000 A 
ATOM     12  C   UNL     1      46.056   3.712   7.589  0.00  0.00    +0.000 A 
ATOM     13  N   UNL     1      46.980   2.863   7.083  0.00  0.00    +0.000 NA
ATOM     14  C   UNL     1      46.902   1.599   7.519  0.00  0.00    +0.000 A 
ATOM     15  N   UNL     1      46.014   1.130   8.405  0.00  0.00    +0.000 NA
ATOM     16  C   UNL     1      45.123   2.034   8.871  0.00  0.00    +0.000 A 
ENDBRANCH   9  11
ENDBRANCH   8   9
ENDBRANCH   5   8
ENDBRANCH   1   2
BRANCH   1  19
ATOM     17  O   UNL     1      49.149   6.697  13.491  0.00  0.00    +0.000 OA
ATOM     18  C   UNL     1      48.457   7.136  14.404  0.00  0.00    +0.000 C 
ATOM     19  N   UNL     1      47.465   8.074  14.244  0.00  0.00    +0.000 N 
ATOM     20  H   UNL     1      46.808   8.200  15.001  0.00  0.00    +0.000 HD
BRANCH  18  21
ATOM     21  C   UNL     1      48.453   6.567  15.747  0.00  0.00    +0.000 A 
ATOM     22  C   UNL     1      48.936   7.245  16.854  0.00  0.00    +0.000 A 
ATOM     23  S   UNL     1      49.326   6.166  18.130  0.00  0.00    +0.000 S 
ATOM     24  C   UNL     1      48.720   4.828  17.262  0.00  0.00    +0.000 A 
ATOM     25  N   UNL     1      48.875   3.545  17.685  0.00  0.00    +0.000 NA
ATOM     26  C   UNL     1      48.314   2.665  16.919  0.00  0.00    +0.000 A 
ATOM     27  N   UNL     1      47.561   2.952  15.807  0.00  0.00    +0.000 N 
ATOM     28  C   UNL     1      47.354   4.232  15.359  0.00  0.00    +0.000 A 
ATOM     29  O   UNL     1      46.610   4.483  14.420  0.00  0.00    +0.000 OA
ATOM     30  C   UNL     1      48.094   5.230  16.105  0.00  0.00    +0.000 A 
ATOM     31  H   UNL     1      47.075   2.223  15.303  0.00  0.00    +0.000 HD
ENDBRANCH  18  21
ENDBRANCH   1  19
TORSDOF 6
ENDMDL
MODEL 2
REMARK VINA RESULT:    -7.749      1.347      1.594
REMARK INTER + INTRA:         -11.422
REMARK INTER:                 -10.413
REMARK INTRA:                  -1.010
REMARK UNBOUND:                -0.955
REMARK  Name = 
REMARK  6 active torsions:
REMARK  status: ('A' for Active; 'I' for Inactive)
REMARK    1  A    between atoms: C_2  and  C_19
REMARK    2  A    between atoms: N_3  and  C_4
REMARK    3  A    between atoms: C_4  and  C_5
REMARK    4  A    between atoms: C_8  and  C_9
REMARK    5  A    between atoms: C_9  and  N_10
REMARK    6  A    between atoms: N_10  and  C_11
REMARK                            x       y       z     vdW  Elec       q    Type
REMARK                         _______ _______ _______ _____ _____    ______ ____
ROOT
ATOM      1  C   UNL     1      48.457   6.652  13.245  0.00  0.00    +0.000 C 
ENDROOT
BRANCH   1   2
ATOM      2  C   UNL     1      47.194   6.144  12.580  0.00  0.00    +0.000 A 
ATOM      3  C   UNL     1      46.632   6.849  11.521  0.00  0.00    +0.000 A 
ATOM      4  C   UNL     1      45.496   6.338  10.895  0.00  0.00    +0.000 A 
ATOM      5  C   UNL     1      44.951   5.123  11.321  0.00  0.00    +0.000 A 
ATOM      6  C   UNL     1      45.588   4.481  12.378  0.00  0.00    +0.000 A 
ATOM      7  N   UNL     1      46.699   4.949  12.998  0.00  0.00    +0.000 NA
BRANCH   5   8
ATOM      8  C   UNL     1      43.734   4.529  10.673  0.00  0.00    +0.000 C 
BRANCH   8   9
ATOM      9  N   UNL     1      43.907   4.488   9.225  0.00  0.00    +0.000 N 
ATOM     10  H   UNL     1      44.055   5.414   8.829  0.00  0.00    +0.000 HD
BRANCH   9  11
ATOM     11  C   UNL     1      44.783   3.538   8.688  0.00  0.00    +0.000 A 
ATOM     12  C   UNL     1      45.857   3.814   7.854  0.00  0.00    +0.000 A 
ATOM     13  N   UNL     1      46.741   2.900   7.392  0.00  0.00    +0.000 NA
ATOM     14  C   UNL     1      46.551   1.646   7.820  0.00  0.00    +0.000 A 
ATOM     15  N   UNL     1      45.590   1.242   8.660  0.00  0.00    +0.000 NA
ATOM     16  C   UNL     1      44.744   2.208   9.084  0.00  0.00    +0.000 A 
ENDBRANCH   9  11
ENDBRANCH   8   9
ENDBRANCH   5   8
ENDBRANCH   1   2
BRANCH   1  19
ATOM     17  O   UNL     1      50.397   6.867  15.351  0.00  0.00    +0.000 OA
ATOM     18  C   UNL     1      49.195   6.880  15.596  0.00  0.00    +0.000 C 
ATOM     19  N   UNL     1      48.208   6.903  14.639  0.00  0.00    +0.000 N 
ATOM     20  H   UNL     1      47.265   6.682  14.928  0.00  0.00    +0.000 HD
BRANCH  18  21
ATOM     21  C   UNL     1      48.650   6.661  16.931  0.00  0.00    +0.000 A 
ATOM     22  C   UNL     1      48.476   7.681  17.851  0.00  0.00    +0.000 A 
ATOM     23  S   UNL     1      48.375   7.072  19.452  0.00  0.00    +0.000 S 
ATOM     24  C   UNL     1      48.418   5.457  18.903  0.00  0.00    +0.000 A 
ATOM     25  N   UNL     1      48.530   4.396  19.746  0.00  0.00    +0.000 NA
ATOM     26  C   UNL     1      48.505   3.246  19.153  0.00  0.00    +0.000 A 
ATOM     27  N   UNL     1      48.316   3.057  17.806  0.00  0.00    +0.000 N 
ATOM     28  C   UNL     1      48.171   4.095  16.922  0.00  0.00    +0.000 A 
ATOM     29  O   UNL     1      47.915   3.914  15.739  0.00  0.00    +0.000 OA
ATOM     30  C   UNL     1      48.347   5.398  17.531  0.00  0.00    +0.000 A 
ATOM     31  H   UNL     1      48.217   2.128  17.418  0.00  0.00    +0.000 HD
ENDBRANCH  18  21
ENDBRANCH   1  19
TORSDOF 6
ENDMDL
MODEL 3
REMARK VINA RESULT:    -7.487      2.412      3.258
REMARK INTER + INTRA:         -11.068
REMARK INTER:                 -10.312
REMARK INTRA:                  -0.756
REMARK UNBOUND:                -0.955
REMARK  Name = 
REMARK  6 active torsions:
REMARK  status: ('A' for Active; 'I' for Inactive)
REMARK    1  A    between atoms: C_2  and  C_19
REMARK    2  A    between atoms: N_3  and  C_4
REMARK    3  A    between atoms: C_4  and  C_5
REMARK    4  A    between atoms: C_8  and  C_9
REMARK    5  A    between atoms: C_9  and  N_10
REMARK    6  A    between atoms: N_10  and  C_11
REMARK                            x       y       z     vdW  Elec       q    Type
REMARK                         _______ _______ _______ _____ _____    ______ ____
ROOT
ATOM      1  C   UNL     1      47.144   4.193  15.160  0.00  0.00    +0.000 C 
ENDROOT
BRANCH   1   2
ATOM      2  C   UNL     1      46.400   4.394  13.855  0.00  0.00    +0.000 A 
ATOM      3  C   UNL     1      46.294   5.665  13.301  0.00  0.00    +0.000 A 
ATOM      4  C   UNL     1      45.644   5.817  12.077  0.00  0.00    +0.000 A 
ATOM      5  C   UNL     1      45.129   4.698  11.416  0.00  0.00    +0.000 A 
ATOM      6  C   UNL     1      45.292   3.466  12.039  0.00  0.00    +0.000 A 
ATOM      7  N   UNL     1      45.928   3.287  13.223  0.00  0.00    +0.000 NA
BRANCH   5   8
ATOM      8  C   UNL     1      44.428   4.812  10.093  0.00  0.00    +0.000 C 
BRANCH   8   9
ATOM      9  N   UNL     1      44.209   3.485   9.526  0.00  0.00    +0.000 N 
ATOM     10  H   UNL     1      43.307   3.410   9.060  0.00  0.00    +0.000 HD
BRANCH   9  11
ATOM     11  C   UNL     1      45.239   2.906   8.776  0.00  0.00    +0.000 A 
ATOM     12  C   UNL     1      45.535   1.552   8.724  0.00  0.00    +0.000 A 
ATOM     13  N   UNL     1      46.489   0.990   7.947  0.00  0.00    +0.000 NA
ATOM     14  C   UNL     1      47.159   1.836   7.154  0.00  0.00    +0.000 A 
ATOM     15  N   UNL     1      46.950   3.156   7.063  0.00  0.00    +0.000 NA
ATOM     16  C   UNL     1      45.981   3.648   7.867  0.00  0.00    +0.000 A 
ENDBRANCH   9  11
ENDBRANCH   8   9
ENDBRANCH   5   8
ENDBRANCH   1   2
BRANCH   1  19
ATOM     17  O   UNL     1      49.563   4.674  16.628  0.00  0.00    +0.000 OA
ATOM     18  C   UNL     1      48.754   5.575  16.432  0.00  0.00    +0.000 C 
ATOM     19  N   UNL     1      47.636   5.455  15.641  0.00  0.00    +0.000 N 
ATOM     20  H   UNL     1      46.920   6.163  15.724  0.00  0.00    +0.000 HD
BRANCH  18  21
ATOM     21  C   UNL     1      48.756   6.826  17.181  0.00  0.00    +0.000 A 
ATOM     22  C   UNL     1      49.433   7.957  16.756  0.00  0.00    +0.000 A 
ATOM     23  S   UNL     1      49.728   9.038  18.057  0.00  0.00    +0.000 S 
ATOM     24  C   UNL     1      48.835   8.069  19.141  0.00  0.00    +0.000 A 
ATOM     25  N   UNL     1      48.799   8.304  20.480  0.00  0.00    +0.000 NA
ATOM     26  C   UNL     1      48.037   7.492  21.139  0.00  0.00    +0.000 A 
ATOM     27  N   UNL     1      47.260   6.508  20.577  0.00  0.00    +0.000 N 
ATOM     28  C   UNL     1      47.243   6.252  19.230  0.00  0.00    +0.000 A 
ATOM     29  O   UNL     1      46.483   5.433  18.730  0.00  0.00    +0.000 OA
ATOM     30  C   UNL     1      48.200   7.043  18.481  0.00  0.00    +0.000 A 
ATOM     31  H   UNL     1      46.619   5.965  21.138  0.00  0.00    +0.000 HD
ENDBRANCH  18  21
ENDBRANCH   1  19
TORSDOF 6
ENDMDL
MODEL 4
REMARK VINA RESULT:    -7.395      1.718      2.697
REMARK INTER + INTRA:         -10.943
REMARK INTER:                 -10.456
REMARK INTRA:                  -0.487
REMARK UNBOUND:                -0.955
REMARK  Name = 
REMARK  6 active torsions:
REMARK  status: ('A' for Active; 'I' for Inactive)
REMARK    1  A    between atoms: C_2  and  C_19
REMARK    2  A    between atoms: N_3  and  C_4
REMARK    3  A    between atoms: C_4  and  C_5
REMARK    4  A    between atoms: C_8  and  C_9
REMARK    5  A    between atoms: C_9  and  N_10
REMARK    6  A    between atoms: N_10  and  C_11
REMARK                            x       y       z     vdW  Elec       q    Type
REMARK                         _______ _______ _______ _____ _____    ______ ____
ROOT
ATOM      1  C   UNL     1      45.803   7.078  12.422  0.00  0.00    +0.000 C 
ENDROOT
BRANCH   1   2
ATOM      2  C   UNL     1      45.483   5.855  11.587  0.00  0.00    +0.000 A 
ATOM      3  C   UNL     1      44.862   4.755  12.169  0.00  0.00    +0.000 A 
ATOM      4  C   UNL     1      44.537   3.660  11.370  0.00  0.00    +0.000 A 
ATOM      5  C   UNL     1      44.816   3.689  10.000  0.00  0.00    +0.000 A 
ATOM      6  C   UNL     1      45.426   4.835   9.503  0.00  0.00    +0.000 A 
ATOM      7  N   UNL     1      45.744   5.918  10.254  0.00  0.00    +0.000 NA
BRANCH   5   8
ATOM      8  C   UNL     1      44.478   2.536   9.098  0.00  0.00    +0.000 C 
BRANCH   8   9
ATOM      9  N   UNL     1      45.667   1.727   8.851  0.00  0.00    +0.000 N 
ATOM     10  H   UNL     1      45.487   0.732   8.969  0.00  0.00    +0.000 HD
BRANCH   9  11
ATOM     11  C   UNL     1      46.423   1.994   7.703  0.00  0.00    +0.000 A 
ATOM     12  C   UNL     1      47.508   1.249   7.263  0.00  0.00    +0.000 A 
ATOM     13  N   UNL     1      48.194   1.471   6.119  0.00  0.00    +0.000 NA
ATOM     14  C   UNL     1      47.742   2.478   5.361  0.00  0.00    +0.000 A 
ATOM     15  N   UNL     1      46.682   3.249   5.635  0.00  0.00    +0.000 NA
ATOM     16  C   UNL     1      46.043   2.970   6.793  0.00  0.00    +0.000 A 
ENDBRANCH   9  11
ENDBRANCH   8   9
ENDBRANCH   5   8
ENDBRANCH   1   2
BRANCH   1  19
ATOM     17  O   UNL     1      48.530   6.312  12.884  0.00  0.00    +0.000 OA
ATOM     18  C   UNL     1      47.689   6.220  13.773  0.00  0.00    +0.000 C 
ATOM     19  N   UNL     1      46.397   6.677  13.668  0.00  0.00    +0.000 N 
ATOM     20  H   UNL     1      45.726   6.355  14.352  0.00  0.00    +0.000 HD
BRANCH  18  21
ATOM     21  C   UNL     1      47.888   5.427  14.980  0.00  0.00    +0.000 A 
ATOM     22  C   UNL     1      47.178   4.268  15.245  0.00  0.00    +0.000 A 
ATOM     23  S   UNL     1      47.198   3.887  16.918  0.00  0.00    +0.000 S 
ATOM     24  C   UNL     1      48.263   5.176  17.258  0.00  0.00    +0.000 A 
ATOM     25  N   UNL     1      48.585   5.550  18.525  0.00  0.00    +0.000 NA
ATOM     26  C   UNL     1      49.439   6.521  18.588  0.00  0.00    +0.000 A 
ATOM     27  N   UNL     1      50.046   7.109  17.506  0.00  0.00    +0.000 N 
ATOM     28  C   UNL     1      49.773   6.747  16.212  0.00  0.00    +0.000 A 
ATOM     29  O   UNL     1      50.383   7.216  15.259  0.00  0.00    +0.000 OA
ATOM     30  C   UNL     1      48.710   5.769  16.100  0.00  0.00    +0.000 A 
ATOM     31  H   UNL     1      50.771   7.803  17.627  0.00  0.00    +0.000 HD
ENDBRANCH  18  21
ENDBRANCH   1  19
TORSDOF 6
ENDMDL
MODEL 5
REMARK VINA RESULT:    -7.281      3.054      8.021
REMARK INTER + INTRA:         -10.790
REMARK INTER:                  -9.969
REMARK INTRA:                  -0.821
REMARK UNBOUND:                -0.955
REMARK  Name = 
REMARK  6 active torsions:
REMARK  status: ('A' for Active; 'I' for Inactive)
REMARK    1  A    between atoms: C_2  and  C_19
REMARK    2  A    between atoms: N_3  and  C_4
REMARK    3  A    between atoms: C_4  and  C_5
REMARK    4  A    between atoms: C_8  and  C_9
REMARK    5  A    between atoms: C_9  and  N_10
REMARK    6  A    between atoms: N_10  and  C_11
REMARK                            x       y       z     vdW  Elec       q    Type
REMARK                         _______ _______ _______ _____ _____    ______ ____
ROOT
ATOM      1  C   UNL     1      47.491   6.650  12.907  0.00  0.00    +0.000 C 
ENDROOT
BRANCH   1   2
ATOM      2  C   UNL     1      47.744   6.003  14.254  0.00  0.00    +0.000 A 
ATOM      3  C   UNL     1      47.091   4.823  14.595  0.00  0.00    +0.000 A 
ATOM      4  C   UNL     1      47.375   4.223  15.820  0.00  0.00    +0.000 A 
ATOM      5  C   UNL     1      48.319   4.797  16.677  0.00  0.00    +0.000 A 
ATOM      6  C   UNL     1      48.932   5.969  16.247  0.00  0.00    +0.000 A 
ATOM      7  N   UNL     1      48.683   6.569  15.057  0.00  0.00    +0.000 NA
BRANCH   5   8
ATOM      8  C   UNL     1      48.663   4.183  18.003  0.00  0.00    +0.000 C 
BRANCH   8   9
ATOM      9  N   UNL     1      50.080   4.381  18.295  0.00  0.00    +0.000 N 
ATOM     10  H   UNL     1      50.231   4.749  19.232  0.00  0.00    +0.000 HD
BRANCH   9  11
ATOM     11  C   UNL     1      50.972   3.348  17.983  0.00  0.00    +0.000 A 
ATOM     12  C   UNL     1      52.309   3.302  18.347  0.00  0.00    +0.000 A 
ATOM     13  N   UNL     1      53.151   2.272  18.101  0.00  0.00    +0.000 NA
ATOM     14  C   UNL     1      52.605   1.217  17.482  0.00  0.00    +0.000 A 
ATOM     15  N   UNL     1      51.323   1.102  17.115  0.00  0.00    +0.000 NA
ATOM     16  C   UNL     1      50.539   2.168  17.394  0.00  0.00    +0.000 A 
ENDBRANCH   9  11
ENDBRANCH   8   9
ENDBRANCH   5   8
ENDBRANCH   1   2
BRANCH   1  19
ATOM     17  O   UNL     1      45.279   7.326  11.206  0.00  0.00    +0.000 OA
ATOM     18  C   UNL     1      45.612   6.157  11.375  0.00  0.00    +0.000 C 
ATOM     19  N   UNL     1      46.728   5.761  12.074  0.00  0.00    +0.000 N 
ATOM     20  H   UNL     1      46.791   4.791  12.351  0.00  0.00    +0.000 HD
BRANCH  18  21
ATOM     21  C   UNL     1      44.755   5.027  11.037  0.00  0.00    +0.000 A 
ATOM     22  C   UNL     1      43.710   4.606  11.842  0.00  0.00    +0.000 A 
ATOM     23  S   UNL     1      43.272   2.981  11.504  0.00  0.00    +0.000 S 
ATOM     24  C   UNL     1      44.369   2.895  10.201  0.00  0.00    +0.000 A 
ATOM     25  N   UNL     1      44.643   1.735   9.546  0.00  0.00    +0.000 NA
ATOM     26  C   UNL     1      45.469   1.869   8.558  0.00  0.00    +0.000 A 
ATOM     27  N   UNL     1      45.995   3.062   8.126  0.00  0.00    +0.000 N 
ATOM     28  C   UNL     1      45.726   4.259   8.738  0.00  0.00    +0.000 A 
ATOM     29  O   UNL     1      46.129   5.326   8.293  0.00  0.00    +0.000 OA
ATOM     30  C   UNL     1      44.927   4.125   9.940  0.00  0.00    +0.000 A 
ATOM     31  H   UNL     1      46.565   3.110   7.292  0.00  0.00    +0.000 HD
ENDBRANCH  18  21
ENDBRANCH   1  19
TORSDOF 6
ENDMDL
MODEL 6
REMARK VINA RESULT:    -7.224      2.020      3.575
REMARK INTER + INTRA:         -10.713
REMARK INTER:                  -9.931
REMARK INTRA:                  -0.781
REMARK UNBOUND:                -0.955
REMARK  Name = 
REMARK  6 active torsions:
REMARK  status: ('A' for Active; 'I' for Inactive)
REMARK    1  A    between atoms: C_2  and  C_19
REMARK    2  A    between atoms: N_3  and  C_4
REMARK    3  A    between atoms: C_4  and  C_5
REMARK    4  A    between atoms: C_8  and  C_9
REMARK    5  A    between atoms: C_9  and  N_10
REMARK    6  A    between atoms: N_10  and  C_11
REMARK                            x       y       z     vdW  Elec       q    Type
REMARK                         _______ _______ _______ _____ _____    ______ ____
ROOT
ATOM      1  C   UNL     1      47.134   4.106  15.237  0.00  0.00    +0.000 C 
ENDROOT
BRANCH   1   2
ATOM      2  C   UNL     1      46.487   4.389  13.897  0.00  0.00    +0.000 A 
ATOM      3  C   UNL     1      46.687   5.615  13.271  0.00  0.00    +0.000 A 
ATOM      4  C   UNL     1      46.118   5.835  12.017  0.00  0.00    +0.000 A 
ATOM      5  C   UNL     1      45.379   4.822  11.399  0.00  0.00    +0.000 A 
ATOM      6  C   UNL     1      45.243   3.626  12.093  0.00  0.00    +0.000 A 
ATOM      7  N   UNL     1      45.792   3.380  13.308  0.00  0.00    +0.000 NA
BRANCH   5   8
ATOM      8  C   UNL     1      44.754   5.010  10.046  0.00  0.00    +0.000 C 
BRANCH   8   9
ATOM      9  N   UNL     1      44.365   3.718   9.489  0.00  0.00    +0.000 N 
ATOM     10  H   UNL     1      43.428   3.738   9.091  0.00  0.00    +0.000 HD
BRANCH   9  11
ATOM     11  C   UNL     1      45.276   3.051   8.663  0.00  0.00    +0.000 A 
ATOM     12  C   UNL     1      46.135   3.656   7.757  0.00  0.00    +0.000 A 
ATOM     13  N   UNL     1      47.060   3.013   7.009  0.00  0.00    +0.000 NA
ATOM     14  C   UNL     1      47.147   1.691   7.209  0.00  0.00    +0.000 A 
ATOM     15  N   UNL     1      46.419   0.982   8.081  0.00  0.00    +0.000 NA
ATOM     16  C   UNL     1      45.516   1.690   8.796  0.00  0.00    +0.000 A 
ENDBRANCH   9  11
ENDBRANCH   8   9
ENDBRANCH   5   8
ENDBRANCH   1   2
BRANCH   1  19
ATOM     17  O   UNL     1      49.565   4.642  16.667  0.00  0.00    +0.000 OA
ATOM     18  C   UNL     1      48.663   5.473  16.621  0.00  0.00    +0.000 C 
ATOM     19  N   UNL     1      47.525   5.340  15.862  0.00  0.00    +0.000 N 
ATOM     20  H   UNL     1      46.749   5.956  16.063  0.00  0.00    +0.000 HD
BRANCH  18  21
ATOM     21  C   UNL     1      48.581   6.612  17.527  0.00  0.00    +0.000 A 
ATOM     22  C   UNL     1      48.007   6.535  18.785  0.00  0.00    +0.000 A 
ATOM     23  S   UNL     1      47.547   8.085  19.361  0.00  0.00    +0.000 S 
ATOM     24  C   UNL     1      48.239   8.859  18.007  0.00  0.00    +0.000 A 
ATOM     25  N   UNL     1      48.077  10.185  17.755  0.00  0.00    +0.000 NA
ATOM     26  C   UNL     1      48.708  10.604  16.706  0.00  0.00    +0.000 A 
ATOM     27  N   UNL     1      49.534   9.835  15.923  0.00  0.00    +0.000 N 
ATOM     28  C   UNL     1      49.749   8.501  16.154  0.00  0.00    +0.000 A 
ATOM     29  O   UNL     1      50.554   7.846  15.505  0.00  0.00    +0.000 OA
ATOM     30  C   UNL     1      48.939   7.965  17.230  0.00  0.00    +0.000 A 
ATOM     31  H   UNL     1      50.069  10.245  15.169  0.00  0.00    +0.000 HD
ENDBRANCH  18  21
ENDBRANCH   1  19
TORSDOF 6
ENDMDL
MODEL 7
REMARK VINA RESULT:    -6.959      3.090      4.139
REMARK INTER + INTRA:         -10.355
REMARK INTER:                  -9.435
REMARK INTRA:                  -0.920
REMARK UNBOUND:                -0.955
REMARK  Name = 
REMARK  6 active torsions:
REMARK  status: ('A' for Active; 'I' for Inactive)
REMARK    1  A    between atoms: C_2  and  C_19
REMARK    2  A    between atoms: N_3  and  C_4
REMARK    3  A    between atoms: C_4  and  C_5
REMARK    4  A    between atoms: C_8  and  C_9
REMARK    5  A    between atoms: C_9  and  N_10
REMARK    6  A    between atoms: N_10  and  C_11
REMARK                            x       y       z     vdW  Elec       q    Type
REMARK                         _______ _______ _______ _____ _____    ______ ____
ROOT
ATOM      1  C   UNL     1      45.953   6.727  13.224  0.00  0.00    +0.000 C 
ENDROOT
BRANCH   1   2
ATOM      2  C   UNL     1      45.556   5.643  12.242  0.00  0.00    +0.000 A 
ATOM      3  C   UNL     1      45.445   4.323  12.667  0.00  0.00    +0.000 A 
ATOM      4  C   UNL     1      45.035   3.351  11.755  0.00  0.00    +0.000 A 
ATOM      5  C   UNL     1      44.722   3.714  10.442  0.00  0.00    +0.000 A 
ATOM      6  C   UNL     1      44.849   5.058  10.111  0.00  0.00    +0.000 A 
ATOM      7  N   UNL     1      45.236   6.026  10.978  0.00  0.00    +0.000 NA
BRANCH   5   8
ATOM      8  C   UNL     1      44.269   2.704   9.427  0.00  0.00    +0.000 C 
BRANCH   8   9
ATOM      9  N   UNL     1      45.348   1.764   9.139  0.00  0.00    +0.000 N 
ATOM     10  H   UNL     1      45.031   0.797   9.161  0.00  0.00    +0.000 HD
BRANCH   9  11
ATOM     11  C   UNL     1      46.178   2.023   8.042  0.00  0.00    +0.000 A 
ATOM     12  C   UNL     1      47.146   1.164   7.545  0.00  0.00    +0.000 A 
ATOM     13  N   UNL     1      47.900   1.389   6.445  0.00  0.00    +0.000 NA
ATOM     14  C   UNL     1      47.640   2.529   5.791  0.00  0.00    +0.000 A 
ATOM     15  N   UNL     1      46.705   3.427   6.126  0.00  0.00    +0.000 NA
ATOM     16  C   UNL     1      45.988   3.136   7.235  0.00  0.00    +0.000 A 
ENDBRANCH   9  11
ENDBRANCH   8   9
ENDBRANCH   5   8
ENDBRANCH   1   2
BRANCH   1  19
ATOM     17  O   UNL     1      48.697   5.891  13.104  0.00  0.00    +0.000 OA
ATOM     18  C   UNL     1      48.369   7.031  12.791  0.00  0.00    +0.000 C 
ATOM     19  N   UNL     1      47.069   7.470  12.707  0.00  0.00    +0.000 N 
ATOM     20  H   UNL     1      46.909   8.467  12.668  0.00  0.00    +0.000 HD
BRANCH  18  21
ATOM     21  C   UNL     1      49.321   8.130  12.671  0.00  0.00    +0.000 A 
ATOM     22  C   UNL     1      50.054   8.370  11.521  0.00  0.00    +0.000 A 
ATOM     23  S   UNL     1      51.447   9.317  11.851  0.00  0.00    +0.000 S 
ATOM     24  C   UNL     1      50.994   9.521  13.483  0.00  0.00    +0.000 A 
ATOM     25  N   UNL     1      51.810  10.095  14.407  0.00  0.00    +0.000 NA
ATOM     26  C   UNL     1      51.282  10.202  15.584  0.00  0.00    +0.000 A 
ATOM     27  N   UNL     1      49.995   9.846  15.907  0.00  0.00    +0.000 N 
ATOM     28  C   UNL     1      49.128   9.290  15.002  0.00  0.00    +0.000 A 
ATOM     29  O   UNL     1      47.958   9.058  15.276  0.00  0.00    +0.000 OA
ATOM     30  C   UNL     1      49.736   9.015  13.715  0.00  0.00    +0.000 A 
ATOM     31  H   UNL     1      49.615  10.039  16.823  0.00  0.00    +0.000 HD
ENDBRANCH  18  21
ENDBRANCH   1  19
TORSDOF 6
ENDMDL
MODEL 8
REMARK VINA RESULT:    -6.927      2.232      3.760
REMARK INTER + INTRA:         -10.312
REMARK INTER:                  -9.645
REMARK INTRA:                  -0.667
REMARK UNBOUND:                -0.955
REMARK  Name = 
REMARK  6 active torsions:
REMARK  status: ('A' for Active; 'I' for Inactive)
REMARK    1  A    between atoms: C_2  and  C_19
REMARK    2  A    between atoms: N_3  and  C_4
REMARK    3  A    between atoms: C_4  and  C_5
REMARK    4  A    between atoms: C_8  and  C_9
REMARK    5  A    between atoms: C_9  and  N_10
REMARK    6  A    between atoms: N_10  and  C_11
REMARK                            x       y       z     vdW  Elec       q    Type
REMARK                         _______ _______ _______ _____ _____    ______ ____
ROOT
ATOM      1  C   UNL     1      45.235   7.016  12.906  0.00  0.00    +0.000 C 
ENDROOT
BRANCH   1   2
ATOM      2  C   UNL     1      45.018   5.976  11.826  0.00  0.00    +0.000 A 
ATOM      3  C   UNL     1      45.735   6.045  10.636  0.00  0.00    +0.000 A 
ATOM      4  C   UNL     1      45.552   5.051   9.676  0.00  0.00    +0.000 A 
ATOM      5  C   UNL     1      44.672   3.994   9.926  0.00  0.00    +0.000 A 
ATOM      6  C   UNL     1      44.008   4.000  11.148  0.00  0.00    +0.000 A 
ATOM      7  N   UNL     1      44.174   4.947  12.103  0.00  0.00    +0.000 NA
BRANCH   5   8
ATOM      8  C   UNL     1      44.447   2.896   8.926  0.00  0.00    +0.000 C 
BRANCH   8   9
ATOM      9  N   UNL     1      45.640   2.062   8.821  0.00  0.00    +0.000 N 
ATOM     10  H   UNL     1      45.450   1.089   9.055  0.00  0.00    +0.000 HD
BRANCH   9  11
ATOM     11  C   UNL     1      46.435   2.183   7.675  0.00  0.00    +0.000 A 
ATOM     12  C   UNL     1      47.476   1.337   7.325  0.00  0.00    +0.000 A 
ATOM     13  N   UNL     1      48.199   1.418   6.184  0.00  0.00    +0.000 NA
ATOM     14  C   UNL     1      47.829   2.386   5.335  0.00  0.00    +0.000 A 
ATOM     15  N   UNL     1      46.817   3.243   5.518  0.00  0.00    +0.000 NA
ATOM     16  C   UNL     1      46.137   3.102   6.678  0.00  0.00    +0.000 A 
ENDBRANCH   9  11
ENDBRANCH   8   9
ENDBRANCH   5   8
ENDBRANCH   1   2
BRANCH   1  19
ATOM     17  O   UNL     1      46.971   5.101  14.156  0.00  0.00    +0.000 OA
ATOM     18  C   UNL     1      47.369   6.227  13.877  0.00  0.00    +0.000 C 
ATOM     19  N   UNL     1      46.640   7.156  13.173  0.00  0.00    +0.000 N 
ATOM     20  H   UNL     1      46.955   8.117  13.193  0.00  0.00    +0.000 HD
BRANCH  18  21
ATOM     21  C   UNL     1      48.586   6.804  14.437  0.00  0.00    +0.000 A 
ATOM     22  C   UNL     1      48.983   6.600  15.748  0.00  0.00    +0.000 A 
ATOM     23  S   UNL     1      50.081   7.812  16.268  0.00  0.00    +0.000 S 
ATOM     24  C   UNL     1      50.133   8.514  14.714  0.00  0.00    +0.000 A 
ATOM     25  N   UNL     1      50.754   9.697  14.461  0.00  0.00    +0.000 NA
ATOM     26  C   UNL     1      50.726  10.053  13.217  0.00  0.00    +0.000 A 
ATOM     27  N   UNL     1      50.191   9.308  12.195  0.00  0.00    +0.000 N 
ATOM     28  C   UNL     1      49.579   8.097  12.398  0.00  0.00    +0.000 A 
ATOM     29  O   UNL     1      49.184   7.401  11.472  0.00  0.00    +0.000 OA
ATOM     30  C   UNL     1      49.458   7.741  13.798  0.00  0.00    +0.000 A 
ATOM     31  H   UNL     1      50.281   9.602  11.232  0.00  0.00    +0.000 HD
ENDBRANCH  18  21
ENDBRANCH   1  19
TORSDOF 6
ENDMDL
MODEL 9
REMARK VINA RESULT:    -6.905      2.194      3.240
REMARK INTER + INTRA:         -10.282
REMARK INTER:                  -9.104
REMARK INTRA:                  -1.178
REMARK UNBOUND:                -0.955
REMARK  Name = 
REMARK  6 active torsions:
REMARK  status: ('A' for Active; 'I' for Inactive)
REMARK    1  A    between atoms: C_2  and  C_19
REMARK    2  A    between atoms: N_3  and  C_4
REMARK    3  A    between atoms: C_4  and  C_5
REMARK    4  A    between atoms: C_8  and  C_9
REMARK    5  A    between atoms: C_9  and  N_10
REMARK    6  A    between atoms: N_10  and  C_11
REMARK                            x       y       z     vdW  Elec       q    Type
REMARK                         _______ _______ _______ _____ _____    ______ ____
ROOT
ATOM      1  C   UNL     1      49.942   8.166  14.333  0.00  0.00    +0.000 C 
ENDROOT
BRANCH   1   2
ATOM      2  C   UNL     1      48.677   7.994  13.517  0.00  0.00    +0.000 A 
ATOM      3  C   UNL     1      48.696   7.235  12.352  0.00  0.00    +0.000 A 
ATOM      4  C   UNL     1      47.509   7.053  11.643  0.00  0.00    +0.000 A 
ATOM      5  C   UNL     1      46.319   7.613  12.118  0.00  0.00    +0.000 A 
ATOM      6  C   UNL     1      46.393   8.345  13.298  0.00  0.00    +0.000 A 
ATOM      7  N   UNL     1      47.530   8.530  14.013  0.00  0.00    +0.000 NA
BRANCH   5   8
ATOM      8  C   UNL     1      45.016   7.438  11.393  0.00  0.00    +0.000 C 
BRANCH   8   9
ATOM      9  N   UNL     1      45.041   6.208  10.608  0.00  0.00    +0.000 N 
ATOM     10  H   UNL     1      45.964   6.014  10.226  0.00  0.00    +0.000 HD
BRANCH   9  11
ATOM     11  C   UNL     1      44.444   5.064  11.150  0.00  0.00    +0.000 A 
ATOM     12  C   UNL     1      43.963   3.985  10.422  0.00  0.00    +0.000 A 
ATOM     13  N   UNL     1      43.447   2.853  10.953  0.00  0.00    +0.000 NA
ATOM     14  C   UNL     1      43.447   2.791  12.291  0.00  0.00    +0.000 A 
ATOM     15  N   UNL     1      43.919   3.731  13.118  0.00  0.00    +0.000 NA
ATOM     16  C   UNL     1      44.422   4.834  12.519  0.00  0.00    +0.000 A 
ENDBRANCH   9  11
ENDBRANCH   8   9
ENDBRANCH   5   8
ENDBRANCH   1   2
BRANCH   1  19
ATOM     17  O   UNL     1      51.517   6.333  15.881  0.00  0.00    +0.000 OA
ATOM     18  C   UNL     1      50.458   6.777  16.313  0.00  0.00    +0.000 C 
ATOM     19  N   UNL     1      49.710   7.746  15.688  0.00  0.00    +0.000 N 
ATOM     20  H   UNL     1      48.757   7.878  15.996  0.00  0.00    +0.000 HD
BRANCH  18  21
ATOM     21  C   UNL     1      49.746   6.186  17.440  0.00  0.00    +0.000 A 
ATOM     22  C   UNL     1      50.045   6.482  18.760  0.00  0.00    +0.000 A 
ATOM     23  S   UNL     1      49.473   5.262  19.822  0.00  0.00    +0.000 S 
ATOM     24  C   UNL     1      48.711   4.425  18.545  0.00  0.00    +0.000 A 
ATOM     25  N   UNL     1      48.159   3.192  18.700  0.00  0.00    +0.000 NA
ATOM     26  C   UNL     1      47.590   2.731  17.633  0.00  0.00    +0.000 A 
ATOM     27  N   UNL     1      47.469   3.411  16.446  0.00  0.00    +0.000 N 
ATOM     28  C   UNL     1      47.987   4.666  16.253  0.00  0.00    +0.000 A 
ATOM     29  O   UNL     1      47.797   5.299  15.222  0.00  0.00    +0.000 OA
ATOM     30  C   UNL     1      48.761   5.150  17.378  0.00  0.00    +0.000 A 
ATOM     31  H   UNL     1      46.935   3.030  15.678  0.00  0.00    +0.000 HD
ENDBRANCH  18  21
ENDBRANCH   1  19
TORSDOF 6
ENDMDL
