MODEL 1
REMARK VINA RESULT:    -7.836      0.000      0.000
REMARK INTER + INTRA:         -10.934
REMARK INTER:                 -10.356
REMARK INTRA:                  -0.578
REMARK UNBOUND:                -0.578
REMARK  Name = 
REMARK  6 active torsions:
REMARK  status: ('A' for Active; 'I' for Inactive)
REMARK    1  A    between atoms: N_1  and  C_2
REMARK    2  A    between atoms: C_2  and  C_3
REMARK    3  A    between atoms: C_3  and  C_4
REMARK    4  A    between atoms: C_7  and  C_8
REMARK    5  A    between atoms: C_8  and  N_9
REMARK    6  A    between atoms: C_14  and  C_15
REMARK                            x       y       z     vdW  Elec       q    Type
REMARK                         _______ _______ _______ _____ _____    ______ ____
ROOT
ATOM      1  N   UNL     1      44.403   4.768  11.628  0.00  0.00    +0.000 N 
ATOM      2  C   UNL     1      43.921   4.172  12.762  0.00  0.00    +0.000 A 
ATOM      3  N   UNL     1      44.684   4.419  13.804  0.00  0.00    +0.000 NA
ATOM      4  C   UNL     1      45.699   5.211  13.329  0.00  0.00    +0.000 A 
ATOM      5  C   UNL     1      46.807   5.730  14.017  0.00  0.00    +0.000 A 
ATOM      6  C   UNL     1      47.735   6.512  13.312  0.00  0.00    +0.000 A 
ATOM      7  C   UNL     1      47.523   6.789  11.951  0.00  0.00    +0.000 A 
ATOM      8  C   UNL     1      46.412   6.294  11.256  0.00  0.00    +0.000 A 
ATOM      9  C   UNL     1      45.531   5.479  11.972  0.00  0.00    +0.000 A 
ENDROOT
BRANCH   6  10
ATOM     10  C   UNL     1      48.967   7.069  13.942  0.00  0.00    +0.000 C 
ATOM     11  N   UNL     1      50.031   7.390  13.144  0.00  0.00    +0.000 N 
ATOM     12  O   UNL     1      49.040   7.251  15.152  0.00  0.00    +0.000 OA
ATOM     13  H   UNL     1      50.067   7.270  12.145  0.00  0.00    +0.000 HD
ATOM     14  H   UNL     1      50.846   7.774  13.605  0.00  0.00    +0.000 HD
ENDBRANCH   6  10
BRANCH   1  15
ATOM     15  C   UNL     1      43.789   4.691  10.314  0.00  0.00    +0.000 C 
BRANCH  15  19
ATOM     16  C   UNL     1      46.137   2.245   7.715  0.00  0.00    +0.000 A 
ATOM     17  C   UNL     1      45.388   1.639   8.727  0.00  0.00    +0.000 A 
ATOM     18  C   UNL     1      44.574   2.413   9.549  0.00  0.00    +0.000 A 
ATOM     19  C   UNL     1      44.547   3.794   9.366  0.00  0.00    +0.000 A 
ATOM     20  N   UNL     1      45.249   4.401   8.375  0.00  0.00    +0.000 NA
ATOM     21  C   UNL     1      46.009   3.620   7.572  0.00  0.00    +0.000 A 
BRANCH  16  22
ATOM     22  C   UNL     1      47.015   1.435   6.798  0.00  0.00    +0.000 C 
BRANCH  22  23
ATOM     23  C   UNL     1      48.278   2.206   6.401  0.00  0.00    +0.000 C 
BRANCH  23  24
ATOM     24  N   UNL     1      48.259   2.562   4.984  0.00  0.00    +0.000 NA
ATOM     25  H   UNL     1      48.036   1.732   4.434  0.00  0.00    +0.000 HD
ATOM     26  H   UNL     1      49.190   2.853   4.687  0.00  0.00    +0.000 HD
ENDBRANCH  23  24
ENDBRANCH  22  23
ENDBRANCH  16  22
ENDBRANCH  15  19
ENDBRANCH   1  15
TORSDOF 6
ENDMDL
MODEL 2
REMARK VINA RESULT:    -7.775      1.666      2.139
REMARK INTER + INTRA:         -10.852
REMARK INTER:                 -10.284
REMARK INTRA:                  -0.568
REMARK UNBOUND:                -0.578
REMARK  Name = 
REMARK  6 active torsions:
REMARK  status: ('A' for Active; 'I' for Inactive)
REMARK    1  A    between atoms: N_1  and  C_2
REMARK    2  A    between atoms: C_2  and  C_3
REMARK    3  A    between atoms: C_3  and  C_4
REMARK    4  A    between atoms: C_7  and  C_8
REMARK    5  A    between atoms: C_8  and  N_9
REMARK    6  A    between atoms: C_14  and  C_15
REMARK                            x       y       z     vdW  Elec       q    Type
REMARK                         _______ _______ _______ _____ _____    ______ ____
ROOT
ATOM      1  N   UNL     1      44.667   5.560  11.156  0.00  0.00    +0.000 N 
ATOM      2  C   UNL     1      44.907   6.905  11.078  0.00  0.00    +0.000 A 
ATOM      3  N   UNL     1      45.729   7.309  12.020  0.00  0.00    +0.000 NA
ATOM      4  C   UNL     1      46.039   6.180  12.737  0.00  0.00    +0.000 A 
ATOM      5  C   UNL     1      46.851   6.055  13.876  0.00  0.00    +0.000 A 
ATOM      6  C   UNL     1      47.013   4.787  14.454  0.00  0.00    +0.000 A 
ATOM      7  C   UNL     1      46.395   3.669  13.868  0.00  0.00    +0.000 A 
ATOM      8  C   UNL     1      45.598   3.775  12.722  0.00  0.00    +0.000 A 
ATOM      9  C   UNL     1      45.416   5.057  12.196  0.00  0.00    +0.000 A 
ENDROOT
BRANCH   6  10
ATOM     10  C   UNL     1      47.815   4.558  15.691  0.00  0.00    +0.000 C 
ATOM     11  N   UNL     1      48.027   5.605  16.546  0.00  0.00    +0.000 N 
ATOM     12  O   UNL     1      48.279   3.454  15.956  0.00  0.00    +0.000 OA
ATOM     13  H   UNL     1      47.695   6.545  16.409  0.00  0.00    +0.000 HD
ATOM     14  H   UNL     1      48.569   5.409  17.378  0.00  0.00    +0.000 HD
ENDBRANCH   6  10
BRANCH   1  15
ATOM     15  C   UNL     1      43.808   4.807  10.259  0.00  0.00    +0.000 C 
BRANCH  15  19
ATOM     16  C   UNL     1      46.185   2.211   7.838  0.00  0.00    +0.000 A 
ATOM     17  C   UNL     1      45.330   1.656   8.793  0.00  0.00    +0.000 A 
ATOM     18  C   UNL     1      44.508   2.482   9.555  0.00  0.00    +0.000 A 
ATOM     19  C   UNL     1      44.577   3.861   9.369  0.00  0.00    +0.000 A 
ATOM     20  N   UNL     1      45.383   4.420   8.431  0.00  0.00    +0.000 NA
ATOM     21  C   UNL     1      46.151   3.591   7.686  0.00  0.00    +0.000 A 
BRANCH  16  22
ATOM     22  C   UNL     1      47.077   1.346   6.988  0.00  0.00    +0.000 C 
BRANCH  22  23
ATOM     23  C   UNL     1      48.336   2.098   6.544  0.00  0.00    +0.000 C 
BRANCH  23  24
ATOM     24  N   UNL     1      48.378   2.250   5.091  0.00  0.00    +0.000 NA
ATOM     25  H   UNL     1      48.007   1.405   4.656  0.00  0.00    +0.000 HD
ATOM     26  H   UNL     1      49.347   2.322   4.779  0.00  0.00    +0.000 HD
ENDBRANCH  23  24
ENDBRANCH  22  23
ENDBRANCH  16  22
ENDBRANCH  15  19
ENDBRANCH   1  15
TORSDOF 6
ENDMDL
MODEL 3
REMARK VINA RESULT:    -7.588      2.690      6.527
REMARK INTER + INTRA:         -10.606
REMARK INTER:                 -10.047
REMARK INTRA:                  -0.559
REMARK UNBOUND:                -0.578
REMARK  Name = 
REMARK  6 active torsions:
REMARK  status: ('A' for Active; 'I' for Inactive)
REMARK    1  A    between atoms: N_1  and  C_2
REMARK    2  A    between atoms: C_2  and  C_3
REMARK    3  A    between atoms: C_3  and  C_4
REMARK    4  A    between atoms: C_7  and  C_8
REMARK    5  A    between atoms: C_8  and  N_9
REMARK    6  A    between atoms: C_14  and  C_15
REMARK                            x       y       z     vdW  Elec       q    Type
REMARK                         _______ _______ _______ _____ _____    ______ ____
ROOT
ATOM      1  N   UNL     1      43.867   4.353  10.539  0.00  0.00    +0.000 N 
ATOM      2  C   UNL     1      43.369   3.203  11.090  0.00  0.00    +0.000 A 
ATOM      3  N   UNL     1      43.890   2.131  10.536  0.00  0.00    +0.000 NA
ATOM      4  C   UNL     1      44.766   2.603   9.591  0.00  0.00    +0.000 A 
ATOM      5  C   UNL     1      45.560   1.880   8.686  0.00  0.00    +0.000 A 
ATOM      6  C   UNL     1      46.377   2.585   7.790  0.00  0.00    +0.000 A 
ATOM      7  C   UNL     1      46.413   3.989   7.837  0.00  0.00    +0.000 A 
ATOM      8  C   UNL     1      45.641   4.724   8.745  0.00  0.00    +0.000 A 
ATOM      9  C   UNL     1      44.801   3.996   9.593  0.00  0.00    +0.000 A 
ENDROOT
BRANCH   6  10
ATOM     10  C   UNL     1      47.221   1.911   6.762  0.00  0.00    +0.000 C 
ATOM     11  N   UNL     1      48.140   2.651   6.070  0.00  0.00    +0.000 N 
ATOM     12  O   UNL     1      47.111   0.711   6.532  0.00  0.00    +0.000 OA
ATOM     13  H   UNL     1      48.296   3.639   6.184  0.00  0.00    +0.000 HD
ATOM     14  H   UNL     1      48.700   2.158   5.388  0.00  0.00    +0.000 HD
ENDBRANCH   6  10
BRANCH   1  15
ATOM     15  C   UNL     1      43.497   5.701  10.932  0.00  0.00    +0.000 C 
BRANCH  15  19
ATOM     16  C   UNL     1      46.698   7.513  13.105  0.00  0.00    +0.000 A 
ATOM     17  C   UNL     1      45.995   8.275  12.169  0.00  0.00    +0.000 A 
ATOM     18  C   UNL     1      44.914   7.719  11.490  0.00  0.00    +0.000 A 
ATOM     19  C   UNL     1      44.571   6.391  11.736  0.00  0.00    +0.000 A 
ATOM     20  N   UNL     1      45.226   5.640  12.658  0.00  0.00    +0.000 NA
ATOM     21  C   UNL     1      46.255   6.215  13.324  0.00  0.00    +0.000 A 
BRANCH  16  22
ATOM     22  C   UNL     1      47.862   8.087  13.868  0.00  0.00    +0.000 C 
BRANCH  22  23
ATOM     23  C   UNL     1      48.977   7.055  14.058  0.00  0.00    +0.000 C 
BRANCH  23  24
ATOM     24  N   UNL     1      49.750   6.876  12.831  0.00  0.00    +0.000 NA
ATOM     25  H   UNL     1      50.636   7.374  12.920  0.00  0.00    +0.000 HD
ATOM     26  H   UNL     1      49.263   7.311  12.048  0.00  0.00    +0.000 HD
ENDBRANCH  23  24
ENDBRANCH  22  23
ENDBRANCH  16  22
ENDBRANCH  15  19
ENDBRANCH   1  15
TORSDOF 6
ENDMDL
MODEL 4
REMARK VINA RESULT:    -7.199      1.585      1.703
REMARK INTER + INTRA:         -10.091
REMARK INTER:                  -9.591
REMARK INTRA:                  -0.500
REMARK UNBOUND:                -0.578
REMARK  Name = 
REMARK  6 active torsions:
REMARK  status: ('A' for Active; 'I' for Inactive)
REMARK    1  A    between atoms: N_1  and  C_2
REMARK    2  A    between atoms: C_2  and  C_3
REMARK    3  A    between atoms: C_3  and  C_4
REMARK    4  A    between atoms: C_7  and  C_8
REMARK    5  A    between atoms: C_8  and  N_9
REMARK    6  A    between atoms: C_14  and  C_15
REMARK                            x       y       z     vdW  Elec       q    Type
REMARK                         _______ _______ _______ _____ _____    ______ ____
ROOT
ATOM      1  N   UNL     1      45.529   4.850  12.481  0.00  0.00    +0.000 N 
ATOM      2  C   UNL     1      46.151   3.911  13.259  0.00  0.00    +0.000 A 
ATOM      3  N   UNL     1      47.128   4.433  13.966  0.00  0.00    +0.000 NA
ATOM      4  C   UNL     1      47.138   5.766  13.638  0.00  0.00    +0.000 A 
ATOM      5  C   UNL     1      48.008   6.775  14.081  0.00  0.00    +0.000 A 
ATOM      6  C   UNL     1      47.835   8.079  13.592  0.00  0.00    +0.000 A 
ATOM      7  C   UNL     1      46.781   8.357  12.705  0.00  0.00    +0.000 A 
ATOM      8  C   UNL     1      45.894   7.365  12.269  0.00  0.00    +0.000 A 
ATOM      9  C   UNL     1      46.121   6.067  12.735  0.00  0.00    +0.000 A 
ENDROOT
BRANCH   6  10
ATOM     10  C   UNL     1      48.734   9.209  13.965  0.00  0.00    +0.000 C 
ATOM     11  N   UNL     1      48.262  10.181  14.805  0.00  0.00    +0.000 N 
ATOM     12  O   UNL     1      49.883   9.278  13.542  0.00  0.00    +0.000 OA
ATOM     13  H   UNL     1      47.335  10.213  15.196  0.00  0.00    +0.000 HD
ATOM     14  H   UNL     1      48.903  10.927  15.043  0.00  0.00    +0.000 HD
ENDBRANCH   6  10
BRANCH   1  15
ATOM     15  C   UNL     1      44.411   4.594  11.590  0.00  0.00    +0.000 C 
BRANCH  15  19
ATOM     16  C   UNL     1      45.862   3.123   7.851  0.00  0.00    +0.000 A 
ATOM     17  C   UNL     1      45.227   2.241   8.729  0.00  0.00    +0.000 A 
ATOM     18  C   UNL     1      44.699   2.712   9.928  0.00  0.00    +0.000 A 
ATOM     19  C   UNL     1      44.844   4.060  10.247  0.00  0.00    +0.000 A 
ATOM     20  N   UNL     1      45.437   4.939   9.400  0.00  0.00    +0.000 NA
ATOM     21  C   UNL     1      45.916   4.458   8.228  0.00  0.00    +0.000 A 
BRANCH  16  22
ATOM     22  C   UNL     1      46.431   2.650   6.541  0.00  0.00    +0.000 C 
BRANCH  22  23
ATOM     23  C   UNL     1      47.820   2.030   6.719  0.00  0.00    +0.000 C 
BRANCH  23  24
ATOM     24  N   UNL     1      48.497   1.865   5.434  0.00  0.00    +0.000 NA
ATOM     25  H   UNL     1      48.857   0.913   5.367  0.00  0.00    +0.000 HD
ATOM     26  H   UNL     1      49.313   2.476   5.392  0.00  0.00    +0.000 HD
ENDBRANCH  23  24
ENDBRANCH  22  23
ENDBRANCH  16  22
ENDBRANCH  15  19
ENDBRANCH   1  15
TORSDOF 6
ENDMDL
MODEL 5
REMARK VINA RESULT:    -5.929      4.154      8.524
REMARK INTER + INTRA:          -8.414
REMARK INTER:                  -7.925
REMARK INTRA:                  -0.489
REMARK UNBOUND:                -0.578
REMARK  Name = 
REMARK  6 active torsions:
REMARK  status: ('A' for Active; 'I' for Inactive)
REMARK    1  A    between atoms: N_1  and  C_2
REMARK    2  A    between atoms: C_2  and  C_3
REMARK    3  A    between atoms: C_3  and  C_4
REMARK    4  A    between atoms: C_7  and  C_8
REMARK    5  A    between atoms: C_8  and  N_9
REMARK    6  A    between atoms: C_14  and  C_15
REMARK                            x       y       z     vdW  Elec       q    Type
REMARK                         _______ _______ _______ _____ _____    ______ ____
ROOT
ATOM      1  N   UNL     1      47.487   7.219  13.596  0.00  0.00    +0.000 N 
ATOM      2  C   UNL     1      46.771   8.338  13.264  0.00  0.00    +0.000 A 
ATOM      3  N   UNL     1      45.596   8.032  12.762  0.00  0.00    +0.000 NA
ATOM      4  C   UNL     1      45.544   6.661  12.773  0.00  0.00    +0.000 A 
ATOM      5  C   UNL     1      44.523   5.814  12.310  0.00  0.00    +0.000 A 
ATOM      6  C   UNL     1      44.699   4.426  12.411  0.00  0.00    +0.000 A 
ATOM      7  C   UNL     1      45.867   3.912  13.000  0.00  0.00    +0.000 A 
ATOM      8  C   UNL     1      46.885   4.744  13.482  0.00  0.00    +0.000 A 
ATOM      9  C   UNL     1      46.703   6.120  13.324  0.00  0.00    +0.000 A 
ENDROOT
BRANCH   6  10
ATOM     10  C   UNL     1      43.695   3.444  11.907  0.00  0.00    +0.000 C 
ATOM     11  N   UNL     1      43.678   2.184  12.439  0.00  0.00    +0.000 N 
ATOM     12  O   UNL     1      42.886   3.748  11.037  0.00  0.00    +0.000 OA
ATOM     13  H   UNL     1      44.305   1.842  13.148  0.00  0.00    +0.000 HD
ATOM     14  H   UNL     1      42.978   1.548  12.078  0.00  0.00    +0.000 HD
ENDBRANCH   6  10
BRANCH   1  15
ATOM     15  C   UNL     1      48.819   7.216  14.176  0.00  0.00    +0.000 C 
BRANCH  15  19
ATOM     16  C   UNL     1      49.015   6.435  18.371  0.00  0.00    +0.000 A 
ATOM     17  C   UNL     1      48.846   7.751  17.931  0.00  0.00    +0.000 A 
ATOM     18  C   UNL     1      48.725   8.020  16.571  0.00  0.00    +0.000 A 
ATOM     19  C   UNL     1      48.808   6.965  15.663  0.00  0.00    +0.000 A 
ATOM     20  N   UNL     1      48.949   5.678  16.070  0.00  0.00    +0.000 NA
ATOM     21  C   UNL     1      49.036   5.443  17.400  0.00  0.00    +0.000 A 
BRANCH  16  22
ATOM     22  C   UNL     1      49.134   6.108  19.836  0.00  0.00    +0.000 C 
BRANCH  22  23
ATOM     23  C   UNL     1      49.530   4.645  20.057  0.00  0.00    +0.000 C 
BRANCH  23  24
ATOM     24  N   UNL     1      48.471   3.906  20.741  0.00  0.00    +0.000 NA
ATOM     25  H   UNL     1      48.581   4.021  21.749  0.00  0.00    +0.000 HD
ATOM     26  H   UNL     1      48.573   2.907  20.561  0.00  0.00    +0.000 HD
ENDBRANCH  23  24
ENDBRANCH  22  23
ENDBRANCH  16  22
ENDBRANCH  15  19
ENDBRANCH   1  15
TORSDOF 6
ENDMDL
MODEL 6
REMARK VINA RESULT:    -5.742      3.447      6.644
REMARK INTER + INTRA:          -8.166
REMARK INTER:                  -7.571
REMARK INTRA:                  -0.595
REMARK UNBOUND:                -0.578
REMARK  Name = 
REMARK  6 active torsions:
REMARK  status: ('A' for Active; 'I' for Inactive)
REMARK    1  A    between atoms: N_1  and  C_2
REMARK    2  A    between atoms: C_2  and  C_3
REMARK    3  A    between atoms: C_3  and  C_4
REMARK    4  A    between atoms: C_7  and  C_8
REMARK    5  A    between atoms: C_8  and  N_9
REMARK    6  A    between atoms: C_14  and  C_15
REMARK                            x       y       z     vdW  Elec       q    Type
REMARK                         _______ _______ _______ _____ _____    ______ ____
ROOT
ATOM      1  N   UNL     1      47.452   6.557  13.688  0.00  0.00    +0.000 N 
ATOM      2  C   UNL     1      47.843   5.706  14.687  0.00  0.00    +0.000 A 
ATOM      3  N   UNL     1      47.318   4.510  14.543  0.00  0.00    +0.000 NA
ATOM      4  C   UNL     1      46.559   4.585  13.402  0.00  0.00    +0.000 A 
ATOM      5  C   UNL     1      45.755   3.596  12.813  0.00  0.00    +0.000 A 
ATOM      6  C   UNL     1      45.049   3.909  11.641  0.00  0.00    +0.000 A 
ATOM      7  C   UNL     1      45.185   5.182  11.063  0.00  0.00    +0.000 A 
ATOM      8  C   UNL     1      45.998   6.173  11.629  0.00  0.00    +0.000 A 
ATOM      9  C   UNL     1      46.651   5.848  12.821  0.00  0.00    +0.000 A 
ENDROOT
BRANCH   6  10
ATOM     10  C   UNL     1      44.133   2.943  10.966  0.00  0.00    +0.000 C 
ATOM     11  N   UNL     1      44.596   2.231   9.894  0.00  0.00    +0.000 N 
ATOM     12  O   UNL     1      42.984   2.773  11.358  0.00  0.00    +0.000 OA
ATOM     13  H   UNL     1      45.518   2.309   9.497  0.00  0.00    +0.000 HD
ATOM     14  H   UNL     1      43.950   1.580   9.467  0.00  0.00    +0.000 HD
ENDBRANCH   6  10
BRANCH   1  15
ATOM     15  C   UNL     1      47.860   7.945  13.559  0.00  0.00    +0.000 C 
BRANCH  15  19
ATOM     16  C   UNL     1      51.760   8.198  11.834  0.00  0.00    +0.000 A 
ATOM     17  C   UNL     1      50.681   7.830  11.025  0.00  0.00    +0.000 A 
ATOM     18  C   UNL     1      49.394   7.794  11.556  0.00  0.00    +0.000 A 
ATOM     19  C   UNL     1      49.210   8.099  12.903  0.00  0.00    +0.000 A 
ATOM     20  N   UNL     1      50.240   8.480  13.700  0.00  0.00    +0.000 NA
ATOM     21  C   UNL     1      51.476   8.534  13.151  0.00  0.00    +0.000 A 
BRANCH  16  22
ATOM     22  C   UNL     1      53.161   8.262  11.288  0.00  0.00    +0.000 C 
BRANCH  22  23
ATOM     23  C   UNL     1      53.381   7.231  10.176  0.00  0.00    +0.000 C 
BRANCH  23  24
ATOM     24  N   UNL     1      53.761   5.931  10.725  0.00  0.00    +0.000 NA
ATOM     25  H   UNL     1      53.991   5.300   9.957  0.00  0.00    +0.000 HD
ATOM     26  H   UNL     1      52.965   5.510  11.203  0.00  0.00    +0.000 HD
ENDBRANCH  23  24
ENDBRANCH  22  23
ENDBRANCH  16  22
ENDBRANCH  15  19
ENDBRANCH   1  15
TORSDOF 6
ENDMDL
MODEL 7
REMARK VINA RESULT:    -5.739      4.722      6.836
REMARK INTER + INTRA:          -8.163
REMARK INTER:                  -7.674
REMARK INTRA:                  -0.488
REMARK UNBOUND:                -0.578
REMARK  Name = 
REMARK  6 active torsions:
REMARK  status: ('A' for Active; 'I' for Inactive)
REMARK    1  A    between atoms: N_1  and  C_2
REMARK    2  A    between atoms: C_2  and  C_3
REMARK    3  A    between atoms: C_3  and  C_4
REMARK    4  A    between atoms: C_7  and  C_8
REMARK    5  A    between atoms: C_8  and  N_9
REMARK    6  A    between atoms: C_14  and  C_15
REMARK                            x       y       z     vdW  Elec       q    Type
REMARK                         _______ _______ _______ _____ _____    ______ ____
ROOT
ATOM      1  N   UNL     1      48.436   3.521  16.636  0.00  0.00    +0.000 N 
ATOM      2  C   UNL     1      48.527   2.267  16.093  0.00  0.00    +0.000 A 
ATOM      3  N   UNL     1      49.661   1.682  16.403  0.00  0.00    +0.000 NA
ATOM      4  C   UNL     1      50.334   2.589  17.183  0.00  0.00    +0.000 A 
ATOM      5  C   UNL     1      51.614   2.484  17.751  0.00  0.00    +0.000 A 
ATOM      6  C   UNL     1      52.107   3.558  18.508  0.00  0.00    +0.000 A 
ATOM      7  C   UNL     1      51.306   4.694  18.712  0.00  0.00    +0.000 A 
ATOM      8  C   UNL     1      50.021   4.805  18.167  0.00  0.00    +0.000 A 
ATOM      9  C   UNL     1      49.575   3.741  17.379  0.00  0.00    +0.000 A 
ENDROOT
BRANCH   6  10
ATOM     10  C   UNL     1      53.471   3.562  19.113  0.00  0.00    +0.000 C 
ATOM     11  N   UNL     1      53.963   2.402  19.644  0.00  0.00    +0.000 N 
ATOM     12  O   UNL     1      54.156   4.579  19.136  0.00  0.00    +0.000 OA
ATOM     13  H   UNL     1      53.473   1.523  19.678  0.00  0.00    +0.000 HD
ATOM     14  H   UNL     1      54.894   2.441  20.038  0.00  0.00    +0.000 HD
ENDBRANCH   6  10
BRANCH   1  15
ATOM     15  C   UNL     1      47.308   4.422  16.484  0.00  0.00    +0.000 C 
BRANCH  15  19
ATOM     16  C   UNL     1      46.549   5.809  12.515  0.00  0.00    +0.000 A 
ATOM     17  C   UNL     1      47.602   6.370  13.241  0.00  0.00    +0.000 A 
ATOM     18  C   UNL     1      47.900   5.894  14.515  0.00  0.00    +0.000 A 
ATOM     19  C   UNL     1      47.114   4.880  15.059  0.00  0.00    +0.000 A 
ATOM     20  N   UNL     1      46.101   4.305  14.363  0.00  0.00    +0.000 NA
ATOM     21  C   UNL     1      45.852   4.768  13.115  0.00  0.00    +0.000 A 
BRANCH  16  22
ATOM     22  C   UNL     1      46.209   6.289  11.129  0.00  0.00    +0.000 C 
BRANCH  22  23
ATOM     23  C   UNL     1      45.343   5.275  10.377  0.00  0.00    +0.000 C 
BRANCH  23  24
ATOM     24  N   UNL     1      45.665   5.255   8.952  0.00  0.00    +0.000 NA
ATOM     25  H   UNL     1      46.679   5.243   8.839  0.00  0.00    +0.000 HD
ATOM     26  H   UNL     1      45.346   6.118   8.512  0.00  0.00    +0.000 HD
ENDBRANCH  23  24
ENDBRANCH  22  23
ENDBRANCH  16  22
ENDBRANCH  15  19
ENDBRANCH   1  15
TORSDOF 6
ENDMDL
MODEL 8
REMARK VINA RESULT:    -5.645      4.733      6.868
REMARK INTER + INTRA:          -8.038
REMARK INTER:                  -8.023
REMARK INTRA:                  -0.014
REMARK UNBOUND:                -0.578
REMARK  Name = 
REMARK  6 active torsions:
REMARK  status: ('A' for Active; 'I' for Inactive)
REMARK    1  A    between atoms: N_1  and  C_2
REMARK    2  A    between atoms: C_2  and  C_3
REMARK    3  A    between atoms: C_3  and  C_4
REMARK    4  A    between atoms: C_7  and  C_8
REMARK    5  A    between atoms: C_8  and  N_9
REMARK    6  A    between atoms: C_14  and  C_15
REMARK                            x       y       z     vdW  Elec       q    Type
REMARK                         _______ _______ _______ _____ _____    ______ ____
ROOT
ATOM      1  N   UNL     1      48.468   4.405  16.877  0.00  0.00    +0.000 N 
ATOM      2  C   UNL     1      48.865   5.647  17.295  0.00  0.00    +0.000 A 
ATOM      3  N   UNL     1      50.097   5.637  17.753  0.00  0.00    +0.000 NA
ATOM      4  C   UNL     1      50.520   4.338  17.622  0.00  0.00    +0.000 A 
ATOM      5  C   UNL     1      51.748   3.770  17.994  0.00  0.00    +0.000 A 
ATOM      6  C   UNL     1      51.953   2.399  17.776  0.00  0.00    +0.000 A 
ATOM      7  C   UNL     1      50.949   1.633  17.160  0.00  0.00    +0.000 A 
ATOM      8  C   UNL     1      49.725   2.189  16.766  0.00  0.00    +0.000 A 
ATOM      9  C   UNL     1      49.532   3.546  17.041  0.00  0.00    +0.000 A 
ENDROOT
BRANCH   6  10
ATOM     10  C   UNL     1      53.204   1.693  18.178  0.00  0.00    +0.000 C 
ATOM     11  N   UNL     1      53.827   2.060  19.340  0.00  0.00    +0.000 N 
ATOM     12  O   UNL     1      53.677   0.791  17.495  0.00  0.00    +0.000 OA
ATOM     13  H   UNL     1      53.519   2.792  19.959  0.00  0.00    +0.000 HD
ATOM     14  H   UNL     1      54.668   1.554  19.584  0.00  0.00    +0.000 HD
ENDBRANCH   6  10
BRANCH   1  15
ATOM     15  C   UNL     1      47.167   4.084  16.317  0.00  0.00    +0.000 C 
BRANCH  15  19
ATOM     16  C   UNL     1      46.439   5.655  12.411  0.00  0.00    +0.000 A 
ATOM     17  C   UNL     1      47.429   6.239  13.206  0.00  0.00    +0.000 A 
ATOM     18  C   UNL     1      47.719   5.708  14.460  0.00  0.00    +0.000 A 
ATOM     19  C   UNL     1      46.987   4.613  14.915  0.00  0.00    +0.000 A 
ATOM     20  N   UNL     1      46.037   4.017  14.152  0.00  0.00    +0.000 NA
ATOM     21  C   UNL     1      45.796   4.537  12.925  0.00  0.00    +0.000 A 
BRANCH  16  22
ATOM     22  C   UNL     1      46.111   6.195  11.045  0.00  0.00    +0.000 C 
BRANCH  22  23
ATOM     23  C   UNL     1      45.323   5.180  10.211  0.00  0.00    +0.000 C 
BRANCH  23  24
ATOM     24  N   UNL     1      45.682   5.262   8.797  0.00  0.00    +0.000 NA
ATOM     25  H   UNL     1      45.717   6.243   8.518  0.00  0.00    +0.000 HD
ATOM     26  H   UNL     1      44.950   4.837   8.228  0.00  0.00    +0.000 HD
ENDBRANCH  23  24
ENDBRANCH  22  23
ENDBRANCH  16  22
ENDBRANCH  15  19
ENDBRANCH   1  15
TORSDOF 6
ENDMDL
MODEL 9
REMARK VINA RESULT:    -5.514      4.589      8.043
REMARK INTER + INTRA:          -7.865
REMARK INTER:                  -7.396
REMARK INTRA:                  -0.469
REMARK UNBOUND:                -0.578
REMARK  Name = 
REMARK  6 active torsions:
REMARK  status: ('A' for Active; 'I' for Inactive)
REMARK    1  A    between atoms: N_1  and  C_2
REMARK    2  A    between atoms: C_2  and  C_3
REMARK    3  A    between atoms: C_3  and  C_4
REMARK    4  A    between atoms: C_7  and  C_8
REMARK    5  A    between atoms: C_8  and  N_9
REMARK    6  A    between atoms: C_14  and  C_15
REMARK                            x       y       z     vdW  Elec       q    Type
REMARK                         _______ _______ _______ _____ _____    ______ ____
ROOT
ATOM      1  N   UNL     1      47.995   5.686  15.457  0.00  0.00    +0.000 N 
ATOM      2  C   UNL     1      48.966   6.578  15.088  0.00  0.00    +0.000 A 
ATOM      3  N   UNL     1      48.828   6.960  13.839  0.00  0.00    +0.000 NA
ATOM      4  C   UNL     1      47.719   6.295  13.379  0.00  0.00    +0.000 A 
ATOM      5  C   UNL     1      47.150   6.313  12.095  0.00  0.00    +0.000 A 
ATOM      6  C   UNL     1      46.012   5.531  11.848  0.00  0.00    +0.000 A 
ATOM      7  C   UNL     1      45.445   4.778  12.890  0.00  0.00    +0.000 A 
ATOM      8  C   UNL     1      45.990   4.763  14.180  0.00  0.00    +0.000 A 
ATOM      9  C   UNL     1      47.151   5.514  14.383  0.00  0.00    +0.000 A 
ENDROOT
BRANCH   6  10
ATOM     10  C   UNL     1      45.362   5.448  10.508  0.00  0.00    +0.000 C 
ATOM     11  N   UNL     1      43.998   5.517  10.429  0.00  0.00    +0.000 N 
ATOM     12  O   UNL     1      46.025   5.327   9.483  0.00  0.00    +0.000 OA
ATOM     13  H   UNL     1      43.373   5.608  11.212  0.00  0.00    +0.000 HD
ATOM     14  H   UNL     1      43.594   5.466   9.503  0.00  0.00    +0.000 HD
ENDBRANCH   6  10
BRANCH   1  15
ATOM     15  C   UNL     1      47.867   5.079  16.771  0.00  0.00    +0.000 C 
BRANCH  15  19
ATOM     16  C   UNL     1      50.878   2.092  17.277  0.00  0.00    +0.000 A 
ATOM     17  C   UNL     1      51.073   3.356  17.839  0.00  0.00    +0.000 A 
ATOM     18  C   UNL     1      50.080   4.326  17.732  0.00  0.00    +0.000 A 
ATOM     19  C   UNL     1      48.914   4.025  17.032  0.00  0.00    +0.000 A 
ATOM     20  N   UNL     1      48.694   2.796  16.498  0.00  0.00    +0.000 NA
ATOM     21  C   UNL     1      49.664   1.863  16.642  0.00  0.00    +0.000 A 
BRANCH  16  22
ATOM     22  C   UNL     1      51.924   1.015  17.388  0.00  0.00    +0.000 C 
BRANCH  22  23
ATOM     23  C   UNL     1      53.168   1.512  18.131  0.00  0.00    +0.000 C 
BRANCH  23  24
ATOM     24  N   UNL     1      53.968   0.396  18.632  0.00  0.00    +0.000 NA
ATOM     25  H   UNL     1      54.821   0.761  19.058  0.00  0.00    +0.000 HD
ATOM     26  H   UNL     1      54.273  -0.188  17.854  0.00  0.00    +0.000 HD
ENDBRANCH  23  24
ENDBRANCH  22  23
ENDBRANCH  16  22
ENDBRANCH  15  19
ENDBRANCH   1  15
TORSDOF 6
ENDMDL
