MODEL 1
REMARK VINA RESULT:    -8.677      0.000      0.000
REMARK INTER + INTRA:         -12.239
REMARK INTER:                 -11.720
REMARK INTRA:                  -0.519
REMARK UNBOUND:                -0.519
REMARK  Name = 
REMARK  7 active torsions:
REMARK  status: ('A' for Active; 'I' for Inactive)
REMARK    1  A    between atoms: C_1  and  C_2
REMARK    2  A    between atoms: C_2  and  N_3
REMARK    3  A    between atoms: C_2  and  C_16
REMARK    4  A    between atoms: C_4  and  C_6
REMARK    5  A    between atoms: C_19  and  O_20
REMARK    6  A    between atoms: O_20  and  C_21
REMARK    7  A    between atoms: C_21  and  C_22
REMARK                            x       y       z     vdW  Elec       q    Type
REMARK                         _______ _______ _______ _____ _____    ______ ____
ROOT
ATOM      1  C   UNL     1      47.804   8.995  12.266  0.00  0.00    +0.000 C 
ATOM      2  C   UNL     1      46.720   8.288  13.090  0.00  0.00    +0.000 C 
ENDROOT
BRANCH   2   3
ATOM      3  C   UNL     1      46.053   7.143  12.351  0.00  0.00    +0.000 A 
ATOM      4  C   UNL     1      46.522   6.753  11.084  0.00  0.00    +0.000 A 
ATOM      5  C   UNL     1      45.956   5.661  10.422  0.00  0.00    +0.000 A 
ATOM      6  C   UNL     1      44.919   4.944  11.014  0.00  0.00    +0.000 A 
ATOM      7  C   UNL     1      44.374   5.394  12.217  0.00  0.00    +0.000 A 
ATOM      8  C   UNL     1      44.937   6.479  12.879  0.00  0.00    +0.000 A 
BRANCH   6   9
ATOM      9  O   UNL     1      44.505   3.815  10.361  0.00  0.00    +0.000 OA
BRANCH   9  10
ATOM     10  C   UNL     1      44.404   3.974   8.939  0.00  0.00    +0.000 C 
BRANCH  10  11
ATOM     11  C   UNL     1      45.399   3.091   8.230  0.00  0.00    +0.000 A 
ATOM     12  C   UNL     1      46.252   3.636   7.271  0.00  0.00    +0.000 A 
ATOM     13  C   UNL     1      47.208   2.817   6.683  0.00  0.00    +0.000 A 
ATOM     14  C   UNL     1      47.291   1.484   7.067  0.00  0.00    +0.000 A 
ATOM     15  C   UNL     1      46.411   1.024   8.033  0.00  0.00    +0.000 A 
ATOM     16  N   UNL     1      45.477   1.795   8.625  0.00  0.00    +0.000 NA
ENDBRANCH  10  11
ENDBRANCH   9  10
ENDBRANCH   6   9
ENDBRANCH   2   3
BRANCH   2  17
ATOM     17  N   UNL     1      47.278   7.781  14.325  0.00  0.00    +0.000 N 
ATOM     18  C   UNL     1      48.320   6.894  14.347  0.00  0.00    +0.000 C 
ATOM     19  O   UNL     1      48.935   6.570  13.337  0.00  0.00    +0.000 OA
ATOM     20  H   UNL     1      46.707   7.897  15.154  0.00  0.00    +0.000 HD
BRANCH  18  21
ATOM     21  C   UNL     1      48.691   6.381  15.666  0.00  0.00    +0.000 A 
ATOM     22  C   UNL     1      49.632   7.055  16.431  0.00  0.00    +0.000 A 
ATOM     23  S   UNL     1      49.954   6.306  17.929  0.00  0.00    +0.000 S 
ATOM     24  C   UNL     1      48.880   5.033  17.587  0.00  0.00    +0.000 A 
ATOM     25  N   UNL     1      48.717   4.001  18.456  0.00  0.00    +0.000 NA
ATOM     26  C   UNL     1      47.901   3.087  18.050  0.00  0.00    +0.000 A 
ATOM     27  N   UNL     1      47.218   3.117  16.863  0.00  0.00    +0.000 N 
ATOM     28  C   UNL     1      47.306   4.163  15.978  0.00  0.00    +0.000 A 
ATOM     29  O   UNL     1      46.609   4.208  14.966  0.00  0.00    +0.000 OA
ATOM     30  C   UNL     1      48.251   5.195  16.365  0.00  0.00    +0.000 A 
ATOM     31  H   UNL     1      46.570   2.381  16.622  0.00  0.00    +0.000 HD
ENDBRANCH  18  21
ENDBRANCH   2  17
TORSDOF 6
ENDMDL
MODEL 2
REMARK VINA RESULT:    -8.238      1.911      2.535
REMARK INTER + INTRA:         -11.647
REMARK INTER:                 -10.739
REMARK INTRA:                  -0.908
REMARK UNBOUND:                -0.519
REMARK  Name = 
REMARK  7 active torsions:
REMARK  status: ('A' for Active; 'I' for Inactive)
REMARK    1  A    between atoms: C_1  and  C_2
REMARK    2  A    between atoms: C_2  and  N_3
REMARK    3  A    between atoms: C_2  and  C_16
REMARK    4  A    between atoms: C_4  and  C_6
REMARK    5  A    between atoms: C_19  and  O_20
REMARK    6  A    between atoms: O_20  and  C_21
REMARK    7  A    between atoms: C_21  and  C_22
REMARK                            x       y       z     vdW  Elec       q    Type
REMARK                         _______ _______ _______ _____ _____    ______ ____
ROOT
ATOM      1  C   UNL     1      49.019   7.127  12.512  0.00  0.00    +0.000 C 
ATOM      2  C   UNL     1      47.748   6.764  13.291  0.00  0.00    +0.000 C 
ENDROOT
BRANCH   2   3
ATOM      3  C   UNL     1      46.737   5.991  12.466  0.00  0.00    +0.000 A 
ATOM      4  C   UNL     1      46.310   6.491  11.224  0.00  0.00    +0.000 A 
ATOM      5  C   UNL     1      45.426   5.758  10.427  0.00  0.00    +0.000 A 
ATOM      6  C   UNL     1      44.961   4.517  10.859  0.00  0.00    +0.000 A 
ATOM      7  C   UNL     1      45.291   4.068  12.138  0.00  0.00    +0.000 A 
ATOM      8  C   UNL     1      46.171   4.795  12.930  0.00  0.00    +0.000 A 
BRANCH   6   9
ATOM      9  O   UNL     1      44.202   3.806   9.969  0.00  0.00    +0.000 OA
BRANCH   9  10
ATOM     10  C   UNL     1      44.643   2.455   9.782  0.00  0.00    +0.000 C 
BRANCH  10  11
ATOM     11  C   UNL     1      45.496   2.336   8.545  0.00  0.00    +0.000 A 
ATOM     12  C   UNL     1      45.579   3.404   7.653  0.00  0.00    +0.000 A 
ATOM     13  C   UNL     1      46.428   3.295   6.557  0.00  0.00    +0.000 A 
ATOM     14  C   UNL     1      47.169   2.133   6.383  0.00  0.00    +0.000 A 
ATOM     15  C   UNL     1      47.033   1.122   7.320  0.00  0.00    +0.000 A 
ATOM     16  N   UNL     1      46.223   1.200   8.395  0.00  0.00    +0.000 NA
ENDBRANCH  10  11
ENDBRANCH   9  10
ENDBRANCH   6   9
ENDBRANCH   2   3
BRANCH   2  17
ATOM     17  N   UNL     1      48.082   5.988  14.465  0.00  0.00    +0.000 N 
ATOM     18  C   UNL     1      48.561   6.564  15.610  0.00  0.00    +0.000 C 
ATOM     19  O   UNL     1      48.616   7.779  15.767  0.00  0.00    +0.000 OA
ATOM     20  H   UNL     1      48.200   4.992  14.323  0.00  0.00    +0.000 HD
BRANCH  18  21
ATOM     21  C   UNL     1      48.968   5.636  16.667  0.00  0.00    +0.000 A 
ATOM     22  C   UNL     1      48.015   4.860  17.310  0.00  0.00    +0.000 A 
ATOM     23  S   UNL     1      48.666   3.852  18.522  0.00  0.00    +0.000 S 
ATOM     24  C   UNL     1      50.234   4.452  18.259  0.00  0.00    +0.000 A 
ATOM     25  N   UNL     1      51.282   4.034  19.017  0.00  0.00    +0.000 NA
ATOM     26  C   UNL     1      52.406   4.601  18.733  0.00  0.00    +0.000 A 
ATOM     27  N   UNL     1      52.584   5.538  17.748  0.00  0.00    +0.000 N 
ATOM     28  C   UNL     1      51.570   5.952  16.921  0.00  0.00    +0.000 A 
ATOM     29  O   UNL     1      51.779   6.721  15.984  0.00  0.00    +0.000 OA
ATOM     30  C   UNL     1      50.273   5.379  17.232  0.00  0.00    +0.000 A 
ATOM     31  H   UNL     1      53.500   5.919  17.559  0.00  0.00    +0.000 HD
ENDBRANCH  18  21
ENDBRANCH   2  17
TORSDOF 6
ENDMDL
MODEL 3
REMARK VINA RESULT:    -7.945      2.639      3.592
REMARK INTER + INTRA:         -11.251
REMARK INTER:                 -10.072
REMARK INTRA:                  -1.180
REMARK UNBOUND:                -0.519
REMARK  Name = 
REMARK  7 active torsions:
REMARK  status: ('A' for Active; 'I' for Inactive)
REMARK    1  A    between atoms: C_1  and  C_2
REMARK    2  A    between atoms: C_2  and  N_3
REMARK    3  A    between atoms: C_2  and  C_16
REMARK    4  A    between atoms: C_4  and  C_6
REMARK    5  A    between atoms: C_19  and  O_20
REMARK    6  A    between atoms: O_20  and  C_21
REMARK    7  A    between atoms: C_21  and  C_22
REMARK                            x       y       z     vdW  Elec       q    Type
REMARK                         _______ _______ _______ _____ _____    ______ ____
ROOT
ATOM      1  C   UNL     1      47.298   3.957  16.196  0.00  0.00    +0.000 C 
ATOM      2  C   UNL     1      47.784   4.867  15.059  0.00  0.00    +0.000 C 
ENDROOT
BRANCH   2   3
ATOM      3  C   UNL     1      46.932   4.772  13.807  0.00  0.00    +0.000 A 
ATOM      4  C   UNL     1      46.280   3.568  13.488  0.00  0.00    +0.000 A 
ATOM      5  C   UNL     1      45.444   3.487  12.372  0.00  0.00    +0.000 A 
ATOM      6  C   UNL     1      45.248   4.604  11.562  0.00  0.00    +0.000 A 
ATOM      7  C   UNL     1      45.980   5.766  11.808  0.00  0.00    +0.000 A 
ATOM      8  C   UNL     1      46.810   5.849  12.919  0.00  0.00    +0.000 A 
BRANCH   6   9
ATOM      9  O   UNL     1      44.318   4.479  10.564  0.00  0.00    +0.000 OA
BRANCH   9  10
ATOM     10  C   UNL     1      44.150   3.135  10.096  0.00  0.00    +0.000 C 
BRANCH  10  11
ATOM     11  C   UNL     1      45.078   2.850   8.943  0.00  0.00    +0.000 A 
ATOM     12  C   UNL     1      45.399   3.864   8.042  0.00  0.00    +0.000 A 
ATOM     13  C   UNL     1      46.313   3.594   7.030  0.00  0.00    +0.000 A 
ATOM     14  C   UNL     1      46.881   2.329   6.946  0.00  0.00    +0.000 A 
ATOM     15  C   UNL     1      46.514   1.381   7.886  0.00  0.00    +0.000 A 
ATOM     16  N   UNL     1      45.635   1.614   8.882  0.00  0.00    +0.000 NA
ENDBRANCH  10  11
ENDBRANCH   9  10
ENDBRANCH   6   9
ENDBRANCH   2   3
BRANCH   2  17
ATOM     17  N   UNL     1      47.815   6.246  15.496  0.00  0.00    +0.000 N 
ATOM     18  C   UNL     1      48.976   6.870  15.864  0.00  0.00    +0.000 C 
ATOM     19  O   UNL     1      50.079   6.352  15.725  0.00  0.00    +0.000 OA
ATOM     20  H   UNL     1      46.926   6.647  15.772  0.00  0.00    +0.000 HD
BRANCH  18  21
ATOM     21  C   UNL     1      48.829   8.224  16.399  0.00  0.00    +0.000 A 
ATOM     22  C   UNL     1      49.292   9.310  15.670  0.00  0.00    +0.000 A 
ATOM     23  S   UNL     1      49.052  10.806  16.452  0.00  0.00    +0.000 S 
ATOM     24  C   UNL     1      48.362  10.050  17.810  0.00  0.00    +0.000 A 
ATOM     25  N   UNL     1      47.975  10.772  18.894  0.00  0.00    +0.000 NA
ATOM     26  C   UNL     1      47.504  10.065  19.865  0.00  0.00    +0.000 A 
ATOM     27  N   UNL     1      47.369   8.702  19.849  0.00  0.00    +0.000 N 
ATOM     28  C   UNL     1      47.695   7.933  18.758  0.00  0.00    +0.000 A 
ATOM     29  O   UNL     1      47.474   6.723  18.736  0.00  0.00    +0.000 OA
ATOM     30  C   UNL     1      48.276   8.677  17.655  0.00  0.00    +0.000 A 
ATOM     31  H   UNL     1      46.964   8.213  20.634  0.00  0.00    +0.000 HD
ENDBRANCH  18  21
ENDBRANCH   2  17
TORSDOF 6
ENDMDL
MODEL 4
REMARK VINA RESULT:    -7.864      3.153      4.362
REMARK INTER + INTRA:         -11.141
REMARK INTER:                 -10.203
REMARK INTRA:                  -0.938
REMARK UNBOUND:                -0.519
REMARK  Name = 
REMARK  7 active torsions:
REMARK  status: ('A' for Active; 'I' for Inactive)
REMARK    1  A    between atoms: C_1  and  C_2
REMARK    2  A    between atoms: C_2  and  N_3
REMARK    3  A    between atoms: C_2  and  C_16
REMARK    4  A    between atoms: C_4  and  C_6
REMARK    5  A    between atoms: C_19  and  O_20
REMARK    6  A    between atoms: O_20  and  C_21
REMARK    7  A    between atoms: C_21  and  C_22
REMARK                            x       y       z     vdW  Elec       q    Type
REMARK                         _______ _______ _______ _____ _____    ______ ____
ROOT
ATOM      1  C   UNL     1      45.544   8.843  12.867  0.00  0.00    +0.000 C 
ATOM      2  C   UNL     1      46.473   7.643  13.093  0.00  0.00    +0.000 C 
ENDROOT
BRANCH   2   3
ATOM      3  C   UNL     1      45.962   6.360  12.465  0.00  0.00    +0.000 A 
ATOM      4  C   UNL     1      45.582   6.340  11.111  0.00  0.00    +0.000 A 
ATOM      5  C   UNL     1      45.169   5.150  10.507  0.00  0.00    +0.000 A 
ATOM      6  C   UNL     1      45.132   3.967  11.243  0.00  0.00    +0.000 A 
ATOM      7  C   UNL     1      45.398   4.003  12.611  0.00  0.00    +0.000 A 
ATOM      8  C   UNL     1      45.811   5.185  13.214  0.00  0.00    +0.000 A 
BRANCH   6   9
ATOM      9  O   UNL     1      44.839   2.824  10.548  0.00  0.00    +0.000 OA
BRANCH   9  10
ATOM     10  C   UNL     1      44.480   3.056   9.179  0.00  0.00    +0.000 C 
BRANCH  10  11
ATOM     11  C   UNL     1      45.553   2.545   8.251  0.00  0.00    +0.000 A 
ATOM     12  C   UNL     1      46.142   3.407   7.328  0.00  0.00    +0.000 A 
ATOM     13  C   UNL     1      47.178   2.930   6.533  0.00  0.00    +0.000 A 
ATOM     14  C   UNL     1      47.598   1.614   6.682  0.00  0.00    +0.000 A 
ATOM     15  C   UNL     1      46.964   0.825   7.628  0.00  0.00    +0.000 A 
ATOM     16  N   UNL     1      45.962   1.261   8.417  0.00  0.00    +0.000 NA
ENDBRANCH  10  11
ENDBRANCH   9  10
ENDBRANCH   6   9
ENDBRANCH   2   3
BRANCH   2  17
ATOM     17  N   UNL     1      47.793   7.923  12.570  0.00  0.00    +0.000 N 
ATOM     18  C   UNL     1      48.928   7.425  13.150  0.00  0.00    +0.000 C 
ATOM     19  O   UNL     1      48.902   6.607  14.063  0.00  0.00    +0.000 OA
ATOM     20  H   UNL     1      47.863   8.705  11.931  0.00  0.00    +0.000 HD
BRANCH  18  21
ATOM     21  C   UNL     1      50.192   7.896  12.580  0.00  0.00    +0.000 A 
ATOM     22  C   UNL     1      50.482   7.652  11.246  0.00  0.00    +0.000 A 
ATOM     23  S   UNL     1      52.001   8.256  10.760  0.00  0.00    +0.000 S 
ATOM     24  C   UNL     1      52.340   8.824  12.326  0.00  0.00    +0.000 A 
ATOM     25  N   UNL     1      53.529   9.414  12.616  0.00  0.00    +0.000 NA
ATOM     26  C   UNL     1      53.665   9.761  13.852  0.00  0.00    +0.000 A 
ATOM     27  N   UNL     1      52.714   9.588  14.823  0.00  0.00    +0.000 N 
ATOM     28  C   UNL     1      51.478   9.047  14.569  0.00  0.00    +0.000 A 
ATOM     29  O   UNL     1      50.610   8.992  15.439  0.00  0.00    +0.000 OA
ATOM     30  C   UNL     1      51.293   8.595  13.202  0.00  0.00    +0.000 A 
ATOM     31  H   UNL     1      52.875   9.911  15.767  0.00  0.00    +0.000 HD
ENDBRANCH  18  21
ENDBRANCH   2  17
TORSDOF 6
ENDMDL
MODEL 5
REMARK VINA RESULT:    -7.786      2.044      2.475
REMARK INTER + INTRA:         -11.036
REMARK INTER:                 -10.057
REMARK INTRA:                  -0.979
REMARK UNBOUND:                -0.519
REMARK  Name = 
REMARK  7 active torsions:
REMARK  status: ('A' for Active; 'I' for Inactive)
REMARK    1  A    between atoms: C_1  and  C_2
REMARK    2  A    between atoms: C_2  and  N_3
REMARK    3  A    between atoms: C_2  and  C_16
REMARK    4  A    between atoms: C_4  and  C_6
REMARK    5  A    between atoms: C_19  and  O_20
REMARK    6  A    between atoms: O_20  and  C_21
REMARK    7  A    between atoms: C_21  and  C_22
REMARK                            x       y       z     vdW  Elec       q    Type
REMARK                         _______ _______ _______ _____ _____    ______ ____
ROOT
ATOM      1  C   UNL     1      49.345   7.363  12.877  0.00  0.00    +0.000 C 
ATOM      2  C   UNL     1      48.149   7.101  13.803  0.00  0.00    +0.000 C 
ENDROOT
BRANCH   2   3
ATOM      3  C   UNL     1      47.050   6.285  13.148  0.00  0.00    +0.000 A 
ATOM      4  C   UNL     1      46.277   6.843  12.115  0.00  0.00    +0.000 A 
ATOM      5  C   UNL     1      45.304   6.081  11.463  0.00  0.00    +0.000 A 
ATOM      6  C   UNL     1      45.092   4.754  11.833  0.00  0.00    +0.000 A 
ATOM      7  C   UNL     1      45.775   4.230  12.931  0.00  0.00    +0.000 A 
ATOM      8  C   UNL     1      46.745   4.986  13.578  0.00  0.00    +0.000 A 
BRANCH   6   9
ATOM      9  O   UNL     1      44.213   4.039  11.064  0.00  0.00    +0.000 OA
BRANCH   9  10
ATOM     10  C   UNL     1      44.167   4.461   9.695  0.00  0.00    +0.000 C 
BRANCH  10  11
ATOM     11  C   UNL     1      45.153   3.682   8.862  0.00  0.00    +0.000 A 
ATOM     12  C   UNL     1      45.258   2.301   9.020  0.00  0.00    +0.000 A 
ATOM     13  C   UNL     1      46.123   1.596   8.191  0.00  0.00    +0.000 A 
ATOM     14  C   UNL     1      46.853   2.284   7.228  0.00  0.00    +0.000 A 
ATOM     15  C   UNL     1      46.683   3.655   7.131  0.00  0.00    +0.000 A 
ATOM     16  N   UNL     1      45.849   4.364   7.917  0.00  0.00    +0.000 NA
ENDBRANCH  10  11
ENDBRANCH   9  10
ENDBRANCH   6   9
ENDBRANCH   2   3
BRANCH   2  17
ATOM     17  N   UNL     1      48.581   6.420  15.004  0.00  0.00    +0.000 N 
ATOM     18  C   UNL     1      48.911   7.095  16.147  0.00  0.00    +0.000 C 
ATOM     19  O   UNL     1      48.739   8.302  16.277  0.00  0.00    +0.000 OA
ATOM     20  H   UNL     1      48.883   5.460  14.888  0.00  0.00    +0.000 HD
BRANCH  18  21
ATOM     21  C   UNL     1      49.447   6.277  17.237  0.00  0.00    +0.000 A 
ATOM     22  C   UNL     1      50.599   5.530  17.038  0.00  0.00    +0.000 A 
ATOM     23  S   UNL     1      51.067   4.627  18.407  0.00  0.00    +0.000 S 
ATOM     24  C   UNL     1      49.723   5.169  19.295  0.00  0.00    +0.000 A 
ATOM     25  N   UNL     1      49.492   4.725  20.559  0.00  0.00    +0.000 NA
ATOM     26  C   UNL     1      48.415   5.190  21.098  0.00  0.00    +0.000 A 
ATOM     27  N   UNL     1      47.555   6.071  20.498  0.00  0.00    +0.000 N 
ATOM     28  C   UNL     1      47.773   6.590  19.245  0.00  0.00    +0.000 A 
ATOM     29  O   UNL     1      47.035   7.451  18.770  0.00  0.00    +0.000 OA
ATOM     30  C   UNL     1      48.947   6.060  18.575  0.00  0.00    +0.000 A 
ATOM     31  H   UNL     1      46.745   6.418  20.991  0.00  0.00    +0.000 HD
ENDBRANCH  18  21
ENDBRANCH   2  17
TORSDOF 6
ENDMDL
MODEL 6
REMARK VINA RESULT:    -7.584      1.688      2.238
REMARK INTER + INTRA:         -10.764
REMARK INTER:                 -10.458
REMARK INTRA:                  -0.306
REMARK UNBOUND:                -0.519
REMARK  Name = 
REMARK  7 active torsions:
REMARK  status: ('A' for Active; 'I' for Inactive)
REMARK    1  A    between atoms: C_1  and  C_2
REMARK    2  A    between atoms: C_2  and  N_3
REMARK    3  A    between atoms: C_2  and  C_16
REMARK    4  A    between atoms: C_4  and  C_6
REMARK    5  A    between atoms: C_19  and  O_20
REMARK    6  A    between atoms: O_20  and  C_21
REMARK    7  A    between atoms: C_21  and  C_22
REMARK                            x       y       z     vdW  Elec       q    Type
REMARK                         _______ _______ _______ _____ _____    ______ ____
ROOT
ATOM      1  C   UNL     1      45.438   9.181  12.054  0.00  0.00    +0.000 C 
ATOM      2  C   UNL     1      45.566   8.016  13.044  0.00  0.00    +0.000 C 
ENDROOT
BRANCH   2   3
ATOM      3  C   UNL     1      45.480   6.653  12.383  0.00  0.00    +0.000 A 
ATOM      4  C   UNL     1      45.511   5.486  13.166  0.00  0.00    +0.000 A 
ATOM      5  C   UNL     1      45.370   4.229  12.574  0.00  0.00    +0.000 A 
ATOM      6  C   UNL     1      45.195   4.120  11.196  0.00  0.00    +0.000 A 
ATOM      7  C   UNL     1      45.276   5.264  10.402  0.00  0.00    +0.000 A 
ATOM      8  C   UNL     1      45.414   6.516  10.989  0.00  0.00    +0.000 A 
BRANCH   6   9
ATOM      9  O   UNL     1      44.938   2.866  10.710  0.00  0.00    +0.000 OA
BRANCH   9  10
ATOM     10  C   UNL     1      44.411   2.859   9.377  0.00  0.00    +0.000 C 
BRANCH  10  11
ATOM     11  C   UNL     1      45.470   2.447   8.385  0.00  0.00    +0.000 A 
ATOM     12  C   UNL     1      45.979   3.380   7.484  0.00  0.00    +0.000 A 
ATOM     13  C   UNL     1      47.004   2.993   6.628  0.00  0.00    +0.000 A 
ATOM     14  C   UNL     1      47.493   1.694   6.697  0.00  0.00    +0.000 A 
ATOM     15  C   UNL     1      46.937   0.832   7.627  0.00  0.00    +0.000 A 
ATOM     16  N   UNL     1      45.947   1.179   8.474  0.00  0.00    +0.000 NA
ENDBRANCH  10  11
ENDBRANCH   9  10
ENDBRANCH   6   9
ENDBRANCH   2   3
BRANCH   2  17
ATOM     17  N   UNL     1      46.816   8.104  13.767  0.00  0.00    +0.000 N 
ATOM     18  C   UNL     1      48.028   7.934  13.154  0.00  0.00    +0.000 C 
ATOM     19  O   UNL     1      48.146   7.828  11.938  0.00  0.00    +0.000 OA
ATOM     20  H   UNL     1      46.754   8.031  14.775  0.00  0.00    +0.000 HD
BRANCH  18  21
ATOM     21  C   UNL     1      49.194   7.930  14.039  0.00  0.00    +0.000 A 
ATOM     22  C   UNL     1      50.230   8.826  13.820  0.00  0.00    +0.000 A 
ATOM     23  S   UNL     1      51.510   8.668  14.936  0.00  0.00    +0.000 S 
ATOM     24  C   UNL     1      50.742   7.370  15.720  0.00  0.00    +0.000 A 
ATOM     25  N   UNL     1      51.340   6.724  16.756  0.00  0.00    +0.000 NA
ATOM     26  C   UNL     1      50.660   5.734  17.230  0.00  0.00    +0.000 A 
ATOM     27  N   UNL     1      49.430   5.339  16.775  0.00  0.00    +0.000 N 
ATOM     28  C   UNL     1      48.762   5.991  15.768  0.00  0.00    +0.000 A 
ATOM     29  O   UNL     1      47.618   5.674  15.445  0.00  0.00    +0.000 OA
ATOM     30  C   UNL     1      49.506   7.083  15.167  0.00  0.00    +0.000 A 
ATOM     31  H   UNL     1      48.939   4.572  17.213  0.00  0.00    +0.000 HD
ENDBRANCH  18  21
ENDBRANCH   2  17
TORSDOF 6
ENDMDL
MODEL 7
REMARK VINA RESULT:    -7.523      2.708      4.224
REMARK INTER + INTRA:         -10.680
REMARK INTER:                  -9.545
REMARK INTRA:                  -1.135
REMARK UNBOUND:                -0.519
REMARK  Name = 
REMARK  7 active torsions:
REMARK  status: ('A' for Active; 'I' for Inactive)
REMARK    1  A    between atoms: C_1  and  C_2
REMARK    2  A    between atoms: C_2  and  N_3
REMARK    3  A    between atoms: C_2  and  C_16
REMARK    4  A    between atoms: C_4  and  C_6
REMARK    5  A    between atoms: C_19  and  O_20
REMARK    6  A    between atoms: O_20  and  C_21
REMARK    7  A    between atoms: C_21  and  C_22
REMARK                            x       y       z     vdW  Elec       q    Type
REMARK                         _______ _______ _______ _____ _____    ______ ____
ROOT
ATOM      1  C   UNL     1      47.177   3.555  16.553  0.00  0.00    +0.000 C 
ATOM      2  C   UNL     1      47.851   4.730  15.831  0.00  0.00    +0.000 C 
ENDROOT
BRANCH   2   3
ATOM      3  C   UNL     1      47.217   5.056  14.491  0.00  0.00    +0.000 A 
ATOM      4  C   UNL     1      46.095   4.334  14.049  0.00  0.00    +0.000 A 
ATOM      5  C   UNL     1      45.465   4.666  12.846  0.00  0.00    +0.000 A 
ATOM      6  C   UNL     1      45.945   5.722  12.074  0.00  0.00    +0.000 A 
ATOM      7  C   UNL     1      47.124   6.367  12.450  0.00  0.00    +0.000 A 
ATOM      8  C   UNL     1      47.750   6.039  13.647  0.00  0.00    +0.000 A 
BRANCH   6   9
ATOM      9  O   UNL     1      45.200   6.065  10.977  0.00  0.00    +0.000 OA
BRANCH   9  10
ATOM     10  C   UNL     1      44.321   5.026  10.528  0.00  0.00    +0.000 C 
BRANCH  10  11
ATOM     11  C   UNL     1      45.026   4.108   9.562  0.00  0.00    +0.000 A 
ATOM     12  C   UNL     1      44.911   2.726   9.706  0.00  0.00    +0.000 A 
ATOM     13  C   UNL     1      45.513   1.903   8.761  0.00  0.00    +0.000 A 
ATOM     14  C   UNL     1      46.205   2.476   7.702  0.00  0.00    +0.000 A 
ATOM     15  C   UNL     1      46.264   3.858   7.628  0.00  0.00    +0.000 A 
ATOM     16  N   UNL     1      45.687   4.683   8.525  0.00  0.00    +0.000 NA
ENDBRANCH  10  11
ENDBRANCH   9  10
ENDBRANCH   6   9
ENDBRANCH   2   3
BRANCH   2  17
ATOM     17  N   UNL     1      47.820   5.915  16.660  0.00  0.00    +0.000 N 
ATOM     18  C   UNL     1      48.798   6.189  17.578  0.00  0.00    +0.000 C 
ATOM     19  O   UNL     1      49.826   5.527  17.669  0.00  0.00    +0.000 OA
ATOM     20  H   UNL     1      46.928   6.390  16.727  0.00  0.00    +0.000 HD
BRANCH  18  21
ATOM     21  C   UNL     1      48.563   7.360  18.426  0.00  0.00    +0.000 A 
ATOM     22  C   UNL     1      48.510   7.215  19.804  0.00  0.00    +0.000 A 
ATOM     23  S   UNL     1      48.213   8.678  20.630  0.00  0.00    +0.000 S 
ATOM     24  C   UNL     1      48.102   9.544  19.171  0.00  0.00    +0.000 A 
ATOM     25  N   UNL     1      47.807  10.871  19.164  0.00  0.00    +0.000 NA
ATOM     26  C   UNL     1      47.717  11.390  17.986  0.00  0.00    +0.000 A 
ATOM     27  N   UNL     1      47.910  10.710  16.812  0.00  0.00    +0.000 N 
ATOM     28  C   UNL     1      48.263   9.384  16.768  0.00  0.00    +0.000 A 
ATOM     29  O   UNL     1      48.524   8.824  15.705  0.00  0.00    +0.000 OA
ATOM     30  C   UNL     1      48.329   8.740  18.068  0.00  0.00    +0.000 A 
ATOM     31  H   UNL     1      47.854  11.188  15.924  0.00  0.00    +0.000 HD
ENDBRANCH  18  21
ENDBRANCH   2  17
TORSDOF 6
ENDMDL
MODEL 8
REMARK VINA RESULT:    -7.330      1.905      2.334
REMARK INTER + INTRA:         -10.420
REMARK INTER:                  -9.585
REMARK INTRA:                  -0.835
REMARK UNBOUND:                -0.519
REMARK  Name = 
REMARK  7 active torsions:
REMARK  status: ('A' for Active; 'I' for Inactive)
REMARK    1  A    between atoms: C_1  and  C_2
REMARK    2  A    between atoms: C_2  and  N_3
REMARK    3  A    between atoms: C_2  and  C_16
REMARK    4  A    between atoms: C_4  and  C_6
REMARK    5  A    between atoms: C_19  and  O_20
REMARK    6  A    between atoms: O_20  and  C_21
REMARK    7  A    between atoms: C_21  and  C_22
REMARK                            x       y       z     vdW  Elec       q    Type
REMARK                         _______ _______ _______ _____ _____    ______ ____
ROOT
ATOM      1  C   UNL     1      49.410   7.688  12.960  0.00  0.00    +0.000 C 
ATOM      2  C   UNL     1      48.004   8.042  13.461  0.00  0.00    +0.000 C 
ENDROOT
BRANCH   2   3
ATOM      3  C   UNL     1      46.901   7.282  12.747  0.00  0.00    +0.000 A 
ATOM      4  C   UNL     1      45.923   7.980  12.018  0.00  0.00    +0.000 A 
ATOM      5  C   UNL     1      44.939   7.288  11.306  0.00  0.00    +0.000 A 
ATOM      6  C   UNL     1      44.922   5.895  11.311  0.00  0.00    +0.000 A 
ATOM      7  C   UNL     1      45.820   5.201  12.122  0.00  0.00    +0.000 A 
ATOM      8  C   UNL     1      46.800   5.887  12.829  0.00  0.00    +0.000 A 
BRANCH   6   9
ATOM      9  O   UNL     1      44.008   5.292  10.489  0.00  0.00    +0.000 OA
BRANCH   9  10
ATOM     10  C   UNL     1      44.120   3.864  10.448  0.00  0.00    +0.000 C 
BRANCH  10  11
ATOM     11  C   UNL     1      45.028   3.429   9.326  0.00  0.00    +0.000 A 
ATOM     12  C   UNL     1      45.343   2.080   9.170  0.00  0.00    +0.000 A 
ATOM     13  C   UNL     1      46.124   1.698   8.086  0.00  0.00    +0.000 A 
ATOM     14  C   UNL     1      46.565   2.664   7.190  0.00  0.00    +0.000 A 
ATOM     15  C   UNL     1      46.200   3.982   7.414  0.00  0.00    +0.000 A 
ATOM     16  N   UNL     1      45.439   4.382   8.452  0.00  0.00    +0.000 NA
ENDBRANCH  10  11
ENDBRANCH   9  10
ENDBRANCH   6   9
ENDBRANCH   2   3
BRANCH   2  17
ATOM     17  N   UNL     1      47.897   7.790  14.882  0.00  0.00    +0.000 N 
ATOM     18  C   UNL     1      48.408   8.650  15.817  0.00  0.00    +0.000 C 
ATOM     19  O   UNL     1      48.869   9.748  15.525  0.00  0.00    +0.000 OA
ATOM     20  H   UNL     1      47.673   6.839  15.151  0.00  0.00    +0.000 HD
BRANCH  18  21
ATOM     21  C   UNL     1      48.330   8.197  17.207  0.00  0.00    +0.000 A 
ATOM     22  C   UNL     1      47.878   9.063  18.192  0.00  0.00    +0.000 A 
ATOM     23  S   UNL     1      47.870   8.373  19.751  0.00  0.00    +0.000 S 
ATOM     24  C   UNL     1      48.512   6.910  19.169  0.00  0.00    +0.000 A 
ATOM     25  N   UNL     1      48.804   5.886  20.014  0.00  0.00    +0.000 NA
ATOM     26  C   UNL     1      49.321   4.852  19.441  0.00  0.00    +0.000 A 
ATOM     27  N   UNL     1      49.560   4.739  18.096  0.00  0.00    +0.000 N 
ATOM     28  C   UNL     1      49.233   5.723  17.195  0.00  0.00    +0.000 A 
ATOM     29  O   UNL     1      49.371   5.556  15.985  0.00  0.00    +0.000 OA
ATOM     30  C   UNL     1      48.693   6.929  17.797  0.00  0.00    +0.000 A 
ATOM     31  H   UNL     1      49.940   3.887  17.709  0.00  0.00    +0.000 HD
ENDBRANCH  18  21
ENDBRANCH   2  17
TORSDOF 6
ENDMDL
MODEL 9
REMARK VINA RESULT:    -5.956      3.168      4.403
REMARK INTER + INTRA:          -8.564
REMARK INTER:                  -7.450
REMARK INTRA:                  -1.114
REMARK UNBOUND:                -0.519
REMARK  Name = 
REMARK  7 active torsions:
REMARK  status: ('A' for Active; 'I' for Inactive)
REMARK    1  A    between atoms: C_1  and  C_2
REMARK    2  A    between atoms: C_2  and  N_3
REMARK    3  A    between atoms: C_2  and  C_16
REMARK    4  A    between atoms: C_4  and  C_6
REMARK    5  A    between atoms: C_19  and  O_20
REMARK    6  A    between atoms: O_20  and  C_21
REMARK    7  A    between atoms: C_21  and  C_22
REMARK                            x       y       z     vdW  Elec       q    Type
REMARK                         _______ _______ _______ _____ _____    ______ ____
ROOT
ATOM      1  C   UNL     1      52.133   8.826  12.643  0.00  0.00    +0.000 C 
ATOM      2  C   UNL     1      51.164   8.482  13.782  0.00  0.00    +0.000 C 
ENDROOT
BRANCH   2   3
ATOM      3  C   UNL     1      49.815   7.986  13.296  0.00  0.00    +0.000 A 
ATOM      4  C   UNL     1      48.918   7.386  14.197  0.00  0.00    +0.000 A 
ATOM      5  C   UNL     1      47.649   6.981  13.773  0.00  0.00    +0.000 A 
ATOM      6  C   UNL     1      47.260   7.172  12.449  0.00  0.00    +0.000 A 
ATOM      7  C   UNL     1      48.185   7.662  11.526  0.00  0.00    +0.000 A 
ATOM      8  C   UNL     1      49.446   8.067  11.946  0.00  0.00    +0.000 A 
BRANCH   6   9
ATOM      9  O   UNL     1      45.961   6.867  12.144  0.00  0.00    +0.000 OA
BRANCH   9  10
ATOM     10  C   UNL     1      45.813   6.111  10.935  0.00  0.00    +0.000 C 
BRANCH  10  11
ATOM     11  C   UNL     1      44.907   4.926  11.151  0.00  0.00    +0.000 A 
ATOM     12  C   UNL     1      44.826   3.927  10.182  0.00  0.00    +0.000 A 
ATOM     13  C   UNL     1      44.038   2.811  10.436  0.00  0.00    +0.000 A 
ATOM     14  C   UNL     1      43.360   2.718  11.646  0.00  0.00    +0.000 A 
ATOM     15  C   UNL     1      43.501   3.751  12.558  0.00  0.00    +0.000 A 
ATOM     16  N   UNL     1      44.262   4.843  12.342  0.00  0.00    +0.000 NA
ENDBRANCH  10  11
ENDBRANCH   9  10
ENDBRANCH   6   9
ENDBRANCH   2   3
BRANCH   2  17
ATOM     17  N   UNL     1      51.743   7.479  14.650  0.00  0.00    +0.000 N 
ATOM     18  C   UNL     1      52.220   7.780  15.897  0.00  0.00    +0.000 C 
ATOM     19  O   UNL     1      52.073   8.882  16.415  0.00  0.00    +0.000 OA
ATOM     20  H   UNL     1      52.022   6.613  14.206  0.00  0.00    +0.000 HD
BRANCH  18  21
ATOM     21  C   UNL     1      52.887   6.685  16.604  0.00  0.00    +0.000 A 
ATOM     22  C   UNL     1      54.251   6.749  16.849  0.00  0.00    +0.000 A 
ATOM     23  S   UNL     1      54.859   5.381  17.666  0.00  0.00    +0.000 S 
ATOM     24  C   UNL     1      53.329   4.640  17.681  0.00  0.00    +0.000 A 
ATOM     25  N   UNL     1      53.158   3.396  18.202  0.00  0.00    +0.000 NA
ATOM     26  C   UNL     1      51.953   2.941  18.111  0.00  0.00    +0.000 A 
ATOM     27  N   UNL     1      50.898   3.622  17.563  0.00  0.00    +0.000 N 
ATOM     28  C   UNL     1      51.008   4.901  17.075  0.00  0.00    +0.000 A 
ATOM     29  O   UNL     1      50.024   5.523  16.677  0.00  0.00    +0.000 OA
ATOM     30  C   UNL     1      52.356   5.439  17.108  0.00  0.00    +0.000 A 
ATOM     31  H   UNL     1      49.972   3.218  17.553  0.00  0.00    +0.000 HD
ENDBRANCH  18  21
ENDBRANCH   2  17
TORSDOF 6
ENDMDL
