MODEL 1
REMARK VINA RESULT:    -5.868      0.000      0.000
REMARK INTER + INTRA:          -9.256
REMARK INTER:                  -7.926
REMARK INTRA:                  -1.330
REMARK UNBOUND:                -1.330
REMARK  Name = 
REMARK  7 active torsions:
REMARK  status: ('A' for Active; 'I' for Inactive)
REMARK    1  A    between atoms: C_1  and  O_2
REMARK    2  A    between atoms: O_2  and  C_3
REMARK    3  A    between atoms: C_10  and  C_11
REMARK    4  A    between atoms: N_13  and  C_14
REMARK    5  A    between atoms: C_14  and  C_15
REMARK    6  A    between atoms: C_18  and  C_19
REMARK    7  A    between atoms: C_20  and  C_21
REMARK                            x       y       z     vdW  Elec       q    Type
REMARK                         _______ _______ _______ _____ _____    ______ ____
ROOT
ATOM      1  C   UNL     1      52.000   4.894  19.960  0.00  0.00    +0.000 C 
ATOM      2  O   UNL     1      52.188   6.105  19.881  0.00  0.00    +0.000 OA
ATOM      3  N   UNL     1      50.739   4.367  19.938  0.00  0.00    +0.000 N 
ATOM      4  H   UNL     1      50.605   3.369  20.002  0.00  0.00    +0.000 HD
ENDROOT
BRANCH   1  12
ATOM      5  C   UNL     1      53.042   2.221  18.056  0.00  0.00    +0.000 A 
ATOM      6  N   UNL     1      53.695   1.202  17.465  0.00  0.00    +0.000 NA
ATOM      7  C   UNL     1      54.828   0.772  18.028  0.00  0.00    +0.000 A 
ATOM      8  N   UNL     1      55.395   1.233  19.141  0.00  0.00    +0.000 NA
ATOM      9  C   UNL     1      54.717   2.255  19.690  0.00  0.00    +0.000 A 
ATOM     10  S   UNL     1      55.288   2.963  21.124  0.00  0.00    +0.000 S 
ATOM     11  C   UNL     1      54.007   4.081  21.139  0.00  0.00    +0.000 A 
ATOM     12  C   UNL     1      53.132   3.951  20.067  0.00  0.00    +0.000 A 
ATOM     13  C   UNL     1      53.545   2.836  19.216  0.00  0.00    +0.000 A 
BRANCH   5  15
ATOM     14  C   UNL     1      50.889   1.660  17.334  0.00  0.00    +0.000 C 
ATOM     15  O   UNL     1      51.881   2.674  17.468  0.00  0.00    +0.000 OA
ENDBRANCH   5  15
ENDBRANCH   1  12
BRANCH   3  16
ATOM     16  C   UNL     1      49.562   5.189  19.806  0.00  0.00    +0.000 C 
BRANCH  16  17
ATOM     17  C   UNL     1      48.863   4.935  18.491  0.00  0.00    +0.000 A 
ATOM     18  C   UNL     1      49.016   5.826  17.422  0.00  0.00    +0.000 A 
ATOM     19  C   UNL     1      48.347   5.611  16.211  0.00  0.00    +0.000 A 
ATOM     20  C   UNL     1      47.505   4.503  16.036  0.00  0.00    +0.000 A 
ATOM     21  C   UNL     1      47.336   3.626  17.117  0.00  0.00    +0.000 A 
ATOM     22  C   UNL     1      48.007   3.837  18.329  0.00  0.00    +0.000 A 
BRANCH  20  23
ATOM     23  C   UNL     1      46.734   4.280  14.800  0.00  0.00    +0.000 C 
ATOM     24  C   UNL     1      46.799   5.059  13.706  0.00  0.00    +0.000 C 
BRANCH  24  25
ATOM     25  C   UNL     1      45.992   4.880  12.485  0.00  0.00    +0.000 A 
ATOM     26  C   UNL     1      45.947   5.835  11.459  0.00  0.00    +0.000 A 
ATOM     27  C   UNL     1      45.232   5.590  10.282  0.00  0.00    +0.000 A 
ATOM     28  C   UNL     1      44.560   4.383  10.111  0.00  0.00    +0.000 A 
ATOM     29  C   UNL     1      44.597   3.423  11.119  0.00  0.00    +0.000 A 
ATOM     30  C   UNL     1      45.310   3.670  12.296  0.00  0.00    +0.000 A 
ENDBRANCH  24  25
ENDBRANCH  20  23
ENDBRANCH  16  17
ENDBRANCH   3  16
TORSDOF 6
ENDMDL
MODEL 2
REMARK VINA RESULT:    -5.832      4.569      9.368
REMARK INTER + INTRA:          -9.209
REMARK INTER:                  -7.874
REMARK INTRA:                  -1.335
REMARK UNBOUND:                -1.330
REMARK  Name = 
REMARK  7 active torsions:
REMARK  status: ('A' for Active; 'I' for Inactive)
REMARK    1  A    between atoms: C_1  and  O_2
REMARK    2  A    between atoms: O_2  and  C_3
REMARK    3  A    between atoms: C_10  and  C_11
REMARK    4  A    between atoms: N_13  and  C_14
REMARK    5  A    between atoms: C_14  and  C_15
REMARK    6  A    between atoms: C_18  and  C_19
REMARK    7  A    between atoms: C_20  and  C_21
REMARK                            x       y       z     vdW  Elec       q    Type
REMARK                         _______ _______ _______ _____ _____    ______ ____
ROOT
ATOM      1  C   UNL     1      47.899   8.003  13.924  0.00  0.00    +0.000 C 
ATOM      2  O   UNL     1      48.766   8.692  13.396  0.00  0.00    +0.000 OA
ATOM      3  N   UNL     1      47.889   7.780  15.273  0.00  0.00    +0.000 N 
ATOM      4  H   UNL     1      47.166   7.212  15.689  0.00  0.00    +0.000 HD
ENDROOT
BRANCH   1  12
ATOM      5  C   UNL     1      46.654   4.802  13.676  0.00  0.00    +0.000 A 
ATOM      6  N   UNL     1      45.946   3.680  13.443  0.00  0.00    +0.000 NA
ATOM      7  C   UNL     1      44.916   3.754  12.594  0.00  0.00    +0.000 A 
ATOM      8  N   UNL     1      44.506   4.827  11.924  0.00  0.00    +0.000 NA
ATOM      9  C   UNL     1      45.232   5.925  12.195  0.00  0.00    +0.000 A 
ATOM     10  S   UNL     1      44.858   7.389  11.421  0.00  0.00    +0.000 S 
ATOM     11  C   UNL     1      46.102   8.200  12.247  0.00  0.00    +0.000 A 
ATOM     12  C   UNL     1      46.816   7.394  13.125  0.00  0.00    +0.000 A 
ATOM     13  C   UNL     1      46.310   6.023  13.069  0.00  0.00    +0.000 A 
BRANCH   5  15
ATOM     14  C   UNL     1      47.431   3.910  15.694  0.00  0.00    +0.000 C 
ATOM     15  O   UNL     1      47.708   4.730  14.562  0.00  0.00    +0.000 OA
ENDBRANCH   5  15
ENDBRANCH   1  12
BRANCH   3  16
ATOM     16  C   UNL     1      48.878   8.349  16.155  0.00  0.00    +0.000 C 
BRANCH  16  17
ATOM     17  C   UNL     1      49.880   7.309  16.596  0.00  0.00    +0.000 A 
ATOM     18  C   UNL     1      51.203   7.358  16.140  0.00  0.00    +0.000 A 
ATOM     19  C   UNL     1      52.128   6.380  16.522  0.00  0.00    +0.000 A 
ATOM     20  C   UNL     1      51.757   5.324  17.366  0.00  0.00    +0.000 A 
ATOM     21  C   UNL     1      50.426   5.264  17.802  0.00  0.00    +0.000 A 
ATOM     22  C   UNL     1      49.498   6.244  17.423  0.00  0.00    +0.000 A 
BRANCH  20  23
ATOM     23  C   UNL     1      52.686   4.240  17.737  0.00  0.00    +0.000 C 
ATOM     24  C   UNL     1      52.334   2.952  17.896  0.00  0.00    +0.000 C 
BRANCH  24  25
ATOM     25  C   UNL     1      53.240   1.869  18.321  0.00  0.00    +0.000 A 
ATOM     26  C   UNL     1      53.143   0.561  17.824  0.00  0.00    +0.000 A 
ATOM     27  C   UNL     1      54.074  -0.416  18.193  0.00  0.00    +0.000 A 
ATOM     28  C   UNL     1      55.119  -0.097  19.056  0.00  0.00    +0.000 A 
ATOM     29  C   UNL     1      55.230   1.198  19.555  0.00  0.00    +0.000 A 
ATOM     30  C   UNL     1      54.299   2.174  19.188  0.00  0.00    +0.000 A 
ENDBRANCH  24  25
ENDBRANCH  20  23
ENDBRANCH  16  17
ENDBRANCH   3  16
TORSDOF 6
ENDMDL
MODEL 3
REMARK VINA RESULT:    -5.686      2.203      2.870
REMARK INTER + INTRA:          -9.011
REMARK INTER:                  -7.903
REMARK INTRA:                  -1.107
REMARK UNBOUND:                -1.330
REMARK  Name = 
REMARK  7 active torsions:
REMARK  status: ('A' for Active; 'I' for Inactive)
REMARK    1  A    between atoms: C_1  and  O_2
REMARK    2  A    between atoms: O_2  and  C_3
REMARK    3  A    between atoms: C_10  and  C_11
REMARK    4  A    between atoms: N_13  and  C_14
REMARK    5  A    between atoms: C_14  and  C_15
REMARK    6  A    between atoms: C_18  and  C_19
REMARK    7  A    between atoms: C_20  and  C_21
REMARK                            x       y       z     vdW  Elec       q    Type
REMARK                         _______ _______ _______ _____ _____    ______ ____
ROOT
ATOM      1  C   UNL     1      52.631   5.861  17.935  0.00  0.00    +0.000 C 
ATOM      2  O   UNL     1      52.140   6.596  18.787  0.00  0.00    +0.000 OA
ATOM      3  N   UNL     1      52.704   6.242  16.623  0.00  0.00    +0.000 N 
ATOM      4  H   UNL     1      53.114   5.625  15.938  0.00  0.00    +0.000 HD
ENDROOT
BRANCH   1  12
ATOM      5  C   UNL     1      51.499   2.638  17.504  0.00  0.00    +0.000 A 
ATOM      6  N   UNL     1      51.329   1.305  17.404  0.00  0.00    +0.000 NA
ATOM      7  C   UNL     1      52.293   0.513  17.882  0.00  0.00    +0.000 A 
ATOM      8  N   UNL     1      53.423   0.893  18.473  0.00  0.00    +0.000 NA
ATOM      9  C   UNL     1      53.556   2.229  18.541  0.00  0.00    +0.000 A 
ATOM     10  S   UNL     1      54.934   2.896  19.274  0.00  0.00    +0.000 S 
ATOM     11  C   UNL     1      54.396   4.477  18.959  0.00  0.00    +0.000 A 
ATOM     12  C   UNL     1      53.178   4.537  18.292  0.00  0.00    +0.000 A 
ATOM     13  C   UNL     1      52.664   3.186  18.069  0.00  0.00    +0.000 A 
BRANCH   5  15
ATOM     14  C   UNL     1      49.382   3.567  17.861  0.00  0.00    +0.000 C 
ATOM     15  O   UNL     1      50.511   3.456  16.999  0.00  0.00    +0.000 OA
ENDBRANCH   5  15
ENDBRANCH   1  12
BRANCH   3  16
ATOM     16  C   UNL     1      52.230   7.524  16.166  0.00  0.00    +0.000 C 
BRANCH  16  17
ATOM     17  C   UNL     1      50.912   7.391  15.440  0.00  0.00    +0.000 A 
ATOM     18  C   UNL     1      49.820   6.771  16.059  0.00  0.00    +0.000 A 
ATOM     19  C   UNL     1      48.605   6.618  15.381  0.00  0.00    +0.000 A 
ATOM     20  C   UNL     1      48.449   7.077  14.065  0.00  0.00    +0.000 A 
ATOM     21  C   UNL     1      49.551   7.676  13.440  0.00  0.00    +0.000 A 
ATOM     22  C   UNL     1      50.768   7.833  14.118  0.00  0.00    +0.000 A 
BRANCH  20  23
ATOM     23  C   UNL     1      47.206   6.876  13.297  0.00  0.00    +0.000 C 
ATOM     24  C   UNL     1      46.544   5.709  13.205  0.00  0.00    +0.000 C 
BRANCH  24  25
ATOM     25  C   UNL     1      45.333   5.480  12.395  0.00  0.00    +0.000 A 
ATOM     26  C   UNL     1      45.385   5.095  11.047  0.00  0.00    +0.000 A 
ATOM     27  C   UNL     1      44.214   4.810  10.338  0.00  0.00    +0.000 A 
ATOM     28  C   UNL     1      42.975   4.898  10.969  0.00  0.00    +0.000 A 
ATOM     29  C   UNL     1      42.907   5.276  12.307  0.00  0.00    +0.000 A 
ATOM     30  C   UNL     1      44.078   5.563  13.015  0.00  0.00    +0.000 A 
ENDBRANCH  24  25
ENDBRANCH  20  23
ENDBRANCH  16  17
ENDBRANCH   3  16
TORSDOF 6
ENDMDL
MODEL 4
REMARK VINA RESULT:    -5.484      5.233      9.970
REMARK INTER + INTRA:          -8.738
REMARK INTER:                  -7.578
REMARK INTRA:                  -1.160
REMARK UNBOUND:                -1.330
REMARK  Name = 
REMARK  7 active torsions:
REMARK  status: ('A' for Active; 'I' for Inactive)
REMARK    1  A    between atoms: C_1  and  O_2
REMARK    2  A    between atoms: O_2  and  C_3
REMARK    3  A    between atoms: C_10  and  C_11
REMARK    4  A    between atoms: N_13  and  C_14
REMARK    5  A    between atoms: C_14  and  C_15
REMARK    6  A    between atoms: C_18  and  C_19
REMARK    7  A    between atoms: C_20  and  C_21
REMARK                            x       y       z     vdW  Elec       q    Type
REMARK                         _______ _______ _______ _____ _____    ______ ____
ROOT
ATOM      1  C   UNL     1      47.058   6.697  11.739  0.00  0.00    +0.000 C 
ATOM      2  O   UNL     1      48.203   6.867  11.332  0.00  0.00    +0.000 OA
ATOM      3  N   UNL     1      46.578   7.381  12.821  0.00  0.00    +0.000 N 
ATOM      4  H   UNL     1      45.633   7.229  13.139  0.00  0.00    +0.000 HD
ENDROOT
BRANCH   1  12
ATOM      5  C   UNL     1      45.012   4.172  12.877  0.00  0.00    +0.000 A 
ATOM      6  N   UNL     1      44.096   3.201  13.056  0.00  0.00    +0.000 NA
ATOM      7  C   UNL     1      43.457   2.736  11.979  0.00  0.00    +0.000 A 
ATOM      8  N   UNL     1      43.632   3.116  10.716  0.00  0.00    +0.000 NA
ATOM      9  C   UNL     1      44.546   4.094  10.585  0.00  0.00    +0.000 A 
ATOM     10  S   UNL     1      44.909   4.699   9.041  0.00  0.00    +0.000 S 
ATOM     11  C   UNL     1      46.025   5.807   9.684  0.00  0.00    +0.000 A 
ATOM     12  C   UNL     1      46.142   5.752  11.068  0.00  0.00    +0.000 A 
ATOM     13  C   UNL     1      45.274   4.703  11.602  0.00  0.00    +0.000 A 
BRANCH   5  15
ATOM     14  C   UNL     1      46.852   3.945  14.304  0.00  0.00    +0.000 C 
ATOM     15  O   UNL     1      45.662   4.663  13.989  0.00  0.00    +0.000 OA
ENDBRANCH   5  15
ENDBRANCH   1  12
BRANCH   3  16
ATOM     16  C   UNL     1      47.373   8.350  13.534  0.00  0.00    +0.000 C 
BRANCH  16  17
ATOM     17  C   UNL     1      48.353   7.674  14.463  0.00  0.00    +0.000 A 
ATOM     18  C   UNL     1      47.896   6.893  15.532  0.00  0.00    +0.000 A 
ATOM     19  C   UNL     1      48.799   6.288  16.414  0.00  0.00    +0.000 A 
ATOM     20  C   UNL     1      50.183   6.449  16.254  0.00  0.00    +0.000 A 
ATOM     21  C   UNL     1      50.637   7.251  15.197  0.00  0.00    +0.000 A 
ATOM     22  C   UNL     1      49.735   7.855  14.311  0.00  0.00    +0.000 A 
BRANCH  20  23
ATOM     23  C   UNL     1      51.162   5.883  17.200  0.00  0.00    +0.000 C 
ATOM     24  C   UNL     1      51.268   4.577  17.501  0.00  0.00    +0.000 C 
BRANCH  24  25
ATOM     25  C   UNL     1      52.204   4.004  18.487  0.00  0.00    +0.000 A 
ATOM     26  C   UNL     1      53.149   3.024  18.153  0.00  0.00    +0.000 A 
ATOM     27  C   UNL     1      54.072   2.567  19.100  0.00  0.00    +0.000 A 
ATOM     28  C   UNL     1      54.067   3.089  20.391  0.00  0.00    +0.000 A 
ATOM     29  C   UNL     1      53.136   4.065  20.737  0.00  0.00    +0.000 A 
ATOM     30  C   UNL     1      52.213   4.521  19.790  0.00  0.00    +0.000 A 
ENDBRANCH  24  25
ENDBRANCH  20  23
ENDBRANCH  16  17
ENDBRANCH   3  16
TORSDOF 6
ENDMDL
MODEL 5
REMARK VINA RESULT:    -5.126      5.717      7.412
REMARK INTER + INTRA:          -8.254
REMARK INTER:                  -7.014
REMARK INTRA:                  -1.240
REMARK UNBOUND:                -1.330
REMARK  Name = 
REMARK  7 active torsions:
REMARK  status: ('A' for Active; 'I' for Inactive)
REMARK    1  A    between atoms: C_1  and  O_2
REMARK    2  A    between atoms: O_2  and  C_3
REMARK    3  A    between atoms: C_10  and  C_11
REMARK    4  A    between atoms: N_13  and  C_14
REMARK    5  A    between atoms: C_14  and  C_15
REMARK    6  A    between atoms: C_18  and  C_19
REMARK    7  A    between atoms: C_20  and  C_21
REMARK                            x       y       z     vdW  Elec       q    Type
REMARK                         _______ _______ _______ _____ _____    ______ ____
ROOT
ATOM      1  C   UNL     1      48.954   8.013  16.506  0.00  0.00    +0.000 C 
ATOM      2  O   UNL     1      49.857   8.812  16.737  0.00  0.00    +0.000 OA
ATOM      3  N   UNL     1      48.135   8.159  15.421  0.00  0.00    +0.000 N 
ATOM      4  H   UNL     1      47.399   7.491  15.246  0.00  0.00    +0.000 HD
ENDROOT
BRANCH   1  12
ATOM      5  C   UNL     1      47.951   4.772  15.922  0.00  0.00    +0.000 A 
ATOM      6  N   UNL     1      47.650   3.459  15.966  0.00  0.00    +0.000 NA
ATOM      7  C   UNL     1      47.679   2.849  17.155  0.00  0.00    +0.000 A 
ATOM      8  N   UNL     1      47.962   3.400  18.332  0.00  0.00    +0.000 NA
ATOM      9  C   UNL     1      48.266   4.707  18.240  0.00  0.00    +0.000 A 
ATOM     10  S   UNL     1      48.644   5.579  19.647  0.00  0.00    +0.000 S 
ATOM     11  C   UNL     1      48.903   7.001  18.753  0.00  0.00    +0.000 A 
ATOM     12  C   UNL     1      48.721   6.849  17.384  0.00  0.00    +0.000 A 
ATOM     13  C   UNL     1      48.310   5.478  17.084  0.00  0.00    +0.000 A 
BRANCH   5  15
ATOM     14  C   UNL     1      46.793   5.066  13.911  0.00  0.00    +0.000 C 
ATOM     15  O   UNL     1      47.935   5.399  14.695  0.00  0.00    +0.000 OA
ENDBRANCH   5  15
ENDBRANCH   1  12
BRANCH   3  16
ATOM     16  C   UNL     1      48.290   9.240  14.479  0.00  0.00    +0.000 C 
BRANCH  16  17
ATOM     17  C   UNL     1      49.311   8.899  13.419  0.00  0.00    +0.000 A 
ATOM     18  C   UNL     1      50.539   9.569  13.375  0.00  0.00    +0.000 A 
ATOM     19  C   UNL     1      51.478   9.278  12.378  0.00  0.00    +0.000 A 
ATOM     20  C   UNL     1      51.213   8.313  11.395  0.00  0.00    +0.000 A 
ATOM     21  C   UNL     1      49.972   7.661  11.428  0.00  0.00    +0.000 A 
ATOM     22  C   UNL     1      49.032   7.949  12.427  0.00  0.00    +0.000 A 
BRANCH  20  23
ATOM     23  C   UNL     1      52.148   8.027  10.292  0.00  0.00    +0.000 C 
ATOM     24  C   UNL     1      52.067   6.960   9.478  0.00  0.00    +0.000 C 
BRANCH  24  25
ATOM     25  C   UNL     1      53.027   6.632   8.407  0.00  0.00    +0.000 A 
ATOM     26  C   UNL     1      53.908   5.544   8.487  0.00  0.00    +0.000 A 
ATOM     27  C   UNL     1      54.746   5.221   7.415  0.00  0.00    +0.000 A 
ATOM     28  C   UNL     1      54.709   5.976   6.246  0.00  0.00    +0.000 A 
ATOM     29  C   UNL     1      53.837   7.057   6.150  0.00  0.00    +0.000 A 
ATOM     30  C   UNL     1      53.001   7.381   7.222  0.00  0.00    +0.000 A 
ENDBRANCH  24  25
ENDBRANCH  20  23
ENDBRANCH  16  17
ENDBRANCH   3  16
TORSDOF 6
ENDMDL
MODEL 6
REMARK VINA RESULT:    -4.959      7.392      9.518
REMARK INTER + INTRA:          -8.029
REMARK INTER:                  -6.825
REMARK INTRA:                  -1.204
REMARK UNBOUND:                -1.330
REMARK  Name = 
REMARK  7 active torsions:
REMARK  status: ('A' for Active; 'I' for Inactive)
REMARK    1  A    between atoms: C_1  and  O_2
REMARK    2  A    between atoms: O_2  and  C_3
REMARK    3  A    between atoms: C_10  and  C_11
REMARK    4  A    between atoms: N_13  and  C_14
REMARK    5  A    between atoms: C_14  and  C_15
REMARK    6  A    between atoms: C_18  and  C_19
REMARK    7  A    between atoms: C_20  and  C_21
REMARK                            x       y       z     vdW  Elec       q    Type
REMARK                         _______ _______ _______ _____ _____    ______ ____
ROOT
ATOM      1  C   UNL     1      49.320   7.399  14.758  0.00  0.00    +0.000 C 
ATOM      2  O   UNL     1      49.446   8.183  15.694  0.00  0.00    +0.000 OA
ATOM      3  N   UNL     1      50.057   7.533  13.614  0.00  0.00    +0.000 N 
ATOM      4  H   UNL     1      49.941   6.877  12.856  0.00  0.00    +0.000 HD
ENDROOT
BRANCH   1  12
ATOM      5  C   UNL     1      46.937   6.162  12.602  0.00  0.00    +0.000 A 
ATOM      6  N   UNL     1      46.011   5.447  11.934  0.00  0.00    +0.000 NA
ATOM      7  C   UNL     1      45.511   4.360  12.528  0.00  0.00    +0.000 A 
ATOM      8  N   UNL     1      45.815   3.896  13.737  0.00  0.00    +0.000 NA
ATOM      9  C   UNL     1      46.750   4.632  14.362  0.00  0.00    +0.000 A 
ATOM     10  S   UNL     1      47.256   4.194  15.922  0.00  0.00    +0.000 S 
ATOM     11  C   UNL     1      48.357   5.487  15.981  0.00  0.00    +0.000 A 
ATOM     12  C   UNL     1      48.374   6.267  14.831  0.00  0.00    +0.000 A 
ATOM     13  C   UNL     1      47.388   5.768  13.874  0.00  0.00    +0.000 A 
BRANCH   5  15
ATOM     14  C   UNL     1      46.719   8.463  12.241  0.00  0.00    +0.000 C 
ATOM     15  O   UNL     1      47.465   7.276  11.984  0.00  0.00    +0.000 OA
ENDBRANCH   5  15
ENDBRANCH   1  12
BRANCH   3  16
ATOM     16  C   UNL     1      51.032   8.581  13.444  0.00  0.00    +0.000 C 
BRANCH  16  17
ATOM     17  C   UNL     1      51.733   8.464  12.112  0.00  0.00    +0.000 A 
ATOM     18  C   UNL     1      52.869   9.235  11.837  0.00  0.00    +0.000 A 
ATOM     19  C   UNL     1      53.507   9.153  10.594  0.00  0.00    +0.000 A 
ATOM     20  C   UNL     1      53.025   8.300   9.590  0.00  0.00    +0.000 A 
ATOM     21  C   UNL     1      51.874   7.547   9.859  0.00  0.00    +0.000 A 
ATOM     22  C   UNL     1      51.236   7.626  11.105  0.00  0.00    +0.000 A 
BRANCH  20  23
ATOM     23  C   UNL     1      53.630   8.235   8.247  0.00  0.00    +0.000 C 
ATOM     24  C   UNL     1      52.948   8.007   7.111  0.00  0.00    +0.000 C 
BRANCH  24  25
ATOM     25  C   UNL     1      53.548   7.883   5.769  0.00  0.00    +0.000 A 
ATOM     26  C   UNL     1      54.375   6.810   5.405  0.00  0.00    +0.000 A 
ATOM     27  C   UNL     1      54.858   6.690   4.098  0.00  0.00    +0.000 A 
ATOM     28  C   UNL     1      54.514   7.635   3.135  0.00  0.00    +0.000 A 
ATOM     29  C   UNL     1      53.691   8.704   3.480  0.00  0.00    +0.000 A 
ATOM     30  C   UNL     1      53.211   8.825   4.787  0.00  0.00    +0.000 A 
ENDBRANCH  24  25
ENDBRANCH  20  23
ENDBRANCH  16  17
ENDBRANCH   3  16
TORSDOF 6
ENDMDL
MODEL 7
REMARK VINA RESULT:    -4.942      4.475      5.951
REMARK INTER + INTRA:          -8.006
REMARK INTER:                  -6.858
REMARK INTRA:                  -1.147
REMARK UNBOUND:                -1.330
REMARK  Name = 
REMARK  7 active torsions:
REMARK  status: ('A' for Active; 'I' for Inactive)
REMARK    1  A    between atoms: C_1  and  O_2
REMARK    2  A    between atoms: O_2  and  C_3
REMARK    3  A    between atoms: C_10  and  C_11
REMARK    4  A    between atoms: N_13  and  C_14
REMARK    5  A    between atoms: C_14  and  C_15
REMARK    6  A    between atoms: C_18  and  C_19
REMARK    7  A    between atoms: C_20  and  C_21
REMARK                            x       y       z     vdW  Elec       q    Type
REMARK                         _______ _______ _______ _____ _____    ______ ____
ROOT
ATOM      1  C   UNL     1      50.437   9.874  16.766  0.00  0.00    +0.000 C 
ATOM      2  O   UNL     1      51.468   9.566  16.174  0.00  0.00    +0.000 OA
ATOM      3  N   UNL     1      49.420  10.528  16.129  0.00  0.00    +0.000 N 
ATOM      4  H   UNL     1      48.579  10.771  16.631  0.00  0.00    +0.000 HD
ENDROOT
BRANCH   1  12
ATOM      5  C   UNL     1      49.117   7.144  18.396  0.00  0.00    +0.000 A 
ATOM      6  N   UNL     1      48.727   6.193  19.268  0.00  0.00    +0.000 NA
ATOM      7  C   UNL     1      48.881   6.438  20.572  0.00  0.00    +0.000 A 
ATOM      8  N   UNL     1      49.371   7.543  21.128  0.00  0.00    +0.000 NA
ATOM      9  C   UNL     1      49.757   8.459  20.223  0.00  0.00    +0.000 A 
ATOM     10  S   UNL     1      50.399   9.939  20.751  0.00  0.00    +0.000 S 
ATOM     11  C   UNL     1      50.635  10.463  19.152  0.00  0.00    +0.000 A 
ATOM     12  C   UNL     1      50.245   9.538  18.191  0.00  0.00    +0.000 A 
ATOM     13  C   UNL     1      49.693   8.348  18.837  0.00  0.00    +0.000 A 
BRANCH   5  15
ATOM     14  C   UNL     1      50.113   6.253  16.476  0.00  0.00    +0.000 C 
ATOM     15  O   UNL     1      48.972   6.886  17.050  0.00  0.00    +0.000 OA
ENDBRANCH   5  15
ENDBRANCH   1  12
BRANCH   3  16
ATOM     16  C   UNL     1      49.485  10.879  14.732  0.00  0.00    +0.000 C 
BRANCH  16  17
ATOM     17  C   UNL     1      48.865   9.805  13.869  0.00  0.00    +0.000 A 
ATOM     18  C   UNL     1      47.979   8.873  14.424  0.00  0.00    +0.000 A 
ATOM     19  C   UNL     1      47.425   7.857  13.636  0.00  0.00    +0.000 A 
ATOM     20  C   UNL     1      47.743   7.743  12.275  0.00  0.00    +0.000 A 
ATOM     21  C   UNL     1      48.648   8.663  11.729  0.00  0.00    +0.000 A 
ATOM     22  C   UNL     1      49.202   9.683  12.515  0.00  0.00    +0.000 A 
BRANCH  20  23
ATOM     23  C   UNL     1      47.230   6.648  11.430  0.00  0.00    +0.000 C 
ATOM     24  C   UNL     1      45.932   6.326  11.299  0.00  0.00    +0.000 C 
BRANCH  24  25
ATOM     25  C   UNL     1      45.411   5.200  10.502  0.00  0.00    +0.000 A 
ATOM     26  C   UNL     1      45.667   5.060   9.130  0.00  0.00    +0.000 A 
ATOM     27  C   UNL     1      45.221   3.934   8.430  0.00  0.00    +0.000 A 
ATOM     28  C   UNL     1      44.523   2.929   9.093  0.00  0.00    +0.000 A 
ATOM     29  C   UNL     1      44.264   3.051  10.456  0.00  0.00    +0.000 A 
ATOM     30  C   UNL     1      44.708   4.177  11.155  0.00  0.00    +0.000 A 
ENDBRANCH  24  25
ENDBRANCH  20  23
ENDBRANCH  16  17
ENDBRANCH   3  16
TORSDOF 6
ENDMDL
MODEL 8
REMARK VINA RESULT:    -4.877      7.826     10.014
REMARK INTER + INTRA:          -7.918
REMARK INTER:                  -6.807
REMARK INTRA:                  -1.111
REMARK UNBOUND:                -1.330
REMARK  Name = 
REMARK  7 active torsions:
REMARK  status: ('A' for Active; 'I' for Inactive)
REMARK    1  A    between atoms: C_1  and  O_2
REMARK    2  A    between atoms: O_2  and  C_3
REMARK    3  A    between atoms: C_10  and  C_11
REMARK    4  A    between atoms: N_13  and  C_14
REMARK    5  A    between atoms: C_14  and  C_15
REMARK    6  A    between atoms: C_18  and  C_19
REMARK    7  A    between atoms: C_20  and  C_21
REMARK                            x       y       z     vdW  Elec       q    Type
REMARK                         _______ _______ _______ _____ _____    ______ ____
ROOT
ATOM      1  C   UNL     1      48.541   8.069  12.493  0.00  0.00    +0.000 C 
ATOM      2  O   UNL     1      48.033   9.159  12.246  0.00  0.00    +0.000 OA
ATOM      3  N   UNL     1      49.897   7.896  12.476  0.00  0.00    +0.000 N 
ATOM      4  H   UNL     1      50.297   6.993  12.684  0.00  0.00    +0.000 HD
ENDROOT
BRANCH   1  12
ATOM      5  C   UNL     1      48.549   5.845  15.121  0.00  0.00    +0.000 A 
ATOM      6  N   UNL     1      48.289   4.901  16.047  0.00  0.00    +0.000 NA
ATOM      7  C   UNL     1      47.251   4.086  15.838  0.00  0.00    +0.000 A 
ATOM      8  N   UNL     1      46.432   4.086  14.791  0.00  0.00    +0.000 NA
ATOM      9  C   UNL     1      46.719   5.049  13.898  0.00  0.00    +0.000 A 
ATOM     10  S   UNL     1      45.782   5.192  12.490  0.00  0.00    +0.000 S 
ATOM     11  C   UNL     1      46.691   6.528  11.962  0.00  0.00    +0.000 A 
ATOM     12  C   UNL     1      47.709   6.898  12.834  0.00  0.00    +0.000 A 
ATOM     13  C   UNL     1      47.740   5.990  13.980  0.00  0.00    +0.000 A 
BRANCH   5  15
ATOM     14  C   UNL     1      49.978   6.785  16.717  0.00  0.00    +0.000 C 
ATOM     15  O   UNL     1      49.611   6.695  15.343  0.00  0.00    +0.000 OA
ENDBRANCH   5  15
ENDBRANCH   1  12
BRANCH   3  16
ATOM     16  C   UNL     1      50.808   8.976  12.187  0.00  0.00    +0.000 C 
BRANCH  16  17
ATOM     17  C   UNL     1      51.611   8.694  10.939  0.00  0.00    +0.000 A 
ATOM     18  C   UNL     1      52.199   9.742  10.221  0.00  0.00    +0.000 A 
ATOM     19  C   UNL     1      52.920   9.490   9.048  0.00  0.00    +0.000 A 
ATOM     20  C   UNL     1      53.069   8.184   8.558  0.00  0.00    +0.000 A 
ATOM     21  C   UNL     1      52.459   7.139   9.266  0.00  0.00    +0.000 A 
ATOM     22  C   UNL     1      51.740   7.390  10.443  0.00  0.00    +0.000 A 
BRANCH  20  23
ATOM     23  C   UNL     1      53.764   7.886   7.292  0.00  0.00    +0.000 C 
ATOM     24  C   UNL     1      53.263   8.131   6.068  0.00  0.00    +0.000 C 
BRANCH  24  25
ATOM     25  C   UNL     1      53.923   7.786   4.795  0.00  0.00    +0.000 A 
ATOM     26  C   UNL     1      54.752   6.665   4.651  0.00  0.00    +0.000 A 
ATOM     27  C   UNL     1      55.293   6.330   3.405  0.00  0.00    +0.000 A 
ATOM     28  C   UNL     1      55.006   7.106   2.286  0.00  0.00    +0.000 A 
ATOM     29  C   UNL     1      54.181   8.221   2.412  0.00  0.00    +0.000 A 
ATOM     30  C   UNL     1      53.642   8.556   3.658  0.00  0.00    +0.000 A 
ENDBRANCH  24  25
ENDBRANCH  20  23
ENDBRANCH  16  17
ENDBRANCH   3  16
TORSDOF 6
ENDMDL
MODEL 9
REMARK VINA RESULT:    -4.795     11.229     14.016
REMARK INTER + INTRA:          -7.807
REMARK INTER:                  -6.704
REMARK INTRA:                  -1.103
REMARK UNBOUND:                -1.330
REMARK  Name = 
REMARK  7 active torsions:
REMARK  status: ('A' for Active; 'I' for Inactive)
REMARK    1  A    between atoms: C_1  and  O_2
REMARK    2  A    between atoms: O_2  and  C_3
REMARK    3  A    between atoms: C_10  and  C_11
REMARK    4  A    between atoms: N_13  and  C_14
REMARK    5  A    between atoms: C_14  and  C_15
REMARK    6  A    between atoms: C_18  and  C_19
REMARK    7  A    between atoms: C_20  and  C_21
REMARK                            x       y       z     vdW  Elec       q    Type
REMARK                         _______ _______ _______ _____ _____    ______ ____
ROOT
ATOM      1  C   UNL     1      38.450  -1.137  18.918  0.00  0.00    +0.000 C 
ATOM      2  O   UNL     1      37.723  -1.847  19.605  0.00  0.00    +0.000 OA
ATOM      3  N   UNL     1      39.112  -1.636  17.831  0.00  0.00    +0.000 N 
ATOM      4  H   UNL     1      39.705  -1.036  17.277  0.00  0.00    +0.000 HD
ENDROOT
BRANCH   1  12
ATOM      5  C   UNL     1      38.236   1.738  17.035  0.00  0.00    +0.000 A 
ATOM      6  N   UNL     1      38.151   2.995  16.557  0.00  0.00    +0.000 NA
ATOM      7  C   UNL     1      38.361   4.004  17.408  0.00  0.00    +0.000 A 
ATOM      8  N   UNL     1      38.666   3.913  18.699  0.00  0.00    +0.000 NA
ATOM      9  C   UNL     1      38.730   2.644  19.136  0.00  0.00    +0.000 A 
ATOM     10  S   UNL     1      39.119   2.335  20.759  0.00  0.00    +0.000 S 
ATOM     11  C   UNL     1      38.981   0.657  20.524  0.00  0.00    +0.000 A 
ATOM     12  C   UNL     1      38.633   0.296  19.228  0.00  0.00    +0.000 A 
ATOM     13  C   UNL     1      38.512   1.489  18.391  0.00  0.00    +0.000 A 
BRANCH   5  15
ATOM     14  C   UNL     1      37.016   0.996  15.182  0.00  0.00    +0.000 C 
ATOM     15  O   UNL     1      38.006   0.696  16.162  0.00  0.00    +0.000 OA
ENDBRANCH   5  15
ENDBRANCH   1  12
BRANCH   3  16
ATOM     16  C   UNL     1      38.985  -3.012  17.416  0.00  0.00    +0.000 C 
BRANCH  16  17
ATOM     17  C   UNL     1      40.320  -3.717  17.445  0.00  0.00    +0.000 A 
ATOM     18  C   UNL     1      41.042  -3.918  16.262  0.00  0.00    +0.000 A 
ATOM     19  C   UNL     1      42.266  -4.597  16.278  0.00  0.00    +0.000 A 
ATOM     20  C   UNL     1      42.801  -5.096  17.474  0.00  0.00    +0.000 A 
ATOM     21  C   UNL     1      42.064  -4.914  18.653  0.00  0.00    +0.000 A 
ATOM     22  C   UNL     1      40.840  -4.232  18.640  0.00  0.00    +0.000 A 
BRANCH  20  23
ATOM     23  C   UNL     1      44.053  -5.872  17.521  0.00  0.00    +0.000 C 
ATOM     24  C   UNL     1      45.138  -5.532  18.238  0.00  0.00    +0.000 C 
BRANCH  24  25
ATOM     25  C   UNL     1      46.416  -6.269  18.249  0.00  0.00    +0.000 A 
ATOM     26  C   UNL     1      46.588  -7.476  18.941  0.00  0.00    +0.000 A 
ATOM     27  C   UNL     1      47.792  -8.184  18.859  0.00  0.00    +0.000 A 
ATOM     28  C   UNL     1      48.837  -7.698  18.078  0.00  0.00    +0.000 A 
ATOM     29  C   UNL     1      48.680  -6.502  17.382  0.00  0.00    +0.000 A 
ATOM     30  C   UNL     1      47.477  -5.795  17.466  0.00  0.00    +0.000 A 
ENDBRANCH  24  25
ENDBRANCH  20  23
ENDBRANCH  16  17
ENDBRANCH   3  16
TORSDOF 6
ENDMDL
