MODEL 1
REMARK VINA RESULT:    -8.809      0.000      0.000
REMARK INTER + INTRA:         -11.995
REMARK INTER:                 -11.384
REMARK INTRA:                  -0.610
REMARK UNBOUND:                -0.610
REMARK  Name = 
REMARK  5 active torsions:
REMARK  status: ('A' for Active; 'I' for Inactive)
REMARK    1  A    between atoms: C_2  and  C_4
REMARK    2  A    between atoms: C_7  and  N_8
REMARK    3  A    between atoms: N_8  and  C_9
REMARK    4  A    between atoms: C_9  and  C_10
REMARK    5  A    between atoms: C_14  and  C_15
REMARK                            x       y       z     vdW  Elec       q    Type
REMARK                         _______ _______ _______ _____ _____    ______ ____
ROOT
ATOM      1  N   UNL     1      44.002   4.850  10.054  0.00  0.00    +0.000 N 
ATOM      2  H   UNL     1      44.185   5.845   9.977  0.00  0.00    +0.000 HD
ENDROOT
BRANCH   1   6
ATOM      3  C   UNL     1      46.450   2.544   7.700  0.00  0.00    +0.000 A 
ATOM      4  C   UNL     1      46.437   3.922   7.567  0.00  0.00    +0.000 A 
ATOM      5  N   UNL     1      45.610   4.718   8.297  0.00  0.00    +0.000 NA
ATOM      6  C   UNL     1      44.791   4.103   9.175  0.00  0.00    +0.000 A 
ATOM      7  C   UNL     1      44.820   2.705   9.290  0.00  0.00    +0.000 A 
ATOM      8  N   UNL     1      45.628   1.888   8.562  0.00  0.00    +0.000 NA
BRANCH   3  10
ATOM      9  N   UNL     1      48.515   2.396   6.448  0.00  0.00    +0.000 N 
ATOM     10  C   UNL     1      47.407   1.732   6.899  0.00  0.00    +0.000 C 
ATOM     11  O   UNL     1      47.217   0.549   6.653  0.00  0.00    +0.000 OA
ATOM     12  H   UNL     1      49.199   1.903   5.891  0.00  0.00    +0.000 HD
ATOM     13  H   UNL     1      48.641   3.378   6.664  0.00  0.00    +0.000 HD
ENDBRANCH   3  10
ENDBRANCH   1   6
BRANCH   1  14
ATOM     14  C   UNL     1      43.981   4.409  11.444  0.00  0.00    +0.000 C 
BRANCH  14  15
ATOM     15  C   UNL     1      45.218   4.926  12.148  0.00  0.00    +0.000 A 
ATOM     16  C   UNL     1      45.780   6.147  11.745  0.00  0.00    +0.000 A 
ATOM     17  C   UNL     1      46.872   6.681  12.418  0.00  0.00    +0.000 A 
ATOM     18  C   UNL     1      47.395   6.017  13.527  0.00  0.00    +0.000 A 
ATOM     19  C   UNL     1      46.835   4.812  13.995  0.00  0.00    +0.000 A 
ATOM     20  C   UNL     1      45.761   4.264  13.263  0.00  0.00    +0.000 A 
BRANCH  19  21
ATOM     21  C   UNL     1      47.312   4.180  15.242  0.00  0.00    +0.000 A 
ATOM     22  C   UNL     1      47.162   4.806  16.486  0.00  0.00    +0.000 A 
ATOM     23  C   UNL     1      47.602   4.161  17.640  0.00  0.00    +0.000 A 
ATOM     24  C   UNL     1      48.176   2.903  17.531  0.00  0.00    +0.000 A 
ATOM     25  C   UNL     1      48.286   2.343  16.270  0.00  0.00    +0.000 A 
ATOM     26  N   UNL     1      47.865   2.947  15.133  0.00  0.00    +0.000 NA
ENDBRANCH  19  21
ENDBRANCH  14  15
ENDBRANCH   1  14
TORSDOF 5
ENDMDL
MODEL 2
REMARK VINA RESULT:    -8.653      2.234      3.977
REMARK INTER + INTRA:         -11.792
REMARK INTER:                 -11.019
REMARK INTRA:                  -0.773
REMARK UNBOUND:                -0.610
REMARK  Name = 
REMARK  5 active torsions:
REMARK  status: ('A' for Active; 'I' for Inactive)
REMARK    1  A    between atoms: C_2  and  C_4
REMARK    2  A    between atoms: C_7  and  N_8
REMARK    3  A    between atoms: N_8  and  C_9
REMARK    4  A    between atoms: C_9  and  C_10
REMARK    5  A    between atoms: C_14  and  C_15
REMARK                            x       y       z     vdW  Elec       q    Type
REMARK                         _______ _______ _______ _____ _____    ______ ____
ROOT
ATOM      1  N   UNL     1      43.792   4.839   9.816  0.00  0.00    +0.000 N 
ATOM      2  H   UNL     1      44.034   5.820   9.712  0.00  0.00    +0.000 HD
ENDROOT
BRANCH   1   6
ATOM      3  C   UNL     1      46.335   2.311   7.819  0.00  0.00    +0.000 A 
ATOM      4  C   UNL     1      46.371   3.675   7.587  0.00  0.00    +0.000 A 
ATOM      5  N   UNL     1      45.517   4.541   8.195  0.00  0.00    +0.000 NA
ATOM      6  C   UNL     1      44.620   4.012   9.053  0.00  0.00    +0.000 A 
ATOM      7  C   UNL     1      44.600   2.625   9.269  0.00  0.00    +0.000 A 
ATOM      8  N   UNL     1      45.434   1.739   8.662  0.00  0.00    +0.000 NA
BRANCH   3  10
ATOM      9  N   UNL     1      48.395   2.049   6.576  0.00  0.00    +0.000 N 
ATOM     10  C   UNL     1      47.323   1.420   7.150  0.00  0.00    +0.000 C 
ATOM     11  O   UNL     1      47.188   0.205   7.109  0.00  0.00    +0.000 OA
ATOM     12  H   UNL     1      49.096   1.501   6.099  0.00  0.00    +0.000 HD
ATOM     13  H   UNL     1      48.475   3.058   6.622  0.00  0.00    +0.000 HD
ENDBRANCH   3  10
ENDBRANCH   1   6
BRANCH   1  14
ATOM     14  C   UNL     1      43.615   4.470  11.216  0.00  0.00    +0.000 C 
BRANCH  14  15
ATOM     15  C   UNL     1      44.831   4.913  12.003  0.00  0.00    +0.000 A 
ATOM     16  C   UNL     1      45.483   3.992  12.837  0.00  0.00    +0.000 A 
ATOM     17  C   UNL     1      46.642   4.349  13.516  0.00  0.00    +0.000 A 
ATOM     18  C   UNL     1      47.183   5.622  13.342  0.00  0.00    +0.000 A 
ATOM     19  C   UNL     1      46.587   6.564  12.481  0.00  0.00    +0.000 A 
ATOM     20  C   UNL     1      45.383   6.195  11.844  0.00  0.00    +0.000 A 
BRANCH  19  21
ATOM     21  C   UNL     1      47.232   7.864  12.203  0.00  0.00    +0.000 A 
ATOM     22  C   UNL     1      48.580   7.950  11.836  0.00  0.00    +0.000 A 
ATOM     23  C   UNL     1      49.142   9.195  11.557  0.00  0.00    +0.000 A 
ATOM     24  C   UNL     1      48.345  10.326  11.643  0.00  0.00    +0.000 A 
ATOM     25  C   UNL     1      47.018  10.165  12.006  0.00  0.00    +0.000 A 
ATOM     26  N   UNL     1      46.448   8.967  12.280  0.00  0.00    +0.000 NA
ENDBRANCH  19  21
ENDBRANCH  14  15
ENDBRANCH   1  14
TORSDOF 5
ENDMDL
MODEL 3
REMARK VINA RESULT:    -7.903      3.263      6.981
REMARK INTER + INTRA:         -10.823
REMARK INTER:                 -10.044
REMARK INTRA:                  -0.779
REMARK UNBOUND:                -0.610
REMARK  Name = 
REMARK  5 active torsions:
REMARK  status: ('A' for Active; 'I' for Inactive)
REMARK    1  A    between atoms: C_2  and  C_4
REMARK    2  A    between atoms: C_7  and  N_8
REMARK    3  A    between atoms: N_8  and  C_9
REMARK    4  A    between atoms: C_9  and  C_10
REMARK    5  A    between atoms: C_14  and  C_15
REMARK                            x       y       z     vdW  Elec       q    Type
REMARK                         _______ _______ _______ _____ _____    ______ ____
ROOT
ATOM      1  N   UNL     1      44.013   6.665  12.571  0.00  0.00    +0.000 N 
ATOM      2  H   UNL     1      43.651   6.043  13.287  0.00  0.00    +0.000 HD
ENDROOT
BRANCH   1   6
ATOM      3  C   UNL     1      48.076   7.244  12.644  0.00  0.00    +0.000 A 
ATOM      4  C   UNL     1      47.517   6.101  13.187  0.00  0.00    +0.000 A 
ATOM      5  N   UNL     1      46.174   5.890  13.222  0.00  0.00    +0.000 NA
ATOM      6  C   UNL     1      45.392   6.854  12.693  0.00  0.00    +0.000 A 
ATOM      7  C   UNL     1      45.982   8.007  12.152  0.00  0.00    +0.000 A 
ATOM      8  N   UNL     1      47.321   8.245  12.119  0.00  0.00    +0.000 NA
BRANCH   3  10
ATOM      9  N   UNL     1      50.186   7.405  13.819  0.00  0.00    +0.000 N 
ATOM     10  C   UNL     1      49.557   7.397  12.603  0.00  0.00    +0.000 C 
ATOM     11  O   UNL     1      50.176   7.511  11.554  0.00  0.00    +0.000 OA
ATOM     12  H   UNL     1      51.189   7.513  13.859  0.00  0.00    +0.000 HD
ATOM     13  H   UNL     1      49.644   7.313  14.670  0.00  0.00    +0.000 HD
ENDBRANCH   3  10
ENDBRANCH   1   6
BRANCH   1  14
ATOM     14  C   UNL     1      43.519   6.311  11.245  0.00  0.00    +0.000 C 
BRANCH  14  15
ATOM     15  C   UNL     1      43.823   4.852  10.976  0.00  0.00    +0.000 A 
ATOM     16  C   UNL     1      43.155   3.862  11.712  0.00  0.00    +0.000 A 
ATOM     17  C   UNL     1      43.359   2.515  11.438  0.00  0.00    +0.000 A 
ATOM     18  C   UNL     1      44.211   2.142  10.398  0.00  0.00    +0.000 A 
ATOM     19  C   UNL     1      44.868   3.101   9.604  0.00  0.00    +0.000 A 
ATOM     20  C   UNL     1      44.684   4.460   9.936  0.00  0.00    +0.000 A 
BRANCH  19  21
ATOM     21  C   UNL     1      45.667   2.704   8.427  0.00  0.00    +0.000 A 
ATOM     22  C   UNL     1      45.923   3.595   7.378  0.00  0.00    +0.000 A 
ATOM     23  C   UNL     1      46.705   3.187   6.299  0.00  0.00    +0.000 A 
ATOM     24  C   UNL     1      47.221   1.899   6.292  0.00  0.00    +0.000 A 
ATOM     25  C   UNL     1      46.931   1.074   7.365  0.00  0.00    +0.000 A 
ATOM     26  N   UNL     1      46.177   1.447   8.426  0.00  0.00    +0.000 NA
ENDBRANCH  19  21
ENDBRANCH  14  15
ENDBRANCH   1  14
TORSDOF 5
ENDMDL
MODEL 4
REMARK VINA RESULT:    -7.534      2.855      7.456
REMARK INTER + INTRA:         -10.347
REMARK INTER:                 -10.094
REMARK INTRA:                  -0.253
REMARK UNBOUND:                -0.610
REMARK  Name = 
REMARK  5 active torsions:
REMARK  status: ('A' for Active; 'I' for Inactive)
REMARK    1  A    between atoms: C_2  and  C_4
REMARK    2  A    between atoms: C_7  and  N_8
REMARK    3  A    between atoms: N_8  and  C_9
REMARK    4  A    between atoms: C_9  and  C_10
REMARK    5  A    between atoms: C_14  and  C_15
REMARK                            x       y       z     vdW  Elec       q    Type
REMARK                         _______ _______ _______ _____ _____    ______ ____
ROOT
ATOM      1  N   UNL     1      47.459   6.565  12.548  0.00  0.00    +0.000 N 
ATOM      2  H   UNL     1      48.205   7.248  12.468  0.00  0.00    +0.000 HD
ENDROOT
BRANCH   1   6
ATOM      3  C   UNL     1      47.490   4.357  16.008  0.00  0.00    +0.000 A 
ATOM      4  C   UNL     1      48.211   5.534  15.917  0.00  0.00    +0.000 A 
ATOM      5  N   UNL     1      48.261   6.273  14.776  0.00  0.00    +0.000 NA
ATOM      6  C   UNL     1      47.565   5.807  13.717  0.00  0.00    +0.000 A 
ATOM      7  C   UNL     1      46.846   4.608  13.833  0.00  0.00    +0.000 A 
ATOM      8  N   UNL     1      46.792   3.846  14.958  0.00  0.00    +0.000 NA
BRANCH   3  10
ATOM      9  N   UNL     1      48.489   3.844  18.152  0.00  0.00    +0.000 N 
ATOM     10  C   UNL     1      47.444   3.614  17.298  0.00  0.00    +0.000 C 
ATOM     11  O   UNL     1      46.536   2.845  17.581  0.00  0.00    +0.000 OA
ATOM     12  H   UNL     1      48.521   3.365  19.040  0.00  0.00    +0.000 HD
ATOM     13  H   UNL     1      49.229   4.484  17.886  0.00  0.00    +0.000 HD
ENDBRANCH   3  10
ENDBRANCH   1   6
BRANCH   1  14
ATOM     14  C   UNL     1      46.153   7.155  12.272  0.00  0.00    +0.000 C 
BRANCH  14  15
ATOM     15  C   UNL     1      45.304   6.151  11.520  0.00  0.00    +0.000 A 
ATOM     16  C   UNL     1      43.909   6.185  11.665  0.00  0.00    +0.000 A 
ATOM     17  C   UNL     1      43.099   5.325  10.934  0.00  0.00    +0.000 A 
ATOM     18  C   UNL     1      43.674   4.442  10.020  0.00  0.00    +0.000 A 
ATOM     19  C   UNL     1      45.066   4.404   9.809  0.00  0.00    +0.000 A 
ATOM     20  C   UNL     1      45.869   5.250  10.602  0.00  0.00    +0.000 A 
BRANCH  19  21
ATOM     21  C   UNL     1      45.658   3.557   8.752  0.00  0.00    +0.000 A 
ATOM     22  C   UNL     1      46.238   4.113   7.606  0.00  0.00    +0.000 A 
ATOM     23  C   UNL     1      46.809   3.279   6.647  0.00  0.00    +0.000 A 
ATOM     24  C   UNL     1      46.795   1.908   6.854  0.00  0.00    +0.000 A 
ATOM     25  C   UNL     1      46.209   1.429   8.014  0.00  0.00    +0.000 A 
ATOM     26  N   UNL     1      45.650   2.218   8.962  0.00  0.00    +0.000 NA
ENDBRANCH  19  21
ENDBRANCH  14  15
ENDBRANCH   1  14
TORSDOF 5
ENDMDL
MODEL 5
REMARK VINA RESULT:    -7.387      3.462      7.121
REMARK INTER + INTRA:         -10.156
REMARK INTER:                  -9.437
REMARK INTRA:                  -0.719
REMARK UNBOUND:                -0.610
REMARK  Name = 
REMARK  5 active torsions:
REMARK  status: ('A' for Active; 'I' for Inactive)
REMARK    1  A    between atoms: C_2  and  C_4
REMARK    2  A    between atoms: C_7  and  N_8
REMARK    3  A    between atoms: N_8  and  C_9
REMARK    4  A    between atoms: C_9  and  C_10
REMARK    5  A    between atoms: C_14  and  C_15
REMARK                            x       y       z     vdW  Elec       q    Type
REMARK                         _______ _______ _______ _____ _____    ______ ____
ROOT
ATOM      1  N   UNL     1      45.489   6.087  13.226  0.00  0.00    +0.000 N 
ATOM      2  H   UNL     1      45.444   5.195  13.709  0.00  0.00    +0.000 HD
ENDROOT
BRANCH   1   6
ATOM      3  C   UNL     1      49.346   7.412  12.758  0.00  0.00    +0.000 A 
ATOM      4  C   UNL     1      48.401   7.629  11.770  0.00  0.00    +0.000 A 
ATOM      5  N   UNL     1      47.125   7.169  11.868  0.00  0.00    +0.000 NA
ATOM      6  C   UNL     1      46.807   6.485  12.986  0.00  0.00    +0.000 A 
ATOM      7  C   UNL     1      47.784   6.273  13.971  0.00  0.00    +0.000 A 
ATOM      8  N   UNL     1      49.069   6.711  13.890  0.00  0.00    +0.000 NA
BRANCH   3  10
ATOM      9  N   UNL     1      51.332   7.724  11.411  0.00  0.00    +0.000 N 
ATOM     10  C   UNL     1      50.717   7.974  12.608  0.00  0.00    +0.000 C 
ATOM     11  O   UNL     1      51.263   8.616  13.495  0.00  0.00    +0.000 OA
ATOM     12  H   UNL     1      52.266   8.072  11.250  0.00  0.00    +0.000 HD
ATOM     13  H   UNL     1      50.854   7.186  10.698  0.00  0.00    +0.000 HD
ENDBRANCH   3  10
ENDBRANCH   1   6
BRANCH   1  14
ATOM     14  C   UNL     1      44.578   6.134  12.088  0.00  0.00    +0.000 C 
BRANCH  14  15
ATOM     15  C   UNL     1      44.435   4.742  11.509  0.00  0.00    +0.000 A 
ATOM     16  C   UNL     1      43.444   3.886  12.011  0.00  0.00    +0.000 A 
ATOM     17  C   UNL     1      43.241   2.630  11.451  0.00  0.00    +0.000 A 
ATOM     18  C   UNL     1      44.007   2.228  10.357  0.00  0.00    +0.000 A 
ATOM     19  C   UNL     1      44.983   3.072   9.792  0.00  0.00    +0.000 A 
ATOM     20  C   UNL     1      45.204   4.319  10.411  0.00  0.00    +0.000 A 
BRANCH  19  21
ATOM     21  C   UNL     1      45.702   2.692   8.558  0.00  0.00    +0.000 A 
ATOM     22  C   UNL     1      45.956   3.620   7.542  0.00  0.00    +0.000 A 
ATOM     23  C   UNL     1      46.661   3.226   6.406  0.00  0.00    +0.000 A 
ATOM     24  C   UNL     1      47.104   1.915   6.312  0.00  0.00    +0.000 A 
ATOM     25  C   UNL     1      46.822   1.053   7.358  0.00  0.00    +0.000 A 
ATOM     26  N   UNL     1      46.141   1.412   8.472  0.00  0.00    +0.000 NA
ENDBRANCH  19  21
ENDBRANCH  14  15
ENDBRANCH   1  14
TORSDOF 5
ENDMDL
MODEL 6
REMARK VINA RESULT:    -7.264      2.558      3.182
REMARK INTER + INTRA:          -9.998
REMARK INTER:                  -9.334
REMARK INTRA:                  -0.665
REMARK UNBOUND:                -0.610
REMARK  Name = 
REMARK  5 active torsions:
REMARK  status: ('A' for Active; 'I' for Inactive)
REMARK    1  A    between atoms: C_2  and  C_4
REMARK    2  A    between atoms: C_7  and  N_8
REMARK    3  A    between atoms: N_8  and  C_9
REMARK    4  A    between atoms: C_9  and  C_10
REMARK    5  A    between atoms: C_14  and  C_15
REMARK                            x       y       z     vdW  Elec       q    Type
REMARK                         _______ _______ _______ _____ _____    ______ ____
ROOT
ATOM      1  N   UNL     1      43.952   4.189  10.255  0.00  0.00    +0.000 N 
ATOM      2  H   UNL     1      43.471   4.998   9.873  0.00  0.00    +0.000 HD
ENDROOT
BRANCH   1   6
ATOM      3  C   UNL     1      46.642   2.845   7.462  0.00  0.00    +0.000 A 
ATOM      4  C   UNL     1      46.014   1.959   8.319  0.00  0.00    +0.000 A 
ATOM      5  N   UNL     1      45.150   2.368   9.286  0.00  0.00    +0.000 NA
ATOM      6  C   UNL     1      44.919   3.694   9.377  0.00  0.00    +0.000 A 
ATOM      7  C   UNL     1      45.571   4.573   8.499  0.00  0.00    +0.000 A 
ATOM      8  N   UNL     1      46.449   4.189   7.534  0.00  0.00    +0.000 NA
BRANCH   3  10
ATOM      9  N   UNL     1      47.435   2.935   5.177  0.00  0.00    +0.000 N 
ATOM     10  C   UNL     1      47.549   2.330   6.399  0.00  0.00    +0.000 C 
ATOM     11  O   UNL     1      48.345   1.422   6.599  0.00  0.00    +0.000 OA
ATOM     12  H   UNL     1      48.016   2.626   4.412  0.00  0.00    +0.000 HD
ATOM     13  H   UNL     1      46.762   3.682   5.042  0.00  0.00    +0.000 HD
ENDBRANCH   3  10
ENDBRANCH   1   6
BRANCH   1  14
ATOM     14  C   UNL     1      44.377   4.413  11.632  0.00  0.00    +0.000 C 
BRANCH  14  15
ATOM     15  C   UNL     1      44.999   5.789  11.743  0.00  0.00    +0.000 A 
ATOM     16  C   UNL     1      44.233   6.919  11.422  0.00  0.00    +0.000 A 
ATOM     17  C   UNL     1      44.753   8.198  11.583  0.00  0.00    +0.000 A 
ATOM     18  C   UNL     1      46.038   8.363  12.100  0.00  0.00    +0.000 A 
ATOM     19  C   UNL     1      46.827   7.259  12.477  0.00  0.00    +0.000 A 
ATOM     20  C   UNL     1      46.296   5.971  12.256  0.00  0.00    +0.000 A 
BRANCH  19  21
ATOM     21  C   UNL     1      48.134   7.443  13.141  0.00  0.00    +0.000 A 
ATOM     22  C   UNL     1      48.352   7.032  14.461  0.00  0.00    +0.000 A 
ATOM     23  C   UNL     1      49.608   7.200  15.039  0.00  0.00    +0.000 A 
ATOM     24  C   UNL     1      50.624   7.769  14.285  0.00  0.00    +0.000 A 
ATOM     25  C   UNL     1      50.339   8.148  12.984  0.00  0.00    +0.000 A 
ATOM     26  N   UNL     1      49.127   7.993  12.399  0.00  0.00    +0.000 NA
ENDBRANCH  19  21
ENDBRANCH  14  15
ENDBRANCH   1  14
TORSDOF 5
ENDMDL
MODEL 7
REMARK VINA RESULT:    -7.100      3.446      8.365
REMARK INTER + INTRA:          -9.786
REMARK INTER:                  -9.264
REMARK INTRA:                  -0.522
REMARK UNBOUND:                -0.610
REMARK  Name = 
REMARK  5 active torsions:
REMARK  status: ('A' for Active; 'I' for Inactive)
REMARK    1  A    between atoms: C_2  and  C_4
REMARK    2  A    between atoms: C_7  and  N_8
REMARK    3  A    between atoms: N_8  and  C_9
REMARK    4  A    between atoms: C_9  and  C_10
REMARK    5  A    between atoms: C_14  and  C_15
REMARK                            x       y       z     vdW  Elec       q    Type
REMARK                         _______ _______ _______ _____ _____    ______ ____
ROOT
ATOM      1  N   UNL     1      46.411   4.058  14.733  0.00  0.00    +0.000 N 
ATOM      2  H   UNL     1      46.698   3.296  14.126  0.00  0.00    +0.000 HD
ENDROOT
BRANCH   1   6
ATOM      3  C   UNL     1      48.806   4.656  18.012  0.00  0.00    +0.000 A 
ATOM      4  C   UNL     1      48.933   5.457  16.891  0.00  0.00    +0.000 A 
ATOM      5  N   UNL     1      48.189   5.265  15.769  0.00  0.00    +0.000 NA
ATOM      6  C   UNL     1      47.302   4.248  15.791  0.00  0.00    +0.000 A 
ATOM      7  C   UNL     1      47.195   3.446  16.938  0.00  0.00    +0.000 A 
ATOM      8  N   UNL     1      47.937   3.611  18.066  0.00  0.00    +0.000 NA
BRANCH   3  10
ATOM      9  N   UNL     1      49.297   4.225  20.342  0.00  0.00    +0.000 N 
ATOM     10  C   UNL     1      49.623   4.942  19.223  0.00  0.00    +0.000 C 
ATOM     11  O   UNL     1      50.527   5.767  19.225  0.00  0.00    +0.000 OA
ATOM     12  H   UNL     1      49.809   4.379  21.199  0.00  0.00    +0.000 HD
ATOM     13  H   UNL     1      48.539   3.552  20.310  0.00  0.00    +0.000 HD
ENDBRANCH   3  10
ENDBRANCH   1   6
BRANCH   1  14
ATOM     14  C   UNL     1      46.042   5.246  13.971  0.00  0.00    +0.000 C 
BRANCH  14  15
ATOM     15  C   UNL     1      45.132   4.843  12.830  0.00  0.00    +0.000 A 
ATOM     16  C   UNL     1      43.775   5.197  12.874  0.00  0.00    +0.000 A 
ATOM     17  C   UNL     1      42.931   4.903  11.809  0.00  0.00    +0.000 A 
ATOM     18  C   UNL     1      43.443   4.281  10.671  0.00  0.00    +0.000 A 
ATOM     19  C   UNL     1      44.807   3.947  10.565  0.00  0.00    +0.000 A 
ATOM     20  C   UNL     1      45.631   4.208  11.679  0.00  0.00    +0.000 A 
BRANCH  19  21
ATOM     21  C   UNL     1      45.368   3.405   9.310  0.00  0.00    +0.000 A 
ATOM     22  C   UNL     1      45.747   4.241   8.253  0.00  0.00    +0.000 A 
ATOM     23  C   UNL     1      46.297   3.689   7.098  0.00  0.00    +0.000 A 
ATOM     24  C   UNL     1      46.463   2.314   7.023  0.00  0.00    +0.000 A 
ATOM     25  C   UNL     1      46.071   1.549   8.109  0.00  0.00    +0.000 A 
ATOM     26  N   UNL     1      45.536   2.061   9.243  0.00  0.00    +0.000 NA
ENDBRANCH  19  21
ENDBRANCH  14  15
ENDBRANCH   1  14
TORSDOF 5
ENDMDL
MODEL 8
REMARK VINA RESULT:    -6.801      3.866      7.610
REMARK INTER + INTRA:          -9.399
REMARK INTER:                  -8.768
REMARK INTRA:                  -0.631
REMARK UNBOUND:                -0.610
REMARK  Name = 
REMARK  5 active torsions:
REMARK  status: ('A' for Active; 'I' for Inactive)
REMARK    1  A    between atoms: C_2  and  C_4
REMARK    2  A    between atoms: C_7  and  N_8
REMARK    3  A    between atoms: N_8  and  C_9
REMARK    4  A    between atoms: C_9  and  C_10
REMARK    5  A    between atoms: C_14  and  C_15
REMARK                            x       y       z     vdW  Elec       q    Type
REMARK                         _______ _______ _______ _____ _____    ______ ____
ROOT
ATOM      1  N   UNL     1      45.826   7.829  13.196  0.00  0.00    +0.000 N 
ATOM      2  H   UNL     1      45.365   7.043  13.644  0.00  0.00    +0.000 HD
ENDROOT
BRANCH   1   6
ATOM      3  C   UNL     1      49.764   7.817  14.355  0.00  0.00    +0.000 A 
ATOM      4  C   UNL     1      48.967   8.927  14.576  0.00  0.00    +0.000 A 
ATOM      5  N   UNL     1      47.671   8.988  14.169  0.00  0.00    +0.000 NA
ATOM      6  C   UNL     1      47.180   7.903  13.535  0.00  0.00    +0.000 A 
ATOM      7  C   UNL     1      48.009   6.791  13.318  0.00  0.00    +0.000 A 
ATOM      8  N   UNL     1      49.310   6.713  13.704  0.00  0.00    +0.000 NA
BRANCH   3  10
ATOM      9  N   UNL     1      52.135   8.033  13.923  0.00  0.00    +0.000 N 
ATOM     10  C   UNL     1      51.165   7.800  14.860  0.00  0.00    +0.000 C 
ATOM     11  O   UNL     1      51.437   7.587  16.034  0.00  0.00    +0.000 OA
ATOM     12  H   UNL     1      53.106   8.027  14.200  0.00  0.00    +0.000 HD
ATOM     13  H   UNL     1      51.878   8.201  12.957  0.00  0.00    +0.000 HD
ENDBRANCH   3  10
ENDBRANCH   1   6
BRANCH   1  14
ATOM     14  C   UNL     1      45.507   7.905  11.774  0.00  0.00    +0.000 C 
BRANCH  14  15
ATOM     15  C   UNL     1      44.890   6.594  11.333  0.00  0.00    +0.000 A 
ATOM     16  C   UNL     1      43.581   6.281  11.729  0.00  0.00    +0.000 A 
ATOM     17  C   UNL     1      42.963   5.120  11.281  0.00  0.00    +0.000 A 
ATOM     18  C   UNL     1      43.636   4.273  10.401  0.00  0.00    +0.000 A 
ATOM     19  C   UNL     1      44.934   4.569   9.942  0.00  0.00    +0.000 A 
ATOM     20  C   UNL     1      45.558   5.726  10.452  0.00  0.00    +0.000 A 
BRANCH  19  21
ATOM     21  C   UNL     1      45.592   3.736   8.914  0.00  0.00    +0.000 A 
ATOM     22  C   UNL     1      45.587   2.338   8.989  0.00  0.00    +0.000 A 
ATOM     23  C   UNL     1      46.196   1.590   7.983  0.00  0.00    +0.000 A 
ATOM     24  C   UNL     1      46.791   2.252   6.920  0.00  0.00    +0.000 A 
ATOM     25  C   UNL     1      46.753   3.636   6.908  0.00  0.00    +0.000 A 
ATOM     26  N   UNL     1      46.166   4.386   7.872  0.00  0.00    +0.000 NA
ENDBRANCH  19  21
ENDBRANCH  14  15
ENDBRANCH   1  14
TORSDOF 5
ENDMDL
MODEL 9
REMARK VINA RESULT:    -6.717      4.003      7.792
REMARK INTER + INTRA:          -9.290
REMARK INTER:                  -8.599
REMARK INTRA:                  -0.692
REMARK UNBOUND:                -0.610
REMARK  Name = 
REMARK  5 active torsions:
REMARK  status: ('A' for Active; 'I' for Inactive)
REMARK    1  A    between atoms: C_2  and  C_4
REMARK    2  A    between atoms: C_7  and  N_8
REMARK    3  A    between atoms: N_8  and  C_9
REMARK    4  A    between atoms: C_9  and  C_10
REMARK    5  A    between atoms: C_14  and  C_15
REMARK                            x       y       z     vdW  Elec       q    Type
REMARK                         _______ _______ _______ _____ _____    ______ ____
ROOT
ATOM      1  N   UNL     1      48.070   5.319  16.392  0.00  0.00    +0.000 N 
ATOM      2  H   UNL     1      47.298   4.935  15.857  0.00  0.00    +0.000 HD
ENDROOT
BRANCH   1   6
ATOM      3  C   UNL     1      50.917   2.536  17.389  0.00  0.00    +0.000 A 
ATOM      4  C   UNL     1      49.710   2.143  16.839  0.00  0.00    +0.000 A 
ATOM      5  N   UNL     1      48.724   3.029  16.534  0.00  0.00    +0.000 NA
ATOM      6  C   UNL     1      48.974   4.330  16.789  0.00  0.00    +0.000 A 
ATOM      7  C   UNL     1      50.204   4.704  17.352  0.00  0.00    +0.000 A 
ATOM      8  N   UNL     1      51.198   3.835  17.677  0.00  0.00    +0.000 NA
BRANCH   3  10
ATOM      9  N   UNL     1      51.520   0.295  18.077  0.00  0.00    +0.000 N 
ATOM     10  C   UNL     1      51.971   1.520  17.665  0.00  0.00    +0.000 C 
ATOM     11  O   UNL     1      53.164   1.760  17.536  0.00  0.00    +0.000 OA
ATOM     12  H   UNL     1      52.185  -0.435  18.287  0.00  0.00    +0.000 HD
ATOM     13  H   UNL     1      50.525   0.129  18.178  0.00  0.00    +0.000 HD
ENDBRANCH   3  10
ENDBRANCH   1   6
BRANCH   1  14
ATOM     14  C   UNL     1      48.638   6.499  15.750  0.00  0.00    +0.000 C 
BRANCH  14  15
ATOM     15  C   UNL     1      48.121   6.590  14.330  0.00  0.00    +0.000 A 
ATOM     16  C   UNL     1      48.851   7.316  13.376  0.00  0.00    +0.000 A 
ATOM     17  C   UNL     1      48.440   7.357  12.050  0.00  0.00    +0.000 A 
ATOM     18  C   UNL     1      47.309   6.644  11.653  0.00  0.00    +0.000 A 
ATOM     19  C   UNL     1      46.570   5.868  12.566  0.00  0.00    +0.000 A 
ATOM     20  C   UNL     1      46.978   5.884  13.916  0.00  0.00    +0.000 A 
BRANCH  19  21
ATOM     21  C   UNL     1      45.450   5.015  12.117  0.00  0.00    +0.000 A 
ATOM     22  C   UNL     1      44.829   5.213  10.878  0.00  0.00    +0.000 A 
ATOM     23  C   UNL     1      43.793   4.369  10.481  0.00  0.00    +0.000 A 
ATOM     24  C   UNL     1      43.403   3.341  11.327  0.00  0.00    +0.000 A 
ATOM     25  C   UNL     1      44.066   3.201  12.534  0.00  0.00    +0.000 A 
ATOM     26  N   UNL     1      45.076   4.007  12.942  0.00  0.00    +0.000 NA
ENDBRANCH  19  21
ENDBRANCH  14  15
ENDBRANCH   1  14
TORSDOF 5
ENDMDL
