MODEL 1
REMARK VINA RESULT:    -6.522      0.000      0.000
REMARK INTER + INTRA:          -9.388
REMARK INTER:                  -8.809
REMARK INTRA:                  -0.579
REMARK UNBOUND:                -0.579
REMARK  Name = 
REMARK  9 active torsions:
REMARK  status: ('A' for Active; 'I' for Inactive)
REMARK    1  A    between atoms: C_1  and  C_2
REMARK    2  A    between atoms: C_2  and  N_3
REMARK    3  A    between atoms: C_4  and  C_6
REMARK    4  A    between atoms: C_9  and  O_10
REMARK    5  A    between atoms: O_10  and  C_11
REMARK    6  A    between atoms: C_11  and  C_12
REMARK    7  A    between atoms: C_12  and  C_13
REMARK    8  A    between atoms: C_12  and  C_14
REMARK    9  A    between atoms: C_12  and  C_15
REMARK                            x       y       z     vdW  Elec       q    Type
REMARK                         _______ _______ _______ _____ _____    ______ ____
ROOT
ATOM      1  C   UNL     1      47.231   5.547  14.156  0.00  0.00    +0.000 A 
ATOM      2  C   UNL     1      47.544   6.401  13.092  0.00  0.00    +0.000 A 
ATOM      3  C   UNL     1      46.830   6.323  11.890  0.00  0.00    +0.000 A 
ATOM      4  C   UNL     1      45.803   5.390  11.736  0.00  0.00    +0.000 A 
ATOM      5  C   UNL     1      45.496   4.534  12.799  0.00  0.00    +0.000 A 
ATOM      6  C   UNL     1      46.206   4.607  14.001  0.00  0.00    +0.000 A 
ENDROOT
BRANCH   1   8
ATOM      7  N   UNL     1      47.441   4.881  16.498  0.00  0.00    +0.000 N 
ATOM      8  C   UNL     1      47.997   5.565  15.434  0.00  0.00    +0.000 C 
ATOM      9  O   UNL     1      49.066   6.160  15.497  0.00  0.00    +0.000 OA
ATOM     10  H   UNL     1      46.662   4.259  16.341  0.00  0.00    +0.000 HD
BRANCH   7  12
ATOM     11  C   UNL     1      47.398   5.730  18.806  0.00  0.00    +0.000 C 
ATOM     12  C   UNL     1      48.095   4.842  17.790  0.00  0.00    +0.000 C 
ENDBRANCH   7  12
ENDBRANCH   1   8
BRANCH   4  13
ATOM     13  O   UNL     1      45.046   5.213  10.611  0.00  0.00    +0.000 OA
BRANCH  13  14
ATOM     14  C   UNL     1      45.725   4.796   9.419  0.00  0.00    +0.000 C 
BRANCH  14  15
ATOM     15  C   UNL     1      45.060   3.517   8.827  0.00  0.00    +0.000 C 
ATOM     16  C   UNL     1      44.513   2.637   9.972  0.00  0.00    +0.000 C 
ATOM     17  C   UNL     1      43.838   3.954   7.979  0.00  0.00    +0.000 C 
BRANCH  15  18
ATOM     18  C   UNL     1      46.101   2.732   8.004  0.00  0.00    +0.000 A 
ATOM     19  C   UNL     1      46.205   1.334   8.105  0.00  0.00    +0.000 A 
ATOM     20  C   UNL     1      47.185   0.665   7.377  0.00  0.00    +0.000 A 
ATOM     21  N   UNL     1      48.062   1.274   6.557  0.00  0.00    +0.000 NA
ATOM     22  C   UNL     1      47.947   2.611   6.450  0.00  0.00    +0.000 A 
ATOM     23  C   UNL     1      47.002   3.364   7.135  0.00  0.00    +0.000 A 
ENDBRANCH  15  18
ENDBRANCH  14  15
ENDBRANCH  13  14
ENDBRANCH   4  13
TORSDOF 6
ENDMDL
MODEL 2
REMARK VINA RESULT:    -6.266      2.937      4.314
REMARK INTER + INTRA:          -9.043
REMARK INTER:                  -7.982
REMARK INTRA:                  -1.061
REMARK UNBOUND:                -0.579
REMARK  Name = 
REMARK  9 active torsions:
REMARK  status: ('A' for Active; 'I' for Inactive)
REMARK    1  A    between atoms: C_1  and  C_2
REMARK    2  A    between atoms: C_2  and  N_3
REMARK    3  A    between atoms: C_4  and  C_6
REMARK    4  A    between atoms: C_9  and  O_10
REMARK    5  A    between atoms: O_10  and  C_11
REMARK    6  A    between atoms: C_11  and  C_12
REMARK    7  A    between atoms: C_12  and  C_13
REMARK    8  A    between atoms: C_12  and  C_14
REMARK    9  A    between atoms: C_12  and  C_15
REMARK                            x       y       z     vdW  Elec       q    Type
REMARK                         _______ _______ _______ _____ _____    ______ ____
ROOT
ATOM      1  C   UNL     1      48.343   7.893  12.386  0.00  0.00    +0.000 A 
ATOM      2  C   UNL     1      47.108   8.537  12.249  0.00  0.00    +0.000 A 
ATOM      3  C   UNL     1      45.916   7.832  12.461  0.00  0.00    +0.000 A 
ATOM      4  C   UNL     1      45.945   6.480  12.804  0.00  0.00    +0.000 A 
ATOM      5  C   UNL     1      47.181   5.836  12.934  0.00  0.00    +0.000 A 
ATOM      6  C   UNL     1      48.373   6.535  12.723  0.00  0.00    +0.000 A 
ENDROOT
BRANCH   1   8
ATOM      7  N   UNL     1      50.771   7.811  12.120  0.00  0.00    +0.000 N 
ATOM      8  C   UNL     1      49.632   8.593  12.124  0.00  0.00    +0.000 C 
ATOM      9  O   UNL     1      49.640   9.800  11.917  0.00  0.00    +0.000 OA
ATOM     10  H   UNL     1      50.688   6.805  12.109  0.00  0.00    +0.000 HD
BRANCH   7  12
ATOM     11  C   UNL     1      52.496   8.283  10.432  0.00  0.00    +0.000 C 
ATOM     12  C   UNL     1      52.079   8.390  11.887  0.00  0.00    +0.000 C 
ENDBRANCH   7  12
ENDBRANCH   1   8
BRANCH   4  13
ATOM     13  O   UNL     1      44.853   5.688  13.024  0.00  0.00    +0.000 OA
BRANCH  13  14
ATOM     14  C   UNL     1      44.981   4.291  12.726  0.00  0.00    +0.000 C 
BRANCH  14  15
ATOM     15  C   UNL     1      43.989   3.876  11.598  0.00  0.00    +0.000 C 
ATOM     16  C   UNL     1      43.308   2.540  11.970  0.00  0.00    +0.000 C 
ATOM     17  C   UNL     1      42.866   4.942  11.523  0.00  0.00    +0.000 C 
BRANCH  15  18
ATOM     18  C   UNL     1      44.757   3.730  10.269  0.00  0.00    +0.000 A 
ATOM     19  C   UNL     1      45.314   4.849   9.623  0.00  0.00    +0.000 A 
ATOM     20  C   UNL     1      45.965   4.682   8.404  0.00  0.00    +0.000 A 
ATOM     21  N   UNL     1      46.110   3.497   7.783  0.00  0.00    +0.000 NA
ATOM     22  C   UNL     1      45.591   2.426   8.414  0.00  0.00    +0.000 A 
ATOM     23  C   UNL     1      44.925   2.493   9.631  0.00  0.00    +0.000 A 
ENDBRANCH  15  18
ENDBRANCH  14  15
ENDBRANCH  13  14
ENDBRANCH   4  13
TORSDOF 6
ENDMDL
MODEL 3
REMARK VINA RESULT:    -6.170      2.975      4.254
REMARK INTER + INTRA:          -8.913
REMARK INTER:                  -8.036
REMARK INTRA:                  -0.877
REMARK UNBOUND:                -0.579
REMARK  Name = 
REMARK  9 active torsions:
REMARK  status: ('A' for Active; 'I' for Inactive)
REMARK    1  A    between atoms: C_1  and  C_2
REMARK    2  A    between atoms: C_2  and  N_3
REMARK    3  A    between atoms: C_4  and  C_6
REMARK    4  A    between atoms: C_9  and  O_10
REMARK    5  A    between atoms: O_10  and  C_11
REMARK    6  A    between atoms: C_11  and  C_12
REMARK    7  A    between atoms: C_12  and  C_13
REMARK    8  A    between atoms: C_12  and  C_14
REMARK    9  A    between atoms: C_12  and  C_15
REMARK                            x       y       z     vdW  Elec       q    Type
REMARK                         _______ _______ _______ _____ _____    ______ ____
ROOT
ATOM      1  C   UNL     1      49.190   7.418  12.693  0.00  0.00    +0.000 A 
ATOM      2  C   UNL     1      48.731   6.838  13.881  0.00  0.00    +0.000 A 
ATOM      3  C   UNL     1      47.472   6.224  13.927  0.00  0.00    +0.000 A 
ATOM      4  C   UNL     1      46.659   6.190  12.793  0.00  0.00    +0.000 A 
ATOM      5  C   UNL     1      47.118   6.776  11.609  0.00  0.00    +0.000 A 
ATOM      6  C   UNL     1      48.373   7.391  11.557  0.00  0.00    +0.000 A 
ENDROOT
BRANCH   1   8
ATOM      7  N   UNL     1      51.309   7.804  11.540  0.00  0.00    +0.000 N 
ATOM      8  C   UNL     1      50.501   8.122  12.613  0.00  0.00    +0.000 C 
ATOM      9  O   UNL     1      50.806   8.941  13.471  0.00  0.00    +0.000 OA
ATOM     10  H   UNL     1      50.933   7.269  10.771  0.00  0.00    +0.000 HD
BRANCH   7  12
ATOM     11  C   UNL     1      52.703   9.200  10.071  0.00  0.00    +0.000 C 
ATOM     12  C   UNL     1      52.610   8.420  11.370  0.00  0.00    +0.000 C 
ENDBRANCH   7  12
ENDBRANCH   1   8
BRANCH   4  13
ATOM     13  O   UNL     1      45.413   5.632  12.720  0.00  0.00    +0.000 OA
BRANCH  13  14
ATOM     14  C   UNL     1      45.334   4.240  12.383  0.00  0.00    +0.000 C 
BRANCH  14  15
ATOM     15  C   UNL     1      44.235   3.998  11.305  0.00  0.00    +0.000 C 
ATOM     16  C   UNL     1      43.307   2.849  11.757  0.00  0.00    +0.000 C 
ATOM     17  C   UNL     1      43.355   5.271  11.215  0.00  0.00    +0.000 C 
BRANCH  15  18
ATOM     18  C   UNL     1      44.904   3.644   9.962  0.00  0.00    +0.000 A 
ATOM     19  C   UNL     1      45.068   2.306   9.561  0.00  0.00    +0.000 A 
ATOM     20  C   UNL     1      45.715   2.025   8.360  0.00  0.00    +0.000 A 
ATOM     21  N   UNL     1      46.203   2.965   7.529  0.00  0.00    +0.000 NA
ATOM     22  C   UNL     1      46.027   4.245   7.909  0.00  0.00    +0.000 A 
ATOM     23  C   UNL     1      45.396   4.623   9.087  0.00  0.00    +0.000 A 
ENDBRANCH  15  18
ENDBRANCH  14  15
ENDBRANCH  13  14
ENDBRANCH   4  13
TORSDOF 6
ENDMDL
MODEL 4
REMARK VINA RESULT:    -6.012      2.298      8.467
REMARK INTER + INTRA:          -8.700
REMARK INTER:                  -8.112
REMARK INTRA:                  -0.588
REMARK UNBOUND:                -0.579
REMARK  Name = 
REMARK  9 active torsions:
REMARK  status: ('A' for Active; 'I' for Inactive)
REMARK    1  A    between atoms: C_1  and  C_2
REMARK    2  A    between atoms: C_2  and  N_3
REMARK    3  A    between atoms: C_4  and  C_6
REMARK    4  A    between atoms: C_9  and  O_10
REMARK    5  A    between atoms: O_10  and  C_11
REMARK    6  A    between atoms: C_11  and  C_12
REMARK    7  A    between atoms: C_12  and  C_13
REMARK    8  A    between atoms: C_12  and  C_14
REMARK    9  A    between atoms: C_12  and  C_15
REMARK                            x       y       z     vdW  Elec       q    Type
REMARK                         _______ _______ _______ _____ _____    ______ ____
ROOT
ATOM      1  C   UNL     1      45.532   4.600  11.564  0.00  0.00    +0.000 A 
ATOM      2  C   UNL     1      45.675   3.573  12.504  0.00  0.00    +0.000 A 
ATOM      3  C   UNL     1      46.422   3.782  13.671  0.00  0.00    +0.000 A 
ATOM      4  C   UNL     1      47.039   5.012  13.906  0.00  0.00    +0.000 A 
ATOM      5  C   UNL     1      46.900   6.034  12.962  0.00  0.00    +0.000 A 
ATOM      6  C   UNL     1      46.156   5.832  11.796  0.00  0.00    +0.000 A 
ENDROOT
BRANCH   1   8
ATOM      7  N   UNL     1      45.497   3.867   9.234  0.00  0.00    +0.000 N 
ATOM      8  C   UNL     1      44.786   4.405  10.289  0.00  0.00    +0.000 C 
ATOM      9  O   UNL     1      43.602   4.710  10.222  0.00  0.00    +0.000 OA
ATOM     10  H   UNL     1      46.408   3.464   9.396  0.00  0.00    +0.000 HD
BRANCH   7  12
ATOM     11  C   UNL     1      45.889   3.271   6.880  0.00  0.00    +0.000 C 
ATOM     12  C   UNL     1      44.874   3.645   7.944  0.00  0.00    +0.000 C 
ENDBRANCH   7  12
ENDBRANCH   1   8
BRANCH   4  13
ATOM     13  O   UNL     1      47.799   5.328  14.998  0.00  0.00    +0.000 OA
BRANCH  13  14
ATOM     14  C   UNL     1      47.472   4.685  16.236  0.00  0.00    +0.000 C 
BRANCH  14  15
ATOM     15  C   UNL     1      48.476   5.101  17.354  0.00  0.00    +0.000 C 
ATOM     16  C   UNL     1      49.070   6.490  17.028  0.00  0.00    +0.000 C 
ATOM     17  C   UNL     1      47.689   5.254  18.680  0.00  0.00    +0.000 C 
BRANCH  15  18
ATOM     18  C   UNL     1      49.601   4.051  17.449  0.00  0.00    +0.000 A 
ATOM     19  C   UNL     1      50.893   4.405  17.876  0.00  0.00    +0.000 A 
ATOM     20  C   UNL     1      51.892   3.437  17.910  0.00  0.00    +0.000 A 
ATOM     21  N   UNL     1      51.707   2.150  17.560  0.00  0.00    +0.000 NA
ATOM     22  C   UNL     1      50.464   1.812  17.170  0.00  0.00    +0.000 A 
ATOM     23  C   UNL     1      49.403   2.706  17.104  0.00  0.00    +0.000 A 
ENDBRANCH  15  18
ENDBRANCH  14  15
ENDBRANCH  13  14
ENDBRANCH   4  13
TORSDOF 6
ENDMDL
MODEL 5
REMARK VINA RESULT:    -6.004      2.382      2.948
REMARK INTER + INTRA:          -8.689
REMARK INTER:                  -8.016
REMARK INTRA:                  -0.673
REMARK UNBOUND:                -0.579
REMARK  Name = 
REMARK  9 active torsions:
REMARK  status: ('A' for Active; 'I' for Inactive)
REMARK    1  A    between atoms: C_1  and  C_2
REMARK    2  A    between atoms: C_2  and  N_3
REMARK    3  A    between atoms: C_4  and  C_6
REMARK    4  A    between atoms: C_9  and  O_10
REMARK    5  A    between atoms: O_10  and  C_11
REMARK    6  A    between atoms: C_11  and  C_12
REMARK    7  A    between atoms: C_12  and  C_13
REMARK    8  A    between atoms: C_12  and  C_14
REMARK    9  A    between atoms: C_12  and  C_15
REMARK                            x       y       z     vdW  Elec       q    Type
REMARK                         _______ _______ _______ _____ _____    ______ ____
ROOT
ATOM      1  C   UNL     1      49.075   7.367  13.540  0.00  0.00    +0.000 A 
ATOM      2  C   UNL     1      48.637   7.889  12.318  0.00  0.00    +0.000 A 
ATOM      3  C   UNL     1      47.436   7.445  11.749  0.00  0.00    +0.000 A 
ATOM      4  C   UNL     1      46.667   6.472  12.390  0.00  0.00    +0.000 A 
ATOM      5  C   UNL     1      47.110   5.947  13.608  0.00  0.00    +0.000 A 
ATOM      6  C   UNL     1      48.308   6.386  14.180  0.00  0.00    +0.000 A 
ENDROOT
BRANCH   1   8
ATOM      7  N   UNL     1      50.786   7.054  15.256  0.00  0.00    +0.000 N 
ATOM      8  C   UNL     1      50.369   7.777  14.155  0.00  0.00    +0.000 C 
ATOM      9  O   UNL     1      51.005   8.707  13.676  0.00  0.00    +0.000 OA
ATOM     10  H   UNL     1      50.324   6.189  15.492  0.00  0.00    +0.000 HD
BRANCH   7  12
ATOM     11  C   UNL     1      52.612   6.165  16.644  0.00  0.00    +0.000 C 
ATOM     12  C   UNL     1      52.023   7.374  15.940  0.00  0.00    +0.000 C 
ENDBRANCH   7  12
ENDBRANCH   1   8
BRANCH   4  13
ATOM     13  O   UNL     1      45.489   5.954  11.929  0.00  0.00    +0.000 OA
BRANCH  13  14
ATOM     14  C   UNL     1      45.277   4.546  12.099  0.00  0.00    +0.000 C 
BRANCH  14  15
ATOM     15  C   UNL     1      44.215   4.024  11.084  0.00  0.00    +0.000 C 
ATOM     16  C   UNL     1      43.414   2.866  11.720  0.00  0.00    +0.000 C 
ATOM     17  C   UNL     1      43.204   5.166  10.809  0.00  0.00    +0.000 C 
BRANCH  15  18
ATOM     18  C   UNL     1      44.925   3.539   9.804  0.00  0.00    +0.000 A 
ATOM     19  C   UNL     1      45.092   2.168   9.539  0.00  0.00    +0.000 A 
ATOM     20  C   UNL     1      45.775   1.771   8.393  0.00  0.00    +0.000 A 
ATOM     21  N   UNL     1      46.296   2.624   7.492  0.00  0.00    +0.000 NA
ATOM     22  C   UNL     1      46.117   3.935   7.741  0.00  0.00    +0.000 A 
ATOM     23  C   UNL     1      45.451   4.428   8.855  0.00  0.00    +0.000 A 
ENDBRANCH  15  18
ENDBRANCH  14  15
ENDBRANCH  13  14
ENDBRANCH   4  13
TORSDOF 6
ENDMDL
MODEL 6
REMARK VINA RESULT:    -5.838      2.514      7.751
REMARK INTER + INTRA:          -8.465
REMARK INTER:                  -7.653
REMARK INTRA:                  -0.811
REMARK UNBOUND:                -0.579
REMARK  Name = 
REMARK  9 active torsions:
REMARK  status: ('A' for Active; 'I' for Inactive)
REMARK    1  A    between atoms: C_1  and  C_2
REMARK    2  A    between atoms: C_2  and  N_3
REMARK    3  A    between atoms: C_4  and  C_6
REMARK    4  A    between atoms: C_9  and  O_10
REMARK    5  A    between atoms: O_10  and  C_11
REMARK    6  A    between atoms: C_11  and  C_12
REMARK    7  A    between atoms: C_12  and  C_13
REMARK    8  A    between atoms: C_12  and  C_14
REMARK    9  A    between atoms: C_12  and  C_15
REMARK                            x       y       z     vdW  Elec       q    Type
REMARK                         _______ _______ _______ _____ _____    ______ ____
ROOT
ATOM      1  C   UNL     1      44.875   4.428  11.348  0.00  0.00    +0.000 A 
ATOM      2  C   UNL     1      45.385   4.372  12.649  0.00  0.00    +0.000 A 
ATOM      3  C   UNL     1      45.748   5.548  13.318  0.00  0.00    +0.000 A 
ATOM      4  C   UNL     1      45.612   6.788  12.692  0.00  0.00    +0.000 A 
ATOM      5  C   UNL     1      45.108   6.842  11.388  0.00  0.00    +0.000 A 
ATOM      6  C   UNL     1      44.744   5.671  10.716  0.00  0.00    +0.000 A 
ENDROOT
BRANCH   1   8
ATOM      7  N   UNL     1      45.406   2.807   9.598  0.00  0.00    +0.000 N 
ATOM      8  C   UNL     1      44.521   3.198  10.584  0.00  0.00    +0.000 C 
ATOM      9  O   UNL     1      43.495   2.587  10.853  0.00  0.00    +0.000 OA
ATOM     10  H   UNL     1      46.319   3.235   9.546  0.00  0.00    +0.000 HD
BRANCH   7  12
ATOM     11  C   UNL     1      46.365   1.252   7.952  0.00  0.00    +0.000 C 
ATOM     12  C   UNL     1      45.156   1.633   8.786  0.00  0.00    +0.000 C 
ENDBRANCH   7  12
ENDBRANCH   1   8
BRANCH   4  13
ATOM     13  O   UNL     1      45.942   7.998  13.237  0.00  0.00    +0.000 OA
BRANCH  13  14
ATOM     14  C   UNL     1      46.654   8.924  12.404  0.00  0.00    +0.000 C 
BRANCH  14  15
ATOM     15  C   UNL     1      48.193   8.748  12.578  0.00  0.00    +0.000 C 
ATOM     16  C   UNL     1      48.701   7.642  11.627  0.00  0.00    +0.000 C 
ATOM     17  C   UNL     1      48.884  10.064  12.140  0.00  0.00    +0.000 C 
BRANCH  15  18
ATOM     18  C   UNL     1      48.503   8.374  14.042  0.00  0.00    +0.000 A 
ATOM     19  C   UNL     1      48.973   7.093  14.382  0.00  0.00    +0.000 A 
ATOM     20  C   UNL     1      49.202   6.780  15.719  0.00  0.00    +0.000 A 
ATOM     21  N   UNL     1      49.008   7.638  16.738  0.00  0.00    +0.000 NA
ATOM     22  C   UNL     1      48.575   8.869  16.405  0.00  0.00    +0.000 A 
ATOM     23  C   UNL     1      48.319   9.274  15.101  0.00  0.00    +0.000 A 
ENDBRANCH  15  18
ENDBRANCH  14  15
ENDBRANCH  13  14
ENDBRANCH   4  13
TORSDOF 6
ENDMDL
MODEL 7
REMARK VINA RESULT:    -5.685      2.366      8.210
REMARK INTER + INTRA:          -8.258
REMARK INTER:                  -7.533
REMARK INTRA:                  -0.726
REMARK UNBOUND:                -0.579
REMARK  Name = 
REMARK  9 active torsions:
REMARK  status: ('A' for Active; 'I' for Inactive)
REMARK    1  A    between atoms: C_1  and  C_2
REMARK    2  A    between atoms: C_2  and  N_3
REMARK    3  A    between atoms: C_4  and  C_6
REMARK    4  A    between atoms: C_9  and  O_10
REMARK    5  A    between atoms: O_10  and  C_11
REMARK    6  A    between atoms: C_11  and  C_12
REMARK    7  A    between atoms: C_12  and  C_13
REMARK    8  A    between atoms: C_12  and  C_14
REMARK    9  A    between atoms: C_12  and  C_15
REMARK                            x       y       z     vdW  Elec       q    Type
REMARK                         _______ _______ _______ _____ _____    ______ ____
ROOT
ATOM      1  C   UNL     1      46.153   5.693  12.268  0.00  0.00    +0.000 A 
ATOM      2  C   UNL     1      47.143   6.665  12.082  0.00  0.00    +0.000 A 
ATOM      3  C   UNL     1      48.116   6.879  13.066  0.00  0.00    +0.000 A 
ATOM      4  C   UNL     1      48.107   6.133  14.245  0.00  0.00    +0.000 A 
ATOM      5  C   UNL     1      47.113   5.166  14.431  0.00  0.00    +0.000 A 
ATOM      6  C   UNL     1      46.139   4.948  13.452  0.00  0.00    +0.000 A 
ENDROOT
BRANCH   1   8
ATOM      7  N   UNL     1      45.233   4.389  10.417  0.00  0.00    +0.000 N 
ATOM      8  C   UNL     1      45.072   5.466  11.267  0.00  0.00    +0.000 C 
ATOM      9  O   UNL     1      44.102   6.212  11.237  0.00  0.00    +0.000 OA
ATOM     10  H   UNL     1      45.950   3.704  10.606  0.00  0.00    +0.000 HD
BRANCH   7  12
ATOM     11  C   UNL     1      44.895   3.598   8.113  0.00  0.00    +0.000 C 
ATOM     12  C   UNL     1      44.249   4.082   9.398  0.00  0.00    +0.000 C 
ENDBRANCH   7  12
ENDBRANCH   1   8
BRANCH   4  13
ATOM     13  O   UNL     1      48.994   6.259  15.278  0.00  0.00    +0.000 OA
BRANCH  13  14
ATOM     14  C   UNL     1      48.460   6.260  16.609  0.00  0.00    +0.000 C 
BRANCH  14  15
ATOM     15  C   UNL     1      49.539   5.795  17.633  0.00  0.00    +0.000 C 
ATOM     16  C   UNL     1      50.819   6.642  17.461  0.00  0.00    +0.000 C 
ATOM     17  C   UNL     1      49.006   6.079  19.061  0.00  0.00    +0.000 C 
BRANCH  15  18
ATOM     18  C   UNL     1      49.854   4.303  17.404  0.00  0.00    +0.000 A 
ATOM     19  C   UNL     1      48.843   3.392  17.047  0.00  0.00    +0.000 A 
ATOM     20  C   UNL     1      49.159   2.046  16.890  0.00  0.00    +0.000 A 
ATOM     21  N   UNL     1      50.394   1.537  17.052  0.00  0.00    +0.000 NA
ATOM     22  C   UNL     1      51.362   2.416  17.376  0.00  0.00    +0.000 A 
ATOM     23  C   UNL     1      51.144   3.776  17.555  0.00  0.00    +0.000 A 
ENDBRANCH  15  18
ENDBRANCH  14  15
ENDBRANCH  13  14
ENDBRANCH   4  13
TORSDOF 6
ENDMDL
MODEL 8
REMARK VINA RESULT:    -5.436      2.278      8.176
REMARK INTER + INTRA:          -7.921
REMARK INTER:                  -7.026
REMARK INTRA:                  -0.896
REMARK UNBOUND:                -0.579
REMARK  Name = 
REMARK  9 active torsions:
REMARK  status: ('A' for Active; 'I' for Inactive)
REMARK    1  A    between atoms: C_1  and  C_2
REMARK    2  A    between atoms: C_2  and  N_3
REMARK    3  A    between atoms: C_4  and  C_6
REMARK    4  A    between atoms: C_9  and  O_10
REMARK    5  A    between atoms: O_10  and  C_11
REMARK    6  A    between atoms: C_11  and  C_12
REMARK    7  A    between atoms: C_12  and  C_13
REMARK    8  A    between atoms: C_12  and  C_14
REMARK    9  A    between atoms: C_12  and  C_15
REMARK                            x       y       z     vdW  Elec       q    Type
REMARK                         _______ _______ _______ _____ _____    ______ ____
ROOT
ATOM      1  C   UNL     1      45.674   6.352  11.907  0.00  0.00    +0.000 A 
ATOM      2  C   UNL     1      45.489   7.680  12.308  0.00  0.00    +0.000 A 
ATOM      3  C   UNL     1      46.395   8.285  13.189  0.00  0.00    +0.000 A 
ATOM      4  C   UNL     1      47.487   7.570  13.682  0.00  0.00    +0.000 A 
ATOM      5  C   UNL     1      47.667   6.241  13.284  0.00  0.00    +0.000 A 
ATOM      6  C   UNL     1      46.766   5.632  12.406  0.00  0.00    +0.000 A 
ENDROOT
BRANCH   1   8
ATOM      7  N   UNL     1      45.237   5.050   9.886  0.00  0.00    +0.000 N 
ATOM      8  C   UNL     1      44.709   5.657  11.009  0.00  0.00    +0.000 C 
ATOM      9  O   UNL     1      43.518   5.639  11.291  0.00  0.00    +0.000 OA
ATOM     10  H   UNL     1      46.236   4.935   9.801  0.00  0.00    +0.000 HD
BRANCH   7  12
ATOM     11  C   UNL     1      45.186   3.445   8.023  0.00  0.00    +0.000 C 
ATOM     12  C   UNL     1      44.388   4.355   8.939  0.00  0.00    +0.000 C 
ENDBRANCH   7  12
ENDBRANCH   1   8
BRANCH   4  13
ATOM     13  O   UNL     1      48.428   8.049  14.552  0.00  0.00    +0.000 OA
BRANCH  13  14
ATOM     14  C   UNL     1      49.519   7.180  14.885  0.00  0.00    +0.000 C 
BRANCH  14  15
ATOM     15  C   UNL     1      49.648   7.028  16.430  0.00  0.00    +0.000 C 
ATOM     16  C   UNL     1      51.097   7.339  16.864  0.00  0.00    +0.000 C 
ATOM     17  C   UNL     1      48.744   8.094  17.100  0.00  0.00    +0.000 C 
BRANCH  15  18
ATOM     18  C   UNL     1      49.268   5.589  16.836  0.00  0.00    +0.000 A 
ATOM     19  C   UNL     1      47.963   5.100  16.647  0.00  0.00    +0.000 A 
ATOM     20  C   UNL     1      47.649   3.810  17.064  0.00  0.00    +0.000 A 
ATOM     21  N   UNL     1      48.526   2.971  17.646  0.00  0.00    +0.000 NA
ATOM     22  C   UNL     1      49.778   3.437  17.808  0.00  0.00    +0.000 A 
ATOM     23  C   UNL     1      50.186   4.708  17.425  0.00  0.00    +0.000 A 
ENDBRANCH  15  18
ENDBRANCH  14  15
ENDBRANCH  13  14
ENDBRANCH   4  13
TORSDOF 6
ENDMDL
MODEL 9
REMARK VINA RESULT:    -5.219      2.163      8.731
REMARK INTER + INTRA:          -7.628
REMARK INTER:                  -6.892
REMARK INTRA:                  -0.737
REMARK UNBOUND:                -0.579
REMARK  Name = 
REMARK  9 active torsions:
REMARK  status: ('A' for Active; 'I' for Inactive)
REMARK    1  A    between atoms: C_1  and  C_2
REMARK    2  A    between atoms: C_2  and  N_3
REMARK    3  A    between atoms: C_4  and  C_6
REMARK    4  A    between atoms: C_9  and  O_10
REMARK    5  A    between atoms: O_10  and  C_11
REMARK    6  A    between atoms: C_11  and  C_12
REMARK    7  A    between atoms: C_12  and  C_13
REMARK    8  A    between atoms: C_12  and  C_14
REMARK    9  A    between atoms: C_12  and  C_15
REMARK                            x       y       z     vdW  Elec       q    Type
REMARK                         _______ _______ _______ _____ _____    ______ ____
ROOT
ATOM      1  C   UNL     1      45.528   5.074  11.656  0.00  0.00    +0.000 A 
ATOM      2  C   UNL     1      45.968   4.561  12.881  0.00  0.00    +0.000 A 
ATOM      3  C   UNL     1      46.753   5.348  13.735  0.00  0.00    +0.000 A 
ATOM      4  C   UNL     1      47.111   6.647  13.371  0.00  0.00    +0.000 A 
ATOM      5  C   UNL     1      46.675   7.155  12.143  0.00  0.00    +0.000 A 
ATOM      6  C   UNL     1      45.892   6.374  11.287  0.00  0.00    +0.000 A 
ENDROOT
BRANCH   1   8
ATOM      7  N   UNL     1      45.207   2.987  10.426  0.00  0.00    +0.000 N 
ATOM      8  C   UNL     1      44.732   4.256  10.698  0.00  0.00    +0.000 C 
ATOM      9  O   UNL     1      43.710   4.715  10.205  0.00  0.00    +0.000 OA
ATOM     10  H   UNL     1      45.941   2.594  10.996  0.00  0.00    +0.000 HD
BRANCH   7  12
ATOM     11  C   UNL     1      45.473   1.464   8.513  0.00  0.00    +0.000 C 
ATOM     12  C   UNL     1      44.518   2.110   9.501  0.00  0.00    +0.000 C 
ENDBRANCH   7  12
ENDBRANCH   1   8
BRANCH   4  13
ATOM     13  O   UNL     1      47.879   7.501  14.113  0.00  0.00    +0.000 OA
BRANCH  13  14
ATOM     14  C   UNL     1      48.925   6.926  14.907  0.00  0.00    +0.000 C 
BRANCH  14  15
ATOM     15  C   UNL     1      49.144   7.753  16.209  0.00  0.00    +0.000 C 
ATOM     16  C   UNL     1      50.605   8.251  16.270  0.00  0.00    +0.000 C 
ATOM     17  C   UNL     1      48.247   9.015  16.140  0.00  0.00    +0.000 C 
BRANCH  15  18
ATOM     18  C   UNL     1      48.832   6.870  17.435  0.00  0.00    +0.000 A 
ATOM     19  C   UNL     1      48.288   5.582  17.284  0.00  0.00    +0.000 A 
ATOM     20  C   UNL     1      47.981   4.832  18.416  0.00  0.00    +0.000 A 
ATOM     21  N   UNL     1      48.177   5.257  19.678  0.00  0.00    +0.000 NA
ATOM     22  C   UNL     1      48.715   6.484  19.816  0.00  0.00    +0.000 A 
ATOM     23  C   UNL     1      49.053   7.305  18.749  0.00  0.00    +0.000 A 
ENDBRANCH  15  18
ENDBRANCH  14  15
ENDBRANCH  13  14
ENDBRANCH   4  13
TORSDOF 6
ENDMDL
