MODEL 1
REMARK VINA RESULT:    -8.166      0.000      0.000
REMARK INTER + INTRA:         -10.105
REMARK INTER:                  -9.836
REMARK INTRA:                  -0.268
REMARK UNBOUND:                -0.268
REMARK  Name = 
REMARK  4 active torsions:
REMARK  status: ('A' for Active; 'I' for Inactive)
REMARK    1  A    between atoms: N_1  and  C_2
REMARK    2  A    between atoms: C_2  and  C_3
REMARK    3  A    between atoms: C_7  and  C_8
REMARK    4  A    between atoms: C_8  and  N_9
REMARK                            x       y       z     vdW  Elec       q    Type
REMARK                         _______ _______ _______ _____ _____    ______ ____
ROOT
ATOM      1  C   UNL     1      44.135   4.007   9.236  0.00  0.00    +0.000 C 
ENDROOT
BRANCH   1   2
ATOM      2  N   UNL     1      44.393   4.074  10.667  0.00  0.00    +0.000 N 
ATOM      3  C   UNL     1      43.848   3.239  11.604  0.00  0.00    +0.000 A 
ATOM      4  N   UNL     1      44.352   3.455  12.797  0.00  0.00    +0.000 NA
ATOM      5  C   UNL     1      45.255   4.475  12.630  0.00  0.00    +0.000 A 
ATOM      6  C   UNL     1      46.086   5.091  13.578  0.00  0.00    +0.000 A 
ATOM      7  C   UNL     1      46.925   6.123  13.148  0.00  0.00    +0.000 A 
ATOM      8 CL   UNL     1      47.972   6.887  14.285  0.00  0.00    +0.000 Cl
ATOM      9  C   UNL     1      46.935   6.549  11.819  0.00  0.00    +0.000 A 
ATOM     10  C   UNL     1      46.114   5.942  10.861  0.00  0.00    +0.000 A 
ATOM     11  C   UNL     1      45.293   4.898  11.302  0.00  0.00    +0.000 A 
ENDBRANCH   1   2
BRANCH   1  16
ATOM     12  C   UNL     1      46.654   2.500   6.765  0.00  0.00    +0.000 A 
ATOM     13  C   UNL     1      46.718   1.228   7.320  0.00  0.00    +0.000 A 
ATOM     14  N   UNL     1      46.020   0.843   8.411  0.00  0.00    +0.000 NA
ATOM     15  C   UNL     1      45.208   1.765   8.971  0.00  0.00    +0.000 A 
ATOM     16  C   UNL     1      45.042   3.064   8.495  0.00  0.00    +0.000 A 
ATOM     17  C   UNL     1      45.805   3.428   7.381  0.00  0.00    +0.000 A 
BRANCH  12  18
ATOM     18  C   UNL     1      47.442   2.857   5.537  0.00  0.00    +0.000 C 
BRANCH  18  19
ATOM     19  N   UNL     1      48.513   1.901   5.288  0.00  0.00    +0.000 NA
ATOM     20  H   UNL     1      49.093   1.825   6.122  0.00  0.00    +0.000 HD
ATOM     21  H   UNL     1      49.118   2.260   4.550  0.00  0.00    +0.000 HD
ENDBRANCH  18  19
ENDBRANCH  12  18
ENDBRANCH   1  16
TORSDOF 4
ENDMDL
MODEL 2
REMARK VINA RESULT:    -7.595      1.453      1.974
REMARK INTER + INTRA:          -9.417
REMARK INTER:                  -9.092
REMARK INTRA:                  -0.325
REMARK UNBOUND:                -0.268
REMARK  Name = 
REMARK  4 active torsions:
REMARK  status: ('A' for Active; 'I' for Inactive)
REMARK    1  A    between atoms: N_1  and  C_2
REMARK    2  A    between atoms: C_2  and  C_3
REMARK    3  A    between atoms: C_7  and  C_8
REMARK    4  A    between atoms: C_8  and  N_9
REMARK                            x       y       z     vdW  Elec       q    Type
REMARK                         _______ _______ _______ _____ _____    ______ ____
ROOT
ATOM      1  C   UNL     1      44.318   3.406  10.225  0.00  0.00    +0.000 C 
ENDROOT
BRANCH   1   2
ATOM      2  N   UNL     1      44.971   3.844  11.450  0.00  0.00    +0.000 N 
ATOM      3  C   UNL     1      45.425   3.013  12.438  0.00  0.00    +0.000 A 
ATOM      4  N   UNL     1      46.078   3.676  13.365  0.00  0.00    +0.000 NA
ATOM      5  C   UNL     1      46.038   4.990  12.968  0.00  0.00    +0.000 A 
ATOM      6  C   UNL     1      46.591   6.122  13.586  0.00  0.00    +0.000 A 
ATOM      7  C   UNL     1      46.406   7.364  12.972  0.00  0.00    +0.000 A 
ATOM      8 CL   UNL     1      47.090   8.771  13.695  0.00  0.00    +0.000 Cl
ATOM      9  C   UNL     1      45.680   7.490  11.786  0.00  0.00    +0.000 A 
ATOM     10  C   UNL     1      45.125   6.370  11.157  0.00  0.00    +0.000 A 
ATOM     11  C   UNL     1      45.335   5.131  11.773  0.00  0.00    +0.000 A 
ENDBRANCH   1   2
BRANCH   1  16
ATOM     12  C   UNL     1      46.583   1.975   7.478  0.00  0.00    +0.000 A 
ATOM     13  C   UNL     1      46.879   3.173   6.840  0.00  0.00    +0.000 A 
ATOM     14  N   UNL     1      46.403   4.375   7.231  0.00  0.00    +0.000 NA
ATOM     15  C   UNL     1      45.603   4.389   8.319  0.00  0.00    +0.000 A 
ATOM     16  C   UNL     1      45.251   3.259   9.055  0.00  0.00    +0.000 A 
ATOM     17  C   UNL     1      45.744   2.032   8.597  0.00  0.00    +0.000 A 
BRANCH  12  18
ATOM     18  C   UNL     1      47.163   0.673   7.003  0.00  0.00    +0.000 C 
BRANCH  18  19
ATOM     19  N   UNL     1      46.760  -0.439   7.855  0.00  0.00    +0.000 NA
ATOM     20  H   UNL     1      46.154  -1.062   7.324  0.00  0.00    +0.000 HD
ATOM     21  H   UNL     1      46.199  -0.083   8.627  0.00  0.00    +0.000 HD
ENDBRANCH  18  19
ENDBRANCH  12  18
ENDBRANCH   1  16
TORSDOF 4
ENDMDL
MODEL 3
REMARK VINA RESULT:    -7.089      3.133      6.210
REMARK INTER + INTRA:          -8.808
REMARK INTER:                  -8.376
REMARK INTRA:                  -0.432
REMARK UNBOUND:                -0.268
REMARK  Name = 
REMARK  4 active torsions:
REMARK  status: ('A' for Active; 'I' for Inactive)
REMARK    1  A    between atoms: N_1  and  C_2
REMARK    2  A    between atoms: C_2  and  C_3
REMARK    3  A    between atoms: C_7  and  C_8
REMARK    4  A    between atoms: C_8  and  N_9
REMARK                            x       y       z     vdW  Elec       q    Type
REMARK                         _______ _______ _______ _____ _____    ______ ____
ROOT
ATOM      1  C   UNL     1      43.658   5.994  10.985  0.00  0.00    +0.000 C 
ENDROOT
BRANCH   1   2
ATOM      2  N   UNL     1      43.948   4.597  10.693  0.00  0.00    +0.000 N 
ATOM      3  C   UNL     1      43.356   3.528  11.307  0.00  0.00    +0.000 A 
ATOM      4  N   UNL     1      43.721   2.392  10.758  0.00  0.00    +0.000 NA
ATOM      5  C   UNL     1      44.589   2.737   9.753  0.00  0.00    +0.000 A 
ATOM      6  C   UNL     1      45.266   1.913   8.841  0.00  0.00    +0.000 A 
ATOM      7  C   UNL     1      46.106   2.519   7.903  0.00  0.00    +0.000 A 
ATOM      8 CL   UNL     1      46.937   1.535   6.756  0.00  0.00    +0.000 Cl
ATOM      9  C   UNL     1      46.288   3.903   7.872  0.00  0.00    +0.000 A 
ATOM     10  C   UNL     1      45.617   4.738   8.773  0.00  0.00    +0.000 A 
ATOM     11  C   UNL     1      44.765   4.119   9.695  0.00  0.00    +0.000 A 
ENDBRANCH   1   2
BRANCH   1  16
ATOM     12  C   UNL     1      46.734   6.756  13.149  0.00  0.00    +0.000 A 
ATOM     13  C   UNL     1      46.706   8.140  13.028  0.00  0.00    +0.000 A 
ATOM     14  N   UNL     1      45.785   8.817  12.310  0.00  0.00    +0.000 NA
ATOM     15  C   UNL     1      44.835   8.083  11.691  0.00  0.00    +0.000 A 
ATOM     16  C   UNL     1      44.744   6.695  11.755  0.00  0.00    +0.000 A 
ATOM     17  C   UNL     1      45.735   6.032  12.487  0.00  0.00    +0.000 A 
BRANCH  12  18
ATOM     18  C   UNL     1      47.776   6.066  13.982  0.00  0.00    +0.000 C 
BRANCH  18  19
ATOM     19  N   UNL     1      47.180   5.337  15.095  0.00  0.00    +0.000 NA
ATOM     20  H   UNL     1      46.271   5.742  15.310  0.00  0.00    +0.000 HD
ATOM     21  H   UNL     1      47.755   5.464  15.926  0.00  0.00    +0.000 HD
ENDBRANCH  18  19
ENDBRANCH  12  18
ENDBRANCH   1  16
TORSDOF 4
ENDMDL
MODEL 4
REMARK VINA RESULT:    -6.987      1.313      1.974
REMARK INTER + INTRA:          -8.685
REMARK INTER:                  -8.254
REMARK INTRA:                  -0.430
REMARK UNBOUND:                -0.268
REMARK  Name = 
REMARK  4 active torsions:
REMARK  status: ('A' for Active; 'I' for Inactive)
REMARK    1  A    between atoms: N_1  and  C_2
REMARK    2  A    between atoms: C_2  and  C_3
REMARK    3  A    between atoms: C_7  and  C_8
REMARK    4  A    between atoms: C_8  and  N_9
REMARK                            x       y       z     vdW  Elec       q    Type
REMARK                         _______ _______ _______ _____ _____    ______ ____
ROOT
ATOM      1  C   UNL     1      44.292   4.424   9.791  0.00  0.00    +0.000 C 
ENDROOT
BRANCH   1   2
ATOM      2  N   UNL     1      45.117   5.217  10.690  0.00  0.00    +0.000 N 
ATOM      3  C   UNL     1      45.365   6.556  10.552  0.00  0.00    +0.000 A 
ATOM      4  N   UNL     1      46.040   7.031  11.573  0.00  0.00    +0.000 NA
ATOM      5  C   UNL     1      46.245   5.957  12.404  0.00  0.00    +0.000 A 
ATOM      6  C   UNL     1      46.900   5.905  13.643  0.00  0.00    +0.000 A 
ATOM      7  C   UNL     1      46.976   4.672  14.297  0.00  0.00    +0.000 A 
ATOM      8 CL   UNL     1      47.758   4.578  15.831  0.00  0.00    +0.000 Cl
ATOM      9  C   UNL     1      46.432   3.515  13.737  0.00  0.00    +0.000 A 
ATOM     10  C   UNL     1      45.773   3.552  12.503  0.00  0.00    +0.000 A 
ATOM     11  C   UNL     1      45.689   4.797  11.868  0.00  0.00    +0.000 A 
ENDBRANCH   1   2
BRANCH   1  16
ATOM     12  C   UNL     1      46.594   2.853   7.153  0.00  0.00    +0.000 A 
ATOM     13  C   UNL     1      46.490   1.535   7.579  0.00  0.00    +0.000 A 
ATOM     14  N   UNL     1      45.747   1.138   8.635  0.00  0.00    +0.000 NA
ATOM     15  C   UNL     1      45.062   2.098   9.293  0.00  0.00    +0.000 A 
ATOM     16  C   UNL     1      45.069   3.448   8.950  0.00  0.00    +0.000 A 
ATOM     17  C   UNL     1      45.874   3.818   7.867  0.00  0.00    +0.000 A 
BRANCH  12  18
ATOM     18  C   UNL     1      47.422   3.224   5.956  0.00  0.00    +0.000 C 
BRANCH  18  19
ATOM     19  N   UNL     1      48.447   2.226   5.680  0.00  0.00    +0.000 NA
ATOM     20  H   UNL     1      49.033   2.552   4.913  0.00  0.00    +0.000 HD
ATOM     21  H   UNL     1      48.002   1.368   5.356  0.00  0.00    +0.000 HD
ENDBRANCH  18  19
ENDBRANCH  12  18
ENDBRANCH   1  16
TORSDOF 4
ENDMDL
MODEL 5
REMARK VINA RESULT:    -6.850      1.296      1.558
REMARK INTER + INTRA:          -8.520
REMARK INTER:                  -8.072
REMARK INTRA:                  -0.449
REMARK UNBOUND:                -0.268
REMARK  Name = 
REMARK  4 active torsions:
REMARK  status: ('A' for Active; 'I' for Inactive)
REMARK    1  A    between atoms: N_1  and  C_2
REMARK    2  A    between atoms: C_2  and  C_3
REMARK    3  A    between atoms: C_7  and  C_8
REMARK    4  A    between atoms: C_8  and  N_9
REMARK                            x       y       z     vdW  Elec       q    Type
REMARK                         _______ _______ _______ _____ _____    ______ ____
ROOT
ATOM      1  C   UNL     1      44.272   5.002  10.604  0.00  0.00    +0.000 C 
ENDROOT
BRANCH   1   2
ATOM      2  N   UNL     1      44.965   5.066  11.883  0.00  0.00    +0.000 N 
ATOM      3  C   UNL     1      44.642   4.329  12.989  0.00  0.00    +0.000 A 
ATOM      4  N   UNL     1      45.511   4.503  13.958  0.00  0.00    +0.000 NA
ATOM      5  C   UNL     1      46.432   5.394  13.463  0.00  0.00    +0.000 A 
ATOM      6  C   UNL     1      47.580   5.917  14.076  0.00  0.00    +0.000 A 
ATOM      7  C   UNL     1      48.360   6.822  13.351  0.00  0.00    +0.000 A 
ATOM      8 CL   UNL     1      49.789   7.467  14.068  0.00  0.00    +0.000 Cl
ATOM      9  C   UNL     1      48.010   7.214  12.058  0.00  0.00    +0.000 A 
ATOM     10  C   UNL     1      46.869   6.698  11.432  0.00  0.00    +0.000 A 
ATOM     11  C   UNL     1      46.107   5.780  12.164  0.00  0.00    +0.000 A 
ENDBRANCH   1   2
BRANCH   1  16
ATOM     12  C   UNL     1      46.138   3.371   7.675  0.00  0.00    +0.000 A 
ATOM     13  C   UNL     1      45.931   2.046   8.039  0.00  0.00    +0.000 A 
ATOM     14  N   UNL     1      45.250   1.663   9.141  0.00  0.00    +0.000 NA
ATOM     15  C   UNL     1      44.737   2.645   9.912  0.00  0.00    +0.000 A 
ATOM     16  C   UNL     1      44.858   4.006   9.641  0.00  0.00    +0.000 A 
ATOM     17  C   UNL     1      45.595   4.358   8.506  0.00  0.00    +0.000 A 
BRANCH  12  18
ATOM     18  C   UNL     1      46.888   3.728   6.424  0.00  0.00    +0.000 C 
BRANCH  18  19
ATOM     19  N   UNL     1      47.757   2.643   5.987  0.00  0.00    +0.000 NA
ATOM     20  H   UNL     1      48.356   2.977   5.235  0.00  0.00    +0.000 HD
ATOM     21  H   UNL     1      47.189   1.896   5.591  0.00  0.00    +0.000 HD
ENDBRANCH  18  19
ENDBRANCH  12  18
ENDBRANCH   1  16
TORSDOF 4
ENDMDL
MODEL 6
REMARK VINA RESULT:    -6.368      2.056      3.160
REMARK INTER + INTRA:          -7.939
REMARK INTER:                  -7.449
REMARK INTRA:                  -0.491
REMARK UNBOUND:                -0.268
REMARK  Name = 
REMARK  4 active torsions:
REMARK  status: ('A' for Active; 'I' for Inactive)
REMARK    1  A    between atoms: N_1  and  C_2
REMARK    2  A    between atoms: C_2  and  C_3
REMARK    3  A    between atoms: C_7  and  C_8
REMARK    4  A    between atoms: C_8  and  N_9
REMARK                            x       y       z     vdW  Elec       q    Type
REMARK                         _______ _______ _______ _____ _____    ______ ____
ROOT
ATOM      1  C   UNL     1      43.491   5.717  11.582  0.00  0.00    +0.000 C 
ENDROOT
BRANCH   1   2
ATOM      2  N   UNL     1      44.576   6.659  11.816  0.00  0.00    +0.000 N 
ATOM      3  C   UNL     1      44.603   7.952  11.371  0.00  0.00    +0.000 A 
ATOM      4  N   UNL     1      45.647   8.601  11.833  0.00  0.00    +0.000 NA
ATOM      5  C   UNL     1      46.328   7.692  12.603  0.00  0.00    +0.000 A 
ATOM      6  C   UNL     1      47.509   7.860  13.342  0.00  0.00    +0.000 A 
ATOM      7  C   UNL     1      48.006   6.763  14.049  0.00  0.00    +0.000 A 
ATOM      8 CL   UNL     1      49.445   6.943  14.982  0.00  0.00    +0.000 Cl
ATOM      9  C   UNL     1      47.364   5.524  14.019  0.00  0.00    +0.000 A 
ATOM     10  C   UNL     1      46.183   5.341  13.289  0.00  0.00    +0.000 A 
ATOM     11  C   UNL     1      45.688   6.454  12.601  0.00  0.00    +0.000 A 
ENDBRANCH   1   2
BRANCH   1  16
ATOM     12  C   UNL     1      45.000   3.489   8.846  0.00  0.00    +0.000 A 
ATOM     13  C   UNL     1      44.560   2.268   9.340  0.00  0.00    +0.000 A 
ATOM     14  N   UNL     1      43.832   2.126  10.469  0.00  0.00    +0.000 NA
ATOM     15  C   UNL     1      43.513   3.258  11.134  0.00  0.00    +0.000 A 
ATOM     16  C   UNL     1      43.876   4.541  10.728  0.00  0.00    +0.000 A 
ATOM     17  C   UNL     1      44.654   4.637   9.569  0.00  0.00    +0.000 A 
BRANCH  12  18
ATOM     18  C   UNL     1      45.790   3.578   7.572  0.00  0.00    +0.000 C 
BRANCH  18  19
ATOM     19  N   UNL     1      46.741   4.682   7.604  0.00  0.00    +0.000 NA
ATOM     20  H   UNL     1      47.281   4.632   8.466  0.00  0.00    +0.000 HD
ATOM     21  H   UNL     1      46.231   5.563   7.635  0.00  0.00    +0.000 HD
ENDBRANCH  18  19
ENDBRANCH  12  18
ENDBRANCH   1  16
TORSDOF 4
ENDMDL
MODEL 7
REMARK VINA RESULT:    -6.081      2.186      3.669
REMARK INTER + INTRA:          -7.593
REMARK INTER:                  -7.096
REMARK INTRA:                  -0.497
REMARK UNBOUND:                -0.268
REMARK  Name = 
REMARK  4 active torsions:
REMARK  status: ('A' for Active; 'I' for Inactive)
REMARK    1  A    between atoms: N_1  and  C_2
REMARK    2  A    between atoms: C_2  and  C_3
REMARK    3  A    between atoms: C_7  and  C_8
REMARK    4  A    between atoms: C_8  and  N_9
REMARK                            x       y       z     vdW  Elec       q    Type
REMARK                         _______ _______ _______ _____ _____    ______ ____
ROOT
ATOM      1  C   UNL     1      44.696   6.018  12.659  0.00  0.00    +0.000 C 
ENDROOT
BRANCH   1   2
ATOM      2  N   UNL     1      46.042   6.087  13.208  0.00  0.00    +0.000 N 
ATOM      3  C   UNL     1      46.617   5.131  14.000  0.00  0.00    +0.000 A 
ATOM      4  N   UNL     1      47.879   5.401  14.246  0.00  0.00    +0.000 NA
ATOM      5  C   UNL     1      48.131   6.583  13.595  0.00  0.00    +0.000 A 
ATOM      6  C   UNL     1      49.324   7.317  13.515  0.00  0.00    +0.000 A 
ATOM      7  C   UNL     1      49.318   8.506  12.781  0.00  0.00    +0.000 A 
ATOM      8 CL   UNL     1      50.774   9.421  12.647  0.00  0.00    +0.000 Cl
ATOM      9  C   UNL     1      48.161   8.970  12.153  0.00  0.00    +0.000 A 
ATOM     10  C   UNL     1      46.964   8.247  12.221  0.00  0.00    +0.000 A 
ATOM     11  C   UNL     1      46.990   7.049  12.944  0.00  0.00    +0.000 A 
ENDBRANCH   1   2
BRANCH   1  16
ATOM     12  C   UNL     1      45.004   3.947   9.444  0.00  0.00    +0.000 A 
ATOM     13  C   UNL     1      44.148   2.915   9.807  0.00  0.00    +0.000 A 
ATOM     14  N   UNL     1      43.502   2.849  10.992  0.00  0.00    +0.000 NA
ATOM     15  C   UNL     1      43.706   3.869  11.853  0.00  0.00    +0.000 A 
ATOM     16  C   UNL     1      44.522   4.969  11.596  0.00  0.00    +0.000 A 
ATOM     17  C   UNL     1      45.193   4.980  10.369  0.00  0.00    +0.000 A 
BRANCH  12  18
ATOM     18  C   UNL     1      45.675   3.969   8.100  0.00  0.00    +0.000 C 
BRANCH  18  19
ATOM     19  N   UNL     1      46.098   2.636   7.688  0.00  0.00    +0.000 NA
ATOM     20  H   UNL     1      46.678   2.713   6.855  0.00  0.00    +0.000 HD
ATOM     21  H   UNL     1      45.279   2.093   7.417  0.00  0.00    +0.000 HD
ENDBRANCH  18  19
ENDBRANCH  12  18
ENDBRANCH   1  16
TORSDOF 4
ENDMDL
MODEL 8
REMARK VINA RESULT:    -5.905      2.930      4.929
REMARK INTER + INTRA:          -7.381
REMARK INTER:                  -6.935
REMARK INTRA:                  -0.446
REMARK UNBOUND:                -0.268
REMARK  Name = 
REMARK  4 active torsions:
REMARK  status: ('A' for Active; 'I' for Inactive)
REMARK    1  A    between atoms: N_1  and  C_2
REMARK    2  A    between atoms: C_2  and  C_3
REMARK    3  A    between atoms: C_7  and  C_8
REMARK    4  A    between atoms: C_8  and  N_9
REMARK                            x       y       z     vdW  Elec       q    Type
REMARK                         _______ _______ _______ _____ _____    ______ ____
ROOT
ATOM      1  C   UNL     1      46.399   5.903  13.276  0.00  0.00    +0.000 C 
ENDROOT
BRANCH   1   2
ATOM      2  N   UNL     1      46.484   7.279  12.808  0.00  0.00    +0.000 N 
ATOM      3  C   UNL     1      45.468   8.193  12.872  0.00  0.00    +0.000 A 
ATOM      4  N   UNL     1      45.866   9.385  12.490  0.00  0.00    +0.000 NA
ATOM      5  C   UNL     1      47.190   9.237  12.158  0.00  0.00    +0.000 A 
ATOM      6  C   UNL     1      48.104  10.198  11.700  0.00  0.00    +0.000 A 
ATOM      7  C   UNL     1      49.412   9.786  11.427  0.00  0.00    +0.000 A 
ATOM      8 CL   UNL     1      50.564  10.946  10.882  0.00  0.00    +0.000 Cl
ATOM      9  C   UNL     1      49.806   8.457  11.588  0.00  0.00    +0.000 A 
ATOM     10  C   UNL     1      48.906   7.488  12.047  0.00  0.00    +0.000 A 
ATOM     11  C   UNL     1      47.605   7.918  12.333  0.00  0.00    +0.000 A 
ENDBRANCH   1   2
BRANCH   1  16
ATOM     12  C   UNL     1      44.468   4.096  10.495  0.00  0.00    +0.000 A 
ATOM     13  C   UNL     1      43.585   3.398  11.309  0.00  0.00    +0.000 A 
ATOM     14  N   UNL     1      43.579   3.472  12.657  0.00  0.00    +0.000 NA
ATOM     15  C   UNL     1      44.489   4.292  13.226  0.00  0.00    +0.000 A 
ATOM     16  C   UNL     1      45.412   5.059  12.519  0.00  0.00    +0.000 A 
ATOM     17  C   UNL     1      45.400   4.930  11.126  0.00  0.00    +0.000 A 
BRANCH  12  18
ATOM     18  C   UNL     1      44.407   3.985   8.999  0.00  0.00    +0.000 C 
BRANCH  18  19
ATOM     19  N   UNL     1      45.425   4.807   8.356  0.00  0.00    +0.000 NA
ATOM     20  H   UNL     1      45.421   4.620   7.354  0.00  0.00    +0.000 HD
ATOM     21  H   UNL     1      46.345   4.529   8.695  0.00  0.00    +0.000 HD
ENDBRANCH  18  19
ENDBRANCH  12  18
ENDBRANCH   1  16
TORSDOF 4
ENDMDL
MODEL 9
REMARK VINA RESULT:    -5.700      3.791      6.326
REMARK INTER + INTRA:          -7.135
REMARK INTER:                  -6.642
REMARK INTRA:                  -0.493
REMARK UNBOUND:                -0.268
REMARK  Name = 
REMARK  4 active torsions:
REMARK  status: ('A' for Active; 'I' for Inactive)
REMARK    1  A    between atoms: N_1  and  C_2
REMARK    2  A    between atoms: C_2  and  C_3
REMARK    3  A    between atoms: C_7  and  C_8
REMARK    4  A    between atoms: C_8  and  N_9
REMARK                            x       y       z     vdW  Elec       q    Type
REMARK                         _______ _______ _______ _____ _____    ______ ____
ROOT
ATOM      1  C   UNL     1      46.110   7.392  12.622  0.00  0.00    +0.000 C 
ENDROOT
BRANCH   1   2
ATOM      2  N   UNL     1      45.807   5.969  12.568  0.00  0.00    +0.000 N 
ATOM      3  C   UNL     1      45.615   5.166  13.659  0.00  0.00    +0.000 A 
ATOM      4  N   UNL     1      45.237   3.958  13.309  0.00  0.00    +0.000 NA
ATOM      5  C   UNL     1      45.190   3.975  11.937  0.00  0.00    +0.000 A 
ATOM      6  C   UNL     1      44.834   2.951  11.047  0.00  0.00    +0.000 A 
ATOM      7  C   UNL     1      44.870   3.226   9.677  0.00  0.00    +0.000 A 
ATOM      8 CL   UNL     1      44.418   1.994   8.558  0.00  0.00    +0.000 Cl
ATOM      9  C   UNL     1      45.262   4.475   9.194  0.00  0.00    +0.000 A 
ATOM     10  C   UNL     1      45.617   5.508  10.070  0.00  0.00    +0.000 A 
ATOM     11  C   UNL     1      45.559   5.224  11.439  0.00  0.00    +0.000 A 
ENDBRANCH   1   2
BRANCH   1  16
ATOM     12  C   UNL     1      49.869   7.898  12.041  0.00  0.00    +0.000 A 
ATOM     13  C   UNL     1      50.184   8.397  13.299  0.00  0.00    +0.000 A 
ATOM     14  N   UNL     1      49.283   8.577  14.288  0.00  0.00    +0.000 NA
ATOM     15  C   UNL     1      48.006   8.230  14.019  0.00  0.00    +0.000 A 
ATOM     16  C   UNL     1      47.570   7.700  12.807  0.00  0.00    +0.000 A 
ATOM     17  C   UNL     1      48.533   7.558  11.801  0.00  0.00    +0.000 A 
BRANCH  12  18
ATOM     18  C   UNL     1      50.925   7.704  10.991  0.00  0.00    +0.000 C 
BRANCH  18  19
ATOM     19  N   UNL     1      52.263   7.684  11.569  0.00  0.00    +0.000 NA
ATOM     20  H   UNL     1      52.635   6.738  11.515  0.00  0.00    +0.000 HD
ATOM     21  H   UNL     1      52.204   7.913  12.560  0.00  0.00    +0.000 HD
ENDBRANCH  18  19
ENDBRANCH  12  18
ENDBRANCH   1  16
TORSDOF 4
ENDMDL
