MODEL 1
REMARK VINA RESULT:    -8.901      0.000      0.000
REMARK INTER + INTRA:         -12.441
REMARK INTER:                 -11.503
REMARK INTRA:                  -0.938
REMARK UNBOUND:                -0.938
REMARK  Name = 
REMARK  5 active torsions:
REMARK  status: ('A' for Active; 'I' for Inactive)
REMARK    1  A    between atoms: C_2  and  C_3
REMARK    2  A    between atoms: N_7  and  C_8
REMARK    3  A    between atoms: C_8  and  C_9
REMARK    4  A    between atoms: C_9  and  C_12
REMARK    5  A    between atoms: C_14  and  C_15
REMARK                            x       y       z     vdW  Elec       q    Type
REMARK                         _______ _______ _______ _____ _____    ______ ____
ROOT
ATOM      1  C   UNL     1      43.497   4.483  12.396  0.00  0.00    +0.000 C 
ATOM      2  F   UNL     1      42.592   5.459  12.719  0.00  0.00    +0.000 F 
ATOM      3  F   UNL     1      43.060   3.363  13.049  0.00  0.00    +0.000 F 
ENDROOT
BRANCH   1   4
ATOM      4  C   UNL     1      44.913   4.866  12.818  0.00  0.00    +0.000 A 
ATOM      5  C   UNL     1      45.419   6.094  12.410  0.00  0.00    +0.000 A 
ATOM      6  C   UNL     1      46.720   6.465  12.770  0.00  0.00    +0.000 A 
ATOM      7  C   UNL     1      47.468   5.569  13.543  0.00  0.00    +0.000 A 
ATOM      8  C   UNL     1      46.898   4.370  13.917  0.00  0.00    +0.000 A 
ATOM      9  N   UNL     1      45.648   4.003  13.572  0.00  0.00    +0.000 NA
BRANCH   6  10
ATOM     10  C   UNL     1      47.282   7.756  12.347  0.00  0.00    +0.000 A 
ATOM     11  C   UNL     1      48.643   7.873  12.009  0.00  0.00    +0.000 A 
ATOM     12  C   UNL     1      49.179   9.096  11.609  0.00  0.00    +0.000 A 
ATOM     13  C   UNL     1      48.359  10.215  11.545  0.00  0.00    +0.000 A 
ATOM     14  F   UNL     1      48.893  11.382  11.157  0.00  0.00    +0.000 F 
ATOM     15  C   UNL     1      47.011  10.128  11.876  0.00  0.00    +0.000 A 
ATOM     16 CL   UNL     1      45.992  11.512  11.807  0.00  0.00    +0.000 Cl
ATOM     17  C   UNL     1      46.474   8.904  12.276  0.00  0.00    +0.000 A 
ENDBRANCH   6  10
ENDBRANCH   1   4
BRANCH   1  18
ATOM     18  C   UNL     1      43.433   4.234  10.880  0.00  0.00    +0.000 C 
BRANCH  18  23
ATOM     19  C   UNL     1      46.663   2.405   7.386  0.00  0.00    +0.000 A 
ATOM     20  C   UNL     1      46.275   3.699   7.701  0.00  0.00    +0.000 A 
ATOM     21  C   UNL     1      45.367   3.896   8.738  0.00  0.00    +0.000 A 
ATOM     22  C   UNL     1      44.850   2.803   9.432  0.00  0.00    +0.000 A 
ATOM     23  N   UNL     1      43.938   2.935  10.444  0.00  0.00    +0.000 N 
ATOM     24  N   UNL     1      45.230   1.546   9.136  0.00  0.00    +0.000 NA
ATOM     25  C   UNL     1      46.127   1.370   8.133  0.00  0.00    +0.000 A 
ATOM     26  H   UNL     1      43.564   2.073  10.826  0.00  0.00    +0.000 HD
BRANCH  19  28
ATOM     27  N   UNL     1      48.337   1.947   5.471  0.00  0.00    +0.000 NA
ATOM     28  C   UNL     1      47.578   2.155   6.318  0.00  0.00    +0.000 C 
ENDBRANCH  19  28
ENDBRANCH  18  23
ENDBRANCH   1  18
TORSDOF 5
ENDMDL
MODEL 2
REMARK VINA RESULT:    -8.854      2.982      4.464
REMARK INTER + INTRA:         -12.380
REMARK INTER:                 -11.540
REMARK INTRA:                  -0.840
REMARK UNBOUND:                -0.938
REMARK  Name = 
REMARK  5 active torsions:
REMARK  status: ('A' for Active; 'I' for Inactive)
REMARK    1  A    between atoms: C_2  and  C_3
REMARK    2  A    between atoms: N_7  and  C_8
REMARK    3  A    between atoms: C_8  and  C_9
REMARK    4  A    between atoms: C_9  and  C_12
REMARK    5  A    between atoms: C_14  and  C_15
REMARK                            x       y       z     vdW  Elec       q    Type
REMARK                         _______ _______ _______ _____ _____    ______ ____
ROOT
ATOM      1  C   UNL     1      43.424   4.793  12.351  0.00  0.00    +0.000 C 
ATOM      2  F   UNL     1      42.515   5.817  12.308  0.00  0.00    +0.000 F 
ATOM      3  F   UNL     1      42.971   3.957  13.336  0.00  0.00    +0.000 F 
ENDROOT
BRANCH   1   4
ATOM      4  C   UNL     1      44.832   5.300  12.644  0.00  0.00    +0.000 A 
ATOM      5  C   UNL     1      45.508   4.786  13.744  0.00  0.00    +0.000 A 
ATOM      6  C   UNL     1      46.797   5.244  14.045  0.00  0.00    +0.000 A 
ATOM      7  C   UNL     1      47.361   6.214  13.208  0.00  0.00    +0.000 A 
ATOM      8  C   UNL     1      46.634   6.674  12.130  0.00  0.00    +0.000 A 
ATOM      9  N   UNL     1      45.392   6.242  11.835  0.00  0.00    +0.000 NA
BRANCH   6  10
ATOM     10  C   UNL     1      47.532   4.721  15.206  0.00  0.00    +0.000 A 
ATOM     11  C   UNL     1      47.480   3.354  15.535  0.00  0.00    +0.000 A 
ATOM     12  C   UNL     1      48.175   2.855  16.635  0.00  0.00    +0.000 A 
ATOM     13  C   UNL     1      48.927   3.720  17.420  0.00  0.00    +0.000 A 
ATOM     14  F   UNL     1      49.588   3.221  18.473  0.00  0.00    +0.000 F 
ATOM     15  C   UNL     1      48.993   5.076  17.119  0.00  0.00    +0.000 A 
ATOM     16 CL   UNL     1      49.916   6.154  18.092  0.00  0.00    +0.000 Cl
ATOM     17  C   UNL     1      48.298   5.575  16.017  0.00  0.00    +0.000 A 
ENDBRANCH   6  10
ENDBRANCH   1   4
BRANCH   1  18
ATOM     18  C   UNL     1      43.386   4.046  11.007  0.00  0.00    +0.000 C 
BRANCH  18  23
ATOM     19  C   UNL     1      46.713   2.676   7.395  0.00  0.00    +0.000 A 
ATOM     20  C   UNL     1      46.060   1.947   8.378  0.00  0.00    +0.000 A 
ATOM     21  C   UNL     1      45.177   2.604   9.231  0.00  0.00    +0.000 A 
ATOM     22  C   UNL     1      44.972   3.977   9.101  0.00  0.00    +0.000 A 
ATOM     23  N   UNL     1      44.134   4.679   9.925  0.00  0.00    +0.000 N 
ATOM     24  N   UNL     1      45.596   4.689   8.144  0.00  0.00    +0.000 NA
ATOM     25  C   UNL     1      46.442   4.031   7.310  0.00  0.00    +0.000 A 
ATOM     26  H   UNL     1      44.121   5.686   9.799  0.00  0.00    +0.000 HD
BRANCH  19  28
ATOM     27  N   UNL     1      48.376   1.544   5.774  0.00  0.00    +0.000 NA
ATOM     28  C   UNL     1      47.640   2.047   6.510  0.00  0.00    +0.000 C 
ENDBRANCH  19  28
ENDBRANCH  18  23
ENDBRANCH   1  18
TORSDOF 5
ENDMDL
MODEL 3
REMARK VINA RESULT:    -8.385      2.156      2.730
REMARK INTER + INTRA:         -11.774
REMARK INTER:                 -10.603
REMARK INTRA:                  -1.171
REMARK UNBOUND:                -0.938
REMARK  Name = 
REMARK  5 active torsions:
REMARK  status: ('A' for Active; 'I' for Inactive)
REMARK    1  A    between atoms: C_2  and  C_3
REMARK    2  A    between atoms: N_7  and  C_8
REMARK    3  A    between atoms: C_8  and  C_9
REMARK    4  A    between atoms: C_9  and  C_12
REMARK    5  A    between atoms: C_14  and  C_15
REMARK                            x       y       z     vdW  Elec       q    Type
REMARK                         _______ _______ _______ _____ _____    ______ ____
ROOT
ATOM      1  C   UNL     1      44.230   3.712  12.309  0.00  0.00    +0.000 C 
ATOM      2  F   UNL     1      43.384   3.517  13.367  0.00  0.00    +0.000 F 
ATOM      3  F   UNL     1      45.283   2.867  12.536  0.00  0.00    +0.000 F 
ENDROOT
BRANCH   1   4
ATOM      4  C   UNL     1      44.684   5.165  12.209  0.00  0.00    +0.000 A 
ATOM      5  C   UNL     1      45.989   5.480  12.567  0.00  0.00    +0.000 A 
ATOM      6  C   UNL     1      46.429   6.808  12.499  0.00  0.00    +0.000 A 
ATOM      7  C   UNL     1      45.520   7.778  12.062  0.00  0.00    +0.000 A 
ATOM      8  C   UNL     1      44.242   7.391  11.717  0.00  0.00    +0.000 A 
ATOM      9  N   UNL     1      43.809   6.117  11.783  0.00  0.00    +0.000 NA
BRANCH   6  10
ATOM     10  C   UNL     1      47.803   7.169  12.877  0.00  0.00    +0.000 A 
ATOM     11  C   UNL     1      48.180   7.248  14.230  0.00  0.00    +0.000 A 
ATOM     12  C   UNL     1      49.481   7.591  14.592  0.00  0.00    +0.000 A 
ATOM     13  C   UNL     1      50.418   7.861  13.603  0.00  0.00    +0.000 A 
ATOM     14  F   UNL     1      51.665   8.188  13.971  0.00  0.00    +0.000 F 
ATOM     15  C   UNL     1      50.072   7.793  12.258  0.00  0.00    +0.000 A 
ATOM     16 CL   UNL     1      51.225   8.134  11.029  0.00  0.00    +0.000 Cl
ATOM     17  C   UNL     1      48.769   7.448  11.896  0.00  0.00    +0.000 A 
ENDBRANCH   6  10
ENDBRANCH   1   4
BRANCH   1  18
ATOM     18  C   UNL     1      43.514   3.279  11.019  0.00  0.00    +0.000 C 
BRANCH  18  23
ATOM     19  C   UNL     1      46.692   2.469   7.116  0.00  0.00    +0.000 A 
ATOM     20  C   UNL     1      46.369   1.698   8.223  0.00  0.00    +0.000 A 
ATOM     21  C   UNL     1      45.435   2.184   9.133  0.00  0.00    +0.000 A 
ATOM     22  C   UNL     1      44.851   3.435   8.935  0.00  0.00    +0.000 A 
ATOM     23  N   UNL     1      43.944   3.973   9.808  0.00  0.00    +0.000 N 
ATOM     24  N   UNL     1      45.154   4.184   7.859  0.00  0.00    +0.000 NA
ATOM     25  C   UNL     1      46.056   3.690   6.972  0.00  0.00    +0.000 A 
ATOM     26  H   UNL     1      43.644   4.922   9.615  0.00  0.00    +0.000 HD
BRANCH  19  28
ATOM     27  N   UNL     1      48.439   1.676   5.385  0.00  0.00    +0.000 NA
ATOM     28  C   UNL     1      47.659   2.018   6.166  0.00  0.00    +0.000 C 
ENDBRANCH  19  28
ENDBRANCH  18  23
ENDBRANCH   1  18
TORSDOF 5
ENDMDL
MODEL 4
REMARK VINA RESULT:    -8.215      2.951      3.584
REMARK INTER + INTRA:         -11.555
REMARK INTER:                 -10.698
REMARK INTRA:                  -0.857
REMARK UNBOUND:                -0.938
REMARK  Name = 
REMARK  5 active torsions:
REMARK  status: ('A' for Active; 'I' for Inactive)
REMARK    1  A    between atoms: C_2  and  C_3
REMARK    2  A    between atoms: N_7  and  C_8
REMARK    3  A    between atoms: C_8  and  C_9
REMARK    4  A    between atoms: C_9  and  C_12
REMARK    5  A    between atoms: C_14  and  C_15
REMARK                            x       y       z     vdW  Elec       q    Type
REMARK                         _______ _______ _______ _____ _____    ______ ____
ROOT
ATOM      1  C   UNL     1      44.309   4.020  12.484  0.00  0.00    +0.000 C 
ATOM      2  F   UNL     1      43.386   3.868  13.484  0.00  0.00    +0.000 F 
ATOM      3  F   UNL     1      45.145   2.944  12.606  0.00  0.00    +0.000 F 
ENDROOT
BRANCH   1   4
ATOM      4  C   UNL     1      45.064   5.340  12.610  0.00  0.00    +0.000 A 
ATOM      5  C   UNL     1      46.207   5.378  13.401  0.00  0.00    +0.000 A 
ATOM      6  C   UNL     1      46.912   6.579  13.546  0.00  0.00    +0.000 A 
ATOM      7  C   UNL     1      46.431   7.708  12.873  0.00  0.00    +0.000 A 
ATOM      8  C   UNL     1      45.295   7.594  12.100  0.00  0.00    +0.000 A 
ATOM      9  N   UNL     1      44.607   6.444  11.958  0.00  0.00    +0.000 NA
BRANCH   6  10
ATOM     10  C   UNL     1      48.120   6.649  14.381  0.00  0.00    +0.000 A 
ATOM     11  C   UNL     1      49.229   7.417  13.981  0.00  0.00    +0.000 A 
ATOM     12  C   UNL     1      50.376   7.485  14.770  0.00  0.00    +0.000 A 
ATOM     13  C   UNL     1      50.426   6.782  15.966  0.00  0.00    +0.000 A 
ATOM     14  F   UNL     1      51.538   6.860  16.711  0.00  0.00    +0.000 F 
ATOM     15  C   UNL     1      49.346   6.012  16.384  0.00  0.00    +0.000 A 
ATOM     16 CL   UNL     1      49.405   5.132  17.861  0.00  0.00    +0.000 Cl
ATOM     17  C   UNL     1      48.198   5.946  15.595  0.00  0.00    +0.000 A 
ENDBRANCH   6  10
ENDBRANCH   1   4
BRANCH   1  18
ATOM     18  C   UNL     1      43.585   3.939  11.130  0.00  0.00    +0.000 C 
BRANCH  18  23
ATOM     19  C   UNL     1      46.743   2.723   7.318  0.00  0.00    +0.000 A 
ATOM     20  C   UNL     1      46.160   1.958   8.317  0.00  0.00    +0.000 A 
ATOM     21  C   UNL     1      45.310   2.576   9.230  0.00  0.00    +0.000 A 
ATOM     22  C   UNL     1      45.068   3.947   9.142  0.00  0.00    +0.000 A 
ATOM     23  N   UNL     1      44.260   4.612  10.025  0.00  0.00    +0.000 N 
ATOM     24  N   UNL     1      45.625   4.693   8.169  0.00  0.00    +0.000 NA
ATOM     25  C   UNL     1      46.439   4.073   7.278  0.00  0.00    +0.000 A 
ATOM     26  H   UNL     1      44.218   5.620   9.922  0.00  0.00    +0.000 HD
BRANCH  19  28
ATOM     27  N   UNL     1      48.346   1.634   5.608  0.00  0.00    +0.000 NA
ATOM     28  C   UNL     1      47.637   2.133   6.372  0.00  0.00    +0.000 C 
ENDBRANCH  19  28
ENDBRANCH  18  23
ENDBRANCH   1  18
TORSDOF 5
ENDMDL
MODEL 5
REMARK VINA RESULT:    -7.952      3.750      7.508
REMARK INTER + INTRA:         -11.214
REMARK INTER:                 -10.555
REMARK INTRA:                  -0.659
REMARK UNBOUND:                -0.938
REMARK  Name = 
REMARK  5 active torsions:
REMARK  status: ('A' for Active; 'I' for Inactive)
REMARK    1  A    between atoms: C_2  and  C_3
REMARK    2  A    between atoms: N_7  and  C_8
REMARK    3  A    between atoms: C_8  and  C_9
REMARK    4  A    between atoms: C_9  and  C_12
REMARK    5  A    between atoms: C_14  and  C_15
REMARK                            x       y       z     vdW  Elec       q    Type
REMARK                         _______ _______ _______ _____ _____    ______ ____
ROOT
ATOM      1  C   UNL     1      45.630   7.447  11.908  0.00  0.00    +0.000 C 
ATOM      2  F   UNL     1      45.213   7.665  13.194  0.00  0.00    +0.000 F 
ATOM      3  F   UNL     1      45.295   8.586  11.228  0.00  0.00    +0.000 F 
ENDROOT
BRANCH   1   4
ATOM      4  C   UNL     1      44.969   6.213  11.303  0.00  0.00    +0.000 A 
ATOM      5  C   UNL     1      45.637   5.528  10.294  0.00  0.00    +0.000 A 
ATOM      6  C   UNL     1      45.047   4.400   9.710  0.00  0.00    +0.000 A 
ATOM      7  C   UNL     1      43.791   4.001  10.178  0.00  0.00    +0.000 A 
ATOM      8  C   UNL     1      43.190   4.724  11.187  0.00  0.00    +0.000 A 
ATOM      9  N   UNL     1      43.748   5.813  11.752  0.00  0.00    +0.000 NA
BRANCH   6  10
ATOM     10  C   UNL     1      45.729   3.662   8.637  0.00  0.00    +0.000 A 
ATOM     11  C   UNL     1      46.261   4.337   7.524  0.00  0.00    +0.000 A 
ATOM     12  C   UNL     1      46.908   3.640   6.505  0.00  0.00    +0.000 A 
ATOM     13  C   UNL     1      47.026   2.259   6.588  0.00  0.00    +0.000 A 
ATOM     14  F   UNL     1      47.651   1.606   5.598  0.00  0.00    +0.000 F 
ATOM     15  C   UNL     1      46.506   1.566   7.676  0.00  0.00    +0.000 A 
ATOM     16 CL   UNL     1      46.642  -0.146   7.782  0.00  0.00    +0.000 Cl
ATOM     17  C   UNL     1      45.860   2.264   8.697  0.00  0.00    +0.000 A 
ENDBRANCH   6  10
ENDBRANCH   1   4
BRANCH   1  18
ATOM     18  C   UNL     1      47.161   7.297  11.906  0.00  0.00    +0.000 C 
BRANCH  18  23
ATOM     19  C   UNL     1      47.817   4.539  16.142  0.00  0.00    +0.000 A 
ATOM     20  C   UNL     1      47.176   4.258  14.945  0.00  0.00    +0.000 A 
ATOM     21  C   UNL     1      47.173   5.223  13.940  0.00  0.00    +0.000 A 
ATOM     22  C   UNL     1      47.792   6.454  14.151  0.00  0.00    +0.000 A 
ATOM     23  N   UNL     1      47.800   7.447  13.210  0.00  0.00    +0.000 N 
ATOM     24  N   UNL     1      48.423   6.728  15.308  0.00  0.00    +0.000 NA
ATOM     25  C   UNL     1      48.431   5.773  16.272  0.00  0.00    +0.000 A 
ATOM     26  H   UNL     1      48.205   8.333  13.495  0.00  0.00    +0.000 HD
BRANCH  19  28
ATOM     27  N   UNL     1      47.865   2.809  18.061  0.00  0.00    +0.000 NA
ATOM     28  C   UNL     1      47.830   3.586  17.206  0.00  0.00    +0.000 C 
ENDBRANCH  19  28
ENDBRANCH  18  23
ENDBRANCH   1  18
TORSDOF 5
ENDMDL
MODEL 6
REMARK VINA RESULT:    -7.270      4.025      7.257
REMARK INTER + INTRA:         -10.333
REMARK INTER:                  -9.504
REMARK INTRA:                  -0.829
REMARK UNBOUND:                -0.938
REMARK  Name = 
REMARK  5 active torsions:
REMARK  status: ('A' for Active; 'I' for Inactive)
REMARK    1  A    between atoms: C_2  and  C_3
REMARK    2  A    between atoms: N_7  and  C_8
REMARK    3  A    between atoms: C_8  and  C_9
REMARK    4  A    between atoms: C_9  and  C_12
REMARK    5  A    between atoms: C_14  and  C_15
REMARK                            x       y       z     vdW  Elec       q    Type
REMARK                         _______ _______ _______ _____ _____    ______ ____
ROOT
ATOM      1  C   UNL     1      44.492   7.184  11.541  0.00  0.00    +0.000 C 
ATOM      2  F   UNL     1      43.298   7.847  11.640  0.00  0.00    +0.000 F 
ATOM      3  F   UNL     1      45.178   7.835  10.551  0.00  0.00    +0.000 F 
ENDROOT
BRANCH   1   4
ATOM      4  C   UNL     1      44.292   5.708  11.213  0.00  0.00    +0.000 A 
ATOM      5  C   UNL     1      45.033   5.151  10.178  0.00  0.00    +0.000 A 
ATOM      6  C   UNL     1      44.860   3.802   9.845  0.00  0.00    +0.000 A 
ATOM      7  C   UNL     1      43.935   3.057  10.586  0.00  0.00    +0.000 A 
ATOM      8  C   UNL     1      43.239   3.675  11.604  0.00  0.00    +0.000 A 
ATOM      9  N   UNL     1      43.397   4.973  11.929  0.00  0.00    +0.000 NA
BRANCH   6  10
ATOM     10  C   UNL     1      45.627   3.189   8.751  0.00  0.00    +0.000 A 
ATOM     11  C   UNL     1      46.224   3.986   7.756  0.00  0.00    +0.000 A 
ATOM     12  C   UNL     1      46.950   3.408   6.717  0.00  0.00    +0.000 A 
ATOM     13  C   UNL     1      47.085   2.027   6.660  0.00  0.00    +0.000 A 
ATOM     14  F   UNL     1      47.788   1.491   5.653  0.00  0.00    +0.000 F 
ATOM     15  C   UNL     1      46.503   1.216   7.628  0.00  0.00    +0.000 A 
ATOM     16 CL   UNL     1      46.658  -0.495   7.559  0.00  0.00    +0.000 Cl
ATOM     17  C   UNL     1      45.776   1.794   8.669  0.00  0.00    +0.000 A 
ENDBRANCH   6  10
ENDBRANCH   1   4
BRANCH   1  18
ATOM     18  C   UNL     1      45.256   7.346  12.866  0.00  0.00    +0.000 C 
BRANCH  18  23
ATOM     19  C   UNL     1      50.121   8.489  11.864  0.00  0.00    +0.000 A 
ATOM     20  C   UNL     1      49.402   7.309  11.738  0.00  0.00    +0.000 A 
ATOM     21  C   UNL     1      48.053   7.303  12.083  0.00  0.00    +0.000 A 
ATOM     22  C   UNL     1      47.449   8.464  12.562  0.00  0.00    +0.000 A 
ATOM     23  N   UNL     1      46.133   8.511  12.937  0.00  0.00    +0.000 N 
ATOM     24  N   UNL     1      48.139   9.614  12.677  0.00  0.00    +0.000 NA
ATOM     25  C   UNL     1      49.450   9.609  12.323  0.00  0.00    +0.000 A 
ATOM     26  H   UNL     1      45.814   9.381  13.349  0.00  0.00    +0.000 HD
BRANCH  19  28
ATOM     27  N   UNL     1      52.630   8.569  11.252  0.00  0.00    +0.000 NA
ATOM     28  C   UNL     1      51.512   8.537  11.539  0.00  0.00    +0.000 C 
ENDBRANCH  19  28
ENDBRANCH  18  23
ENDBRANCH   1  18
TORSDOF 5
ENDMDL
MODEL 7
REMARK VINA RESULT:    -7.001      4.130      7.568
REMARK INTER + INTRA:          -9.986
REMARK INTER:                  -8.806
REMARK INTRA:                  -1.180
REMARK UNBOUND:                -0.938
REMARK  Name = 
REMARK  5 active torsions:
REMARK  status: ('A' for Active; 'I' for Inactive)
REMARK    1  A    between atoms: C_2  and  C_3
REMARK    2  A    between atoms: N_7  and  C_8
REMARK    3  A    between atoms: C_8  and  C_9
REMARK    4  A    between atoms: C_9  and  C_12
REMARK    5  A    between atoms: C_14  and  C_15
REMARK                            x       y       z     vdW  Elec       q    Type
REMARK                         _______ _______ _______ _____ _____    ______ ____
ROOT
ATOM      1  C   UNL     1      48.571   9.164  12.322  0.00  0.00    +0.000 C 
ATOM      2  F   UNL     1      48.827   9.965  13.402  0.00  0.00    +0.000 F 
ATOM      3  F   UNL     1      49.177   9.789  11.265  0.00  0.00    +0.000 F 
ENDROOT
BRANCH   1   4
ATOM      4  C   UNL     1      47.073   8.991  12.091  0.00  0.00    +0.000 A 
ATOM      5  C   UNL     1      46.549   7.704  12.068  0.00  0.00    +0.000 A 
ATOM      6  C   UNL     1      45.180   7.514  11.844  0.00  0.00    +0.000 A 
ATOM      7  C   UNL     1      44.383   8.648  11.653  0.00  0.00    +0.000 A 
ATOM      8  C   UNL     1      44.971   9.895  11.695  0.00  0.00    +0.000 A 
ATOM      9  N   UNL     1      46.288  10.087  11.907  0.00  0.00    +0.000 NA
BRANCH   6  10
ATOM     10  C   UNL     1      44.600   6.163  11.810  0.00  0.00    +0.000 A 
ATOM     11  C   UNL     1      43.889   5.656  12.914  0.00  0.00    +0.000 A 
ATOM     12  C   UNL     1      43.340   4.376  12.885  0.00  0.00    +0.000 A 
ATOM     13  C   UNL     1      43.498   3.588  11.753  0.00  0.00    +0.000 A 
ATOM     14  F   UNL     1      42.962   2.360  11.744  0.00  0.00    +0.000 F 
ATOM     15  C   UNL     1      44.199   4.063  10.649  0.00  0.00    +0.000 A 
ATOM     16 CL   UNL     1      44.406   3.089   9.246  0.00  0.00    +0.000 Cl
ATOM     17  C   UNL     1      44.748   5.345  10.677  0.00  0.00    +0.000 A 
ENDBRANCH   6  10
ENDBRANCH   1   4
BRANCH   1  18
ATOM     18  C   UNL     1      49.245   7.800  12.548  0.00  0.00    +0.000 C 
BRANCH  18  23
ATOM     19  C   UNL     1      47.696   4.587  16.189  0.00  0.00    +0.000 A 
ATOM     20  C   UNL     1      47.286   4.766  14.877  0.00  0.00    +0.000 A 
ATOM     21  C   UNL     1      47.918   5.733  14.099  0.00  0.00    +0.000 A 
ATOM     22  C   UNL     1      48.934   6.515  14.647  0.00  0.00    +0.000 A 
ATOM     23  N   UNL     1      49.574   7.495  13.937  0.00  0.00    +0.000 N 
ATOM     24  N   UNL     1      49.342   6.340  15.917  0.00  0.00    +0.000 NA
ATOM     25  C   UNL     1      48.727   5.383  16.658  0.00  0.00    +0.000 A 
ATOM     26  H   UNL     1      50.240   8.061  14.454  0.00  0.00    +0.000 HD
BRANCH  19  28
ATOM     27  N   UNL     1      46.575   2.825  17.711  0.00  0.00    +0.000 NA
ATOM     28  C   UNL     1      47.063   3.619  17.029  0.00  0.00    +0.000 C 
ENDBRANCH  19  28
ENDBRANCH  18  23
ENDBRANCH   1  18
TORSDOF 5
ENDMDL
MODEL 8
REMARK VINA RESULT:    -6.990      4.068      8.113
REMARK INTER + INTRA:          -9.972
REMARK INTER:                  -9.128
REMARK INTRA:                  -0.844
REMARK UNBOUND:                -0.938
REMARK  Name = 
REMARK  5 active torsions:
REMARK  status: ('A' for Active; 'I' for Inactive)
REMARK    1  A    between atoms: C_2  and  C_3
REMARK    2  A    between atoms: N_7  and  C_8
REMARK    3  A    between atoms: C_8  and  C_9
REMARK    4  A    between atoms: C_9  and  C_12
REMARK    5  A    between atoms: C_14  and  C_15
REMARK                            x       y       z     vdW  Elec       q    Type
REMARK                         _______ _______ _______ _____ _____    ______ ____
ROOT
ATOM      1  C   UNL     1      48.555   8.180  12.618  0.00  0.00    +0.000 C 
ATOM      2  F   UNL     1      49.061   9.290  11.995  0.00  0.00    +0.000 F 
ATOM      3  F   UNL     1      49.405   7.163  12.278  0.00  0.00    +0.000 F 
ENDROOT
BRANCH   1   4
ATOM      4  C   UNL     1      47.123   7.891  12.178  0.00  0.00    +0.000 A 
ATOM      5  C   UNL     1      46.850   6.673  11.565  0.00  0.00    +0.000 A 
ATOM      6  C   UNL     1      45.547   6.386  11.138  0.00  0.00    +0.000 A 
ATOM      7  C   UNL     1      44.558   7.352  11.354  0.00  0.00    +0.000 A 
ATOM      8  C   UNL     1      44.901   8.536  11.975  0.00  0.00    +0.000 A 
ATOM      9  N   UNL     1      46.152   8.822  12.386  0.00  0.00    +0.000 NA
BRANCH   6  10
ATOM     10  C   UNL     1      45.232   5.109  10.482  0.00  0.00    +0.000 A 
ATOM     11  C   UNL     1      44.511   4.110  11.161  0.00  0.00    +0.000 A 
ATOM     12  C   UNL     1      44.211   2.897  10.543  0.00  0.00    +0.000 A 
ATOM     13  C   UNL     1      44.633   2.671   9.239  0.00  0.00    +0.000 A 
ATOM     14  F   UNL     1      44.334   1.499   8.662  0.00  0.00    +0.000 F 
ATOM     15  C   UNL     1      45.349   3.640   8.546  0.00  0.00    +0.000 A 
ATOM     16 CL   UNL     1      45.882   3.363   6.934  0.00  0.00    +0.000 Cl
ATOM     17  C   UNL     1      45.648   4.854   9.165  0.00  0.00    +0.000 A 
ENDBRANCH   6  10
ENDBRANCH   1   4
BRANCH   1  18
ATOM     18  C   UNL     1      48.620   8.397  14.139  0.00  0.00    +0.000 C 
BRANCH  18  23
ATOM     19  C   UNL     1      50.845   5.122  17.351  0.00  0.00    +0.000 A 
ATOM     20  C   UNL     1      51.341   6.206  16.642  0.00  0.00    +0.000 A 
ATOM     21  C   UNL     1      50.473   6.939  15.838  0.00  0.00    +0.000 A 
ATOM     22  C   UNL     1      49.133   6.571  15.739  0.00  0.00    +0.000 A 
ATOM     23  N   UNL     1      48.239   7.241  14.946  0.00  0.00    +0.000 N 
ATOM     24  N   UNL     1      48.643   5.526  16.431  0.00  0.00    +0.000 NA
ATOM     25  C   UNL     1      49.497   4.829  17.223  0.00  0.00    +0.000 A 
ATOM     26  H   UNL     1      47.309   6.841  14.882  0.00  0.00    +0.000 HD
BRANCH  19  28
ATOM     27  N   UNL     1      52.381   3.669  18.836  0.00  0.00    +0.000 NA
ATOM     28  C   UNL     1      51.702   4.330  18.174  0.00  0.00    +0.000 C 
ENDBRANCH  19  28
ENDBRANCH  18  23
ENDBRANCH   1  18
TORSDOF 5
ENDMDL
MODEL 9
REMARK VINA RESULT:    -6.815      5.543      8.362
REMARK INTER + INTRA:          -9.745
REMARK INTER:                  -9.061
REMARK INTRA:                  -0.684
REMARK UNBOUND:                -0.938
REMARK  Name = 
REMARK  5 active torsions:
REMARK  status: ('A' for Active; 'I' for Inactive)
REMARK    1  A    between atoms: C_2  and  C_3
REMARK    2  A    between atoms: N_7  and  C_8
REMARK    3  A    between atoms: C_8  and  C_9
REMARK    4  A    between atoms: C_9  and  C_12
REMARK    5  A    between atoms: C_14  and  C_15
REMARK                            x       y       z     vdW  Elec       q    Type
REMARK                         _______ _______ _______ _____ _____    ______ ____
ROOT
ATOM      1  C   UNL     1      47.801   4.597  17.005  0.00  0.00    +0.000 C 
ATOM      2  F   UNL     1      47.079   3.440  16.880  0.00  0.00    +0.000 F 
ATOM      3  F   UNL     1      47.139   5.326  17.956  0.00  0.00    +0.000 F 
ENDROOT
BRANCH   1   4
ATOM      4  C   UNL     1      47.896   5.349  15.682  0.00  0.00    +0.000 A 
ATOM      5  C   UNL     1      47.033   4.994  14.652  0.00  0.00    +0.000 A 
ATOM      6  C   UNL     1      47.108   5.657  13.421  0.00  0.00    +0.000 A 
ATOM      7  C   UNL     1      48.062   6.671  13.279  0.00  0.00    +0.000 A 
ATOM      8  C   UNL     1      48.881   6.974  14.346  0.00  0.00    +0.000 A 
ATOM      9  N   UNL     1      48.819   6.339  15.533  0.00  0.00    +0.000 NA
BRANCH   6  10
ATOM     10  C   UNL     1      46.211   5.297  12.313  0.00  0.00    +0.000 A 
ATOM     11  C   UNL     1      46.280   5.974  11.081  0.00  0.00    +0.000 A 
ATOM     12  C   UNL     1      45.431   5.636  10.030  0.00  0.00    +0.000 A 
ATOM     13  C   UNL     1      44.501   4.619  10.201  0.00  0.00    +0.000 A 
ATOM     14  F   UNL     1      43.693   4.308   9.177  0.00  0.00    +0.000 F 
ATOM     15  C   UNL     1      44.409   3.935  11.408  0.00  0.00    +0.000 A 
ATOM     16 CL   UNL     1      43.254   2.680  11.629  0.00  0.00    +0.000 Cl
ATOM     17  C   UNL     1      45.260   4.273  12.460  0.00  0.00    +0.000 A 
ENDBRANCH   6  10
ENDBRANCH   1   4
BRANCH   1  18
ATOM     18  C   UNL     1      49.203   4.248  17.532  0.00  0.00    +0.000 C 
BRANCH  18  23
ATOM     19  C   UNL     1      53.421   1.448  18.128  0.00  0.00    +0.000 A 
ATOM     20  C   UNL     1      53.125   2.760  18.467  0.00  0.00    +0.000 A 
ATOM     21  C   UNL     1      51.855   3.258  18.187  0.00  0.00    +0.000 A 
ATOM     22  C   UNL     1      50.909   2.447  17.561  0.00  0.00    +0.000 A 
ATOM     23  N   UNL     1      49.653   2.890  17.241  0.00  0.00    +0.000 N 
ATOM     24  N   UNL     1      51.188   1.171  17.238  0.00  0.00    +0.000 NA
ATOM     25  C   UNL     1      52.425   0.695  17.531  0.00  0.00    +0.000 A 
ATOM     26  H   UNL     1      49.072   2.247  16.714  0.00  0.00    +0.000 HD
BRANCH  19  28
ATOM     27  N   UNL     1      55.773   0.483  18.589  0.00  0.00    +0.000 NA
ATOM     28  C   UNL     1      54.717   0.901  18.380  0.00  0.00    +0.000 C 
ENDBRANCH  19  28
ENDBRANCH  18  23
ENDBRANCH   1  18
TORSDOF 5
ENDMDL
