MODEL 1
REMARK VINA RESULT:    -6.588      0.000      0.000
REMARK INTER + INTRA:          -8.773
REMARK INTER:                  -8.128
REMARK INTRA:                  -0.644
REMARK UNBOUND:                -0.644
REMARK  Name = 
REMARK  6 active torsions:
REMARK  status: ('A' for Active; 'I' for Inactive)
REMARK    1  A    between atoms: C_1  and  C_2
REMARK    2  A    between atoms: C_3  and  C_4
REMARK    3  A    between atoms: C_7  and  C_8
REMARK    4  A    between atoms: C_15  and  C_16
REMARK    5  A    between atoms: C_15  and  C_17
REMARK    6  A    between atoms: C_20  and  C_21
REMARK                            x       y       z     vdW  Elec       q    Type
REMARK                         _______ _______ _______ _____ _____    ______ ____
ROOT
ATOM      1  C   UNL     1      45.373   4.767  13.603  0.00  0.00    +0.000 C 
ATOM      2  C   UNL     1      46.012   5.186  12.268  0.00  0.00    +0.000 C 
ATOM      3  C   UNL     1      44.920   5.105  11.143  0.00  0.00    +0.000 C 
ATOM      4  C   UNL     1      44.386   6.548  11.014  0.00  0.00    +0.000 C 
ATOM      5  C   UNL     1      45.243   7.436  11.906  0.00  0.00    +0.000 C 
ATOM      6  C   UNL     1      46.542   6.660  12.214  0.00  0.00    +0.000 C 
ATOM      7  C   UNL     1      47.511   6.815  11.010  0.00  0.00    +0.000 C 
ENDROOT
BRANCH   3   8
ATOM      8  C   UNL     1      45.401   4.401   9.878  0.00  0.00    +0.000 A 
ATOM      9  C   UNL     1      45.279   3.003   9.792  0.00  0.00    +0.000 A 
ATOM     10  C   UNL     1      45.738   2.302   8.673  0.00  0.00    +0.000 A 
ATOM     11  C   UNL     1      46.307   2.987   7.595  0.00  0.00    +0.000 A 
ATOM     12  C   UNL     1      46.408   4.374   7.648  0.00  0.00    +0.000 A 
ATOM     13  C   UNL     1      45.951   5.076   8.776  0.00  0.00    +0.000 A 
BRANCH  11  14
ATOM     14  C   UNL     1      46.827   2.208   6.444  0.00  0.00    +0.000 C 
ATOM     15  N   UNL     1      47.055   2.877   5.273  0.00  0.00    +0.000 N 
ATOM     16  O   UNL     1      47.032   1.003   6.528  0.00  0.00    +0.000 OA
ATOM     17  H   UNL     1      46.801   3.840   5.114  0.00  0.00    +0.000 HD
ATOM     18  H   UNL     1      47.360   2.325   4.484  0.00  0.00    +0.000 HD
ENDBRANCH  11  14
ENDBRANCH   3   8
BRANCH   6  19
ATOM     19  C   UNL     1      47.264   7.136  13.488  0.00  0.00    +0.000 A 
ATOM     20  C   UNL     1      48.013   6.259  14.296  0.00  0.00    +0.000 A 
ATOM     21  C   UNL     1      48.719   6.708  15.415  0.00  0.00    +0.000 A 
ATOM     22  C   UNL     1      48.679   8.054  15.783  0.00  0.00    +0.000 A 
ATOM     23  C   UNL     1      47.897   8.934  15.031  0.00  0.00    +0.000 A 
ATOM     24  C   UNL     1      47.202   8.481  13.900  0.00  0.00    +0.000 A 
BRANCH  22  25
ATOM     25  C   UNL     1      49.459   8.474  16.974  0.00  0.00    +0.000 C 
ATOM     26  N   UNL     1      50.048   9.709  16.943  0.00  0.00    +0.000 N 
ATOM     27  O   UNL     1      49.606   7.737  17.943  0.00  0.00    +0.000 OA
ATOM     28  H   UNL     1      50.065  10.302  16.130  0.00  0.00    +0.000 HD
ATOM     29  H   UNL     1      50.634   9.952  17.730  0.00  0.00    +0.000 HD
ENDBRANCH  22  25
ENDBRANCH   6  19
TORSDOF 4
ENDMDL
MODEL 2
REMARK VINA RESULT:    -6.045      3.559      4.661
REMARK INTER + INTRA:          -8.102
REMARK INTER:                  -6.736
REMARK INTRA:                  -1.366
REMARK UNBOUND:                -0.644
REMARK  Name = 
REMARK  6 active torsions:
REMARK  status: ('A' for Active; 'I' for Inactive)
REMARK    1  A    between atoms: C_1  and  C_2
REMARK    2  A    between atoms: C_3  and  C_4
REMARK    3  A    between atoms: C_7  and  C_8
REMARK    4  A    between atoms: C_15  and  C_16
REMARK    5  A    between atoms: C_15  and  C_17
REMARK    6  A    between atoms: C_20  and  C_21
REMARK                            x       y       z     vdW  Elec       q    Type
REMARK                         _______ _______ _______ _____ _____    ______ ____
ROOT
ATOM      1  C   UNL     1      47.916   8.884  15.035  0.00  0.00    +0.000 C 
ATOM      2  C   UNL     1      47.862   8.156  13.682  0.00  0.00    +0.000 C 
ATOM      3  C   UNL     1      46.391   8.219  13.138  0.00  0.00    +0.000 C 
ATOM      4  C   UNL     1      46.385   9.421  12.170  0.00  0.00    +0.000 C 
ATOM      5  C   UNL     1      47.819   9.918  12.045  0.00  0.00    +0.000 C 
ATOM      6  C   UNL     1      48.742   8.787  12.549  0.00  0.00    +0.000 C 
ATOM      7  C   UNL     1      48.928   7.752  11.406  0.00  0.00    +0.000 C 
ENDROOT
BRANCH   3   8
ATOM      8  C   UNL     1      45.876   6.879  12.623  0.00  0.00    +0.000 A 
ATOM      9  C   UNL     1      45.087   6.857  11.458  0.00  0.00    +0.000 A 
ATOM     10  C   UNL     1      44.557   5.663  10.963  0.00  0.00    +0.000 A 
ATOM     11  C   UNL     1      44.826   4.451  11.606  0.00  0.00    +0.000 A 
ATOM     12  C   UNL     1      45.630   4.447  12.742  0.00  0.00    +0.000 A 
ATOM     13  C   UNL     1      46.157   5.650  13.241  0.00  0.00    +0.000 A 
BRANCH  11  14
ATOM     14  C   UNL     1      44.208   3.208  11.081  0.00  0.00    +0.000 C 
ATOM     15  N   UNL     1      44.948   2.443  10.221  0.00  0.00    +0.000 N 
ATOM     16  O   UNL     1      43.069   2.880  11.389  0.00  0.00    +0.000 OA
ATOM     17  H   UNL     1      45.844   2.718   9.847  0.00  0.00    +0.000 HD
ATOM     18  H   UNL     1      44.497   1.627   9.832  0.00  0.00    +0.000 HD
ENDBRANCH  11  14
ENDBRANCH   3   8
BRANCH   6  19
ATOM     19  C   UNL     1      50.132   9.272  13.001  0.00  0.00    +0.000 A 
ATOM     20  C   UNL     1      51.141   8.378  13.408  0.00  0.00    +0.000 A 
ATOM     21  C   UNL     1      52.420   8.818  13.757  0.00  0.00    +0.000 A 
ATOM     22  C   UNL     1      52.730  10.179  13.734  0.00  0.00    +0.000 A 
ATOM     23  C   UNL     1      51.730  11.091  13.389  0.00  0.00    +0.000 A 
ATOM     24  C   UNL     1      50.451  10.643  13.026  0.00  0.00    +0.000 A 
BRANCH  22  25
ATOM     25  C   UNL     1      54.109  10.586  14.102  0.00  0.00    +0.000 C 
ATOM     26  N   UNL     1      54.617  10.111  15.281  0.00  0.00    +0.000 N 
ATOM     27  O   UNL     1      54.768  11.346  13.399  0.00  0.00    +0.000 OA
ATOM     28  H   UNL     1      54.080   9.588  15.953  0.00  0.00    +0.000 HD
ATOM     29  H   UNL     1      55.529  10.454  15.553  0.00  0.00    +0.000 HD
ENDBRANCH  22  25
ENDBRANCH   6  19
TORSDOF 4
ENDMDL
MODEL 3
REMARK VINA RESULT:    -5.883      4.660      7.826
REMARK INTER + INTRA:          -7.903
REMARK INTER:                  -6.665
REMARK INTRA:                  -1.238
REMARK UNBOUND:                -0.644
REMARK  Name = 
REMARK  6 active torsions:
REMARK  status: ('A' for Active; 'I' for Inactive)
REMARK    1  A    between atoms: C_1  and  C_2
REMARK    2  A    between atoms: C_3  and  C_4
REMARK    3  A    between atoms: C_7  and  C_8
REMARK    4  A    between atoms: C_15  and  C_16
REMARK    5  A    between atoms: C_15  and  C_17
REMARK    6  A    between atoms: C_20  and  C_21
REMARK                            x       y       z     vdW  Elec       q    Type
REMARK                         _______ _______ _______ _____ _____    ______ ____
ROOT
ATOM      1  C   UNL     1      46.304   9.552  12.180  0.00  0.00    +0.000 C 
ATOM      2  C   UNL     1      47.742   9.017  12.074  0.00  0.00    +0.000 C 
ATOM      3  C   UNL     1      48.699   9.997  12.842  0.00  0.00    +0.000 C 
ATOM      4  C   UNL     1      48.868   9.361  14.239  0.00  0.00    +0.000 C 
ATOM      5  C   UNL     1      48.174   8.006  14.213  0.00  0.00    +0.000 C 
ATOM      6  C   UNL     1      47.984   7.616  12.732  0.00  0.00    +0.000 C 
ATOM      7  C   UNL     1      49.316   7.020  12.200  0.00  0.00    +0.000 C 
ENDROOT
BRANCH   3   8
ATOM      8  C   UNL     1      49.958  10.356  12.059  0.00  0.00    +0.000 A 
ATOM      9  C   UNL     1      49.822  10.897  10.768  0.00  0.00    +0.000 A 
ATOM     10  C   UNL     1      50.941  11.210   9.991  0.00  0.00    +0.000 A 
ATOM     11  C   UNL     1      52.229  11.014  10.498  0.00  0.00    +0.000 A 
ATOM     12  C   UNL     1      52.385  10.509  11.785  0.00  0.00    +0.000 A 
ATOM     13  C   UNL     1      51.258  10.190  12.562  0.00  0.00    +0.000 A 
BRANCH  11  14
ATOM     14  C   UNL     1      53.395  11.311   9.628  0.00  0.00    +0.000 C 
ATOM     15  N   UNL     1      54.629  11.370  10.215  0.00  0.00    +0.000 N 
ATOM     16  O   UNL     1      53.262  11.514   8.427  0.00  0.00    +0.000 OA
ATOM     17  H   UNL     1      54.784  11.321  11.211  0.00  0.00    +0.000 HD
ATOM     18  H   UNL     1      55.406  11.622   9.621  0.00  0.00    +0.000 HD
ENDBRANCH  11  14
ENDBRANCH   3   8
BRANCH   6  19
ATOM     19  C   UNL     1      46.861   6.587  12.498  0.00  0.00    +0.000 A 
ATOM     20  C   UNL     1      46.358   6.308  11.212  0.00  0.00    +0.000 A 
ATOM     21  C   UNL     1      45.384   5.329  10.998  0.00  0.00    +0.000 A 
ATOM     22  C   UNL     1      44.858   4.608  12.071  0.00  0.00    +0.000 A 
ATOM     23  C   UNL     1      45.299   4.907  13.363  0.00  0.00    +0.000 A 
ATOM     24  C   UNL     1      46.287   5.880  13.571  0.00  0.00    +0.000 A 
BRANCH  22  25
ATOM     25  C   UNL     1      43.836   3.572  11.780  0.00  0.00    +0.000 C 
ATOM     26  N   UNL     1      43.854   2.434  12.538  0.00  0.00    +0.000 N 
ATOM     27  O   UNL     1      43.020   3.707  10.874  0.00  0.00    +0.000 OA
ATOM     28  H   UNL     1      44.573   2.216  13.208  0.00  0.00    +0.000 HD
ATOM     29  H   UNL     1      43.198   1.707  12.282  0.00  0.00    +0.000 HD
ENDBRANCH  22  25
ENDBRANCH   6  19
TORSDOF 4
ENDMDL
MODEL 4
REMARK VINA RESULT:    -5.511      3.365      8.600
REMARK INTER + INTRA:          -7.444
REMARK INTER:                  -6.915
REMARK INTRA:                  -0.529
REMARK UNBOUND:                -0.644
REMARK  Name = 
REMARK  6 active torsions:
REMARK  status: ('A' for Active; 'I' for Inactive)
REMARK    1  A    between atoms: C_1  and  C_2
REMARK    2  A    between atoms: C_3  and  C_4
REMARK    3  A    between atoms: C_7  and  C_8
REMARK    4  A    between atoms: C_15  and  C_16
REMARK    5  A    between atoms: C_15  and  C_17
REMARK    6  A    between atoms: C_20  and  C_21
REMARK                            x       y       z     vdW  Elec       q    Type
REMARK                         _______ _______ _______ _____ _____    ______ ____
ROOT
ATOM      1  C   UNL     1      49.094   7.798  11.406  0.00  0.00    +0.000 C 
ATOM      2  C   UNL     1      49.292   7.371  12.870  0.00  0.00    +0.000 C 
ATOM      3  C   UNL     1      50.031   8.528  13.633  0.00  0.00    +0.000 C 
ATOM      4  C   UNL     1      48.902   9.328  14.316  0.00  0.00    +0.000 C 
ATOM      5  C   UNL     1      47.600   8.572  14.087  0.00  0.00    +0.000 C 
ATOM      6  C   UNL     1      47.972   7.130  13.680  0.00  0.00    +0.000 C 
ATOM      7  C   UNL     1      48.297   6.320  14.964  0.00  0.00    +0.000 C 
ENDROOT
BRANCH   3   8
ATOM      8  C   UNL     1      51.191   8.041  14.496  0.00  0.00    +0.000 A 
ATOM      9  C   UNL     1      52.503   8.172  14.006  0.00  0.00    +0.000 A 
ATOM     10  C   UNL     1      53.600   7.710  14.737  0.00  0.00    +0.000 A 
ATOM     11  C   UNL     1      53.416   7.127  15.995  0.00  0.00    +0.000 A 
ATOM     12  C   UNL     1      52.128   7.017  16.511  0.00  0.00    +0.000 A 
ATOM     13  C   UNL     1      51.026   7.478  15.772  0.00  0.00    +0.000 A 
BRANCH  11  14
ATOM     14  C   UNL     1      54.598   6.604  16.723  0.00  0.00    +0.000 C 
ATOM     15  N   UNL     1      54.905   5.279  16.570  0.00  0.00    +0.000 N 
ATOM     16  O   UNL     1      55.272   7.323  17.450  0.00  0.00    +0.000 OA
ATOM     17  H   UNL     1      54.325   4.617  16.076  0.00  0.00    +0.000 HD
ATOM     18  H   UNL     1      55.681   4.925  17.111  0.00  0.00    +0.000 HD
ENDBRANCH  11  14
ENDBRANCH   3   8
BRANCH   6  19
ATOM     19  C   UNL     1      46.861   6.396  12.905  0.00  0.00    +0.000 A 
ATOM     20  C   UNL     1      46.060   7.047  11.948  0.00  0.00    +0.000 A 
ATOM     21  C   UNL     1      45.097   6.362  11.203  0.00  0.00    +0.000 A 
ATOM     22  C   UNL     1      44.883   4.998  11.408  0.00  0.00    +0.000 A 
ATOM     23  C   UNL     1      45.625   4.342  12.393  0.00  0.00    +0.000 A 
ATOM     24  C   UNL     1      46.600   5.030  13.128  0.00  0.00    +0.000 A 
BRANCH  22  25
ATOM     25  C   UNL     1      43.855   4.322  10.578  0.00  0.00    +0.000 C 
ATOM     26  N   UNL     1      43.891   4.534   9.227  0.00  0.00    +0.000 N 
ATOM     27  O   UNL     1      42.980   3.621  11.077  0.00  0.00    +0.000 OA
ATOM     28  H   UNL     1      44.506   5.193   8.779  0.00  0.00    +0.000 HD
ATOM     29  H   UNL     1      43.143   4.125   8.683  0.00  0.00    +0.000 HD
ENDBRANCH  22  25
ENDBRANCH   6  19
TORSDOF 4
ENDMDL
MODEL 5
REMARK VINA RESULT:    -5.457     11.292     14.125
REMARK INTER + INTRA:          -7.377
REMARK INTER:                  -6.091
REMARK INTRA:                  -1.286
REMARK UNBOUND:                -0.644
REMARK  Name = 
REMARK  6 active torsions:
REMARK  status: ('A' for Active; 'I' for Inactive)
REMARK    1  A    between atoms: C_1  and  C_2
REMARK    2  A    between atoms: C_3  and  C_4
REMARK    3  A    between atoms: C_7  and  C_8
REMARK    4  A    between atoms: C_15  and  C_16
REMARK    5  A    between atoms: C_15  and  C_17
REMARK    6  A    between atoms: C_20  and  C_21
REMARK                            x       y       z     vdW  Elec       q    Type
REMARK                         _______ _______ _______ _____ _____    ______ ____
ROOT
ATOM      1  C   UNL     1      41.158  -2.598  16.787  0.00  0.00    +0.000 C 
ATOM      2  C   UNL     1      41.832  -3.935  16.434  0.00  0.00    +0.000 C 
ATOM      3  C   UNL     1      41.883  -4.826  17.726  0.00  0.00    +0.000 C 
ATOM      4  C   UNL     1      40.647  -5.744  17.616  0.00  0.00    +0.000 C 
ATOM      5  C   UNL     1      40.015  -5.501  16.252  0.00  0.00    +0.000 C 
ATOM      6  C   UNL     1      41.075  -4.805  15.372  0.00  0.00    +0.000 C 
ATOM      7  C   UNL     1      42.040  -5.884  14.809  0.00  0.00    +0.000 C 
ENDROOT
BRANCH   3   8
ATOM      8  C   UNL     1      43.242  -5.476  17.963  0.00  0.00    +0.000 A 
ATOM      9  C   UNL     1      44.341  -4.655  18.276  0.00  0.00    +0.000 A 
ATOM     10  C   UNL     1      45.617  -5.193  18.466  0.00  0.00    +0.000 A 
ATOM     11  C   UNL     1      45.823  -6.573  18.375  0.00  0.00    +0.000 A 
ATOM     12  C   UNL     1      44.742  -7.405  18.097  0.00  0.00    +0.000 A 
ATOM     13  C   UNL     1      43.461  -6.861  17.901  0.00  0.00    +0.000 A 
BRANCH  11  14
ATOM     14  C   UNL     1      47.199  -7.105  18.534  0.00  0.00    +0.000 C 
ATOM     15  N   UNL     1      47.408  -8.049  19.503  0.00  0.00    +0.000 N 
ATOM     16  O   UNL     1      48.124  -6.705  17.838  0.00  0.00    +0.000 OA
ATOM     17  H   UNL     1      46.712  -8.333  20.176  0.00  0.00    +0.000 HD
ATOM     18  H   UNL     1      48.359  -8.365  19.634  0.00  0.00    +0.000 HD
ENDBRANCH  11  14
ENDBRANCH   3   8
BRANCH   6  19
ATOM     19  C   UNL     1      40.483  -4.014  14.191  0.00  0.00    +0.000 A 
ATOM     20  C   UNL     1      39.100  -3.775  14.068  0.00  0.00    +0.000 A 
ATOM     21  C   UNL     1      38.574  -3.003  13.029  0.00  0.00    +0.000 A 
ATOM     22  C   UNL     1      39.415  -2.461  12.056  0.00  0.00    +0.000 A 
ATOM     23  C   UNL     1      40.784  -2.731  12.123  0.00  0.00    +0.000 A 
ATOM     24  C   UNL     1      41.309  -3.494  13.175  0.00  0.00    +0.000 A 
BRANCH  22  25
ATOM     25  C   UNL     1      38.800  -1.640  10.983  0.00  0.00    +0.000 C 
ATOM     26  N   UNL     1      38.519  -2.256   9.794  0.00  0.00    +0.000 N 
ATOM     27  O   UNL     1      38.576  -0.443  11.134  0.00  0.00    +0.000 OA
ATOM     28  H   UNL     1      38.793  -3.199   9.573  0.00  0.00    +0.000 HD
ATOM     29  H   UNL     1      38.167  -1.668   9.050  0.00  0.00    +0.000 HD
ENDBRANCH  22  25
ENDBRANCH   6  19
TORSDOF 4
ENDMDL
MODEL 6
REMARK VINA RESULT:    -5.333      3.409      8.807
REMARK INTER + INTRA:          -7.224
REMARK INTER:                  -5.851
REMARK INTRA:                  -1.373
REMARK UNBOUND:                -0.644
REMARK  Name = 
REMARK  6 active torsions:
REMARK  status: ('A' for Active; 'I' for Inactive)
REMARK    1  A    between atoms: C_1  and  C_2
REMARK    2  A    between atoms: C_3  and  C_4
REMARK    3  A    between atoms: C_7  and  C_8
REMARK    4  A    between atoms: C_15  and  C_16
REMARK    5  A    between atoms: C_15  and  C_17
REMARK    6  A    between atoms: C_20  and  C_21
REMARK                            x       y       z     vdW  Elec       q    Type
REMARK                         _______ _______ _______ _____ _____    ______ ____
ROOT
ATOM      1  C   UNL     1      49.240   7.391  11.052  0.00  0.00    +0.000 C 
ATOM      2  C   UNL     1      49.029   8.063  12.420  0.00  0.00    +0.000 C 
ATOM      3  C   UNL     1      49.595   9.526  12.352  0.00  0.00    +0.000 C 
ATOM      4  C   UNL     1      48.364  10.406  12.047  0.00  0.00    +0.000 C 
ATOM      5  C   UNL     1      47.134   9.509  12.100  0.00  0.00    +0.000 C 
ATOM      6  C   UNL     1      47.534   8.226  12.860  0.00  0.00    +0.000 C 
ATOM      7  C   UNL     1      47.475   8.513  14.385  0.00  0.00    +0.000 C 
ENDROOT
BRANCH   3   8
ATOM      8  C   UNL     1      50.466   9.897  13.548  0.00  0.00    +0.000 A 
ATOM      9  C   UNL     1      51.270   8.904  14.136  0.00  0.00    +0.000 A 
ATOM     10  C   UNL     1      52.058   9.178  15.256  0.00  0.00    +0.000 A 
ATOM     11  C   UNL     1      52.085  10.465  15.803  0.00  0.00    +0.000 A 
ATOM     12  C   UNL     1      51.320  11.469  15.217  0.00  0.00    +0.000 A 
ATOM     13  C   UNL     1      50.524  11.190  14.094  0.00  0.00    +0.000 A 
BRANCH  11  14
ATOM     14  C   UNL     1      52.896  10.709  17.022  0.00  0.00    +0.000 C 
ATOM     15  N   UNL     1      52.268  10.613  18.234  0.00  0.00    +0.000 N 
ATOM     16  O   UNL     1      54.082  11.004  16.952  0.00  0.00    +0.000 OA
ATOM     17  H   UNL     1      51.274  10.483  18.348  0.00  0.00    +0.000 HD
ATOM     18  H   UNL     1      52.820  10.832  19.052  0.00  0.00    +0.000 HD
ENDBRANCH  11  14
ENDBRANCH   3   8
BRANCH   6  19
ATOM     19  C   UNL     1      46.632   7.015  12.555  0.00  0.00    +0.000 A 
ATOM     20  C   UNL     1      46.703   5.823  13.300  0.00  0.00    +0.000 A 
ATOM     21  C   UNL     1      45.840   4.750  13.061  0.00  0.00    +0.000 A 
ATOM     22  C   UNL     1      44.886   4.825  12.044  0.00  0.00    +0.000 A 
ATOM     23  C   UNL     1      44.834   5.975  11.253  0.00  0.00    +0.000 A 
ATOM     24  C   UNL     1      45.693   7.053  11.506  0.00  0.00    +0.000 A 
BRANCH  22  25
ATOM     25  C   UNL     1      43.988   3.659  11.845  0.00  0.00    +0.000 C 
ATOM     26  N   UNL     1      44.300   2.500  12.501  0.00  0.00    +0.000 N 
ATOM     27  O   UNL     1      43.017   3.712  11.097  0.00  0.00    +0.000 OA
ATOM     28  H   UNL     1      45.148   2.362  13.026  0.00  0.00    +0.000 HD
ATOM     29  H   UNL     1      43.721   1.695  12.300  0.00  0.00    +0.000 HD
ENDBRANCH  22  25
ENDBRANCH   6  19
TORSDOF 4
ENDMDL
MODEL 7
REMARK VINA RESULT:    -5.192      4.463      7.923
REMARK INTER + INTRA:          -7.050
REMARK INTER:                  -6.879
REMARK INTRA:                  -0.171
REMARK UNBOUND:                -0.644
REMARK  Name = 
REMARK  6 active torsions:
REMARK  status: ('A' for Active; 'I' for Inactive)
REMARK    1  A    between atoms: C_1  and  C_2
REMARK    2  A    between atoms: C_3  and  C_4
REMARK    3  A    between atoms: C_7  and  C_8
REMARK    4  A    between atoms: C_15  and  C_16
REMARK    5  A    between atoms: C_15  and  C_17
REMARK    6  A    between atoms: C_20  and  C_21
REMARK                            x       y       z     vdW  Elec       q    Type
REMARK                         _______ _______ _______ _____ _____    ______ ____
ROOT
ATOM      1  C   UNL     1      45.660   5.890  11.747  0.00  0.00    +0.000 C 
ATOM      2  C   UNL     1      46.320   6.588  12.948  0.00  0.00    +0.000 C 
ATOM      3  C   UNL     1      47.687   5.878  13.252  0.00  0.00    +0.000 C 
ATOM      4  C   UNL     1      48.743   6.742  12.531  0.00  0.00    +0.000 C 
ATOM      5  C   UNL     1      48.033   7.972  11.981  0.00  0.00    +0.000 C 
ATOM      6  C   UNL     1      46.686   8.095  12.726  0.00  0.00    +0.000 C 
ATOM      7  C   UNL     1      46.939   8.772  14.101  0.00  0.00    +0.000 C 
ENDROOT
BRANCH   3   8
ATOM      8  C   UNL     1      47.897   5.571  14.731  0.00  0.00    +0.000 A 
ATOM      9  C   UNL     1      47.205   4.489  15.304  0.00  0.00    +0.000 A 
ATOM     10  C   UNL     1      47.330   4.186  16.662  0.00  0.00    +0.000 A 
ATOM     11  C   UNL     1      48.176   4.941  17.480  0.00  0.00    +0.000 A 
ATOM     12  C   UNL     1      48.894   5.997  16.925  0.00  0.00    +0.000 A 
ATOM     13  C   UNL     1      48.762   6.304  15.560  0.00  0.00    +0.000 A 
BRANCH  11  14
ATOM     14  C   UNL     1      48.249   4.622  18.927  0.00  0.00    +0.000 C 
ATOM     15  N   UNL     1      48.373   3.306  19.283  0.00  0.00    +0.000 N 
ATOM     16  O   UNL     1      48.183   5.498  19.780  0.00  0.00    +0.000 OA
ATOM     17  H   UNL     1      48.320   2.537  18.633  0.00  0.00    +0.000 HD
ATOM     18  H   UNL     1      48.370   3.099  20.272  0.00  0.00    +0.000 HD
ENDBRANCH  11  14
ENDBRANCH   3   8
BRANCH   6  19
ATOM     19  C   UNL     1      45.627   8.915  11.965  0.00  0.00    +0.000 A 
ATOM     20  C   UNL     1      44.509   8.312  11.357  0.00  0.00    +0.000 A 
ATOM     21  C   UNL     1      43.518   9.065  10.723  0.00  0.00    +0.000 A 
ATOM     22  C   UNL     1      43.623  10.456  10.653  0.00  0.00    +0.000 A 
ATOM     23  C   UNL     1      44.751  11.073  11.200  0.00  0.00    +0.000 A 
ATOM     24  C   UNL     1      45.736  10.314  11.847  0.00  0.00    +0.000 A 
BRANCH  22  25
ATOM     25  C   UNL     1      42.533  11.204   9.978  0.00  0.00    +0.000 C 
ATOM     26  N   UNL     1      41.422  11.508  10.716  0.00  0.00    +0.000 N 
ATOM     27  O   UNL     1      42.600  11.515   8.793  0.00  0.00    +0.000 OA
ATOM     28  H   UNL     1      41.260  11.172  11.651  0.00  0.00    +0.000 HD
ATOM     29  H   UNL     1      40.658  11.954  10.225  0.00  0.00    +0.000 HD
ENDBRANCH  22  25
ENDBRANCH   6  19
TORSDOF 4
ENDMDL
MODEL 8
REMARK VINA RESULT:    -5.074     10.871     14.042
REMARK INTER + INTRA:          -6.905
REMARK INTER:                  -5.582
REMARK INTRA:                  -1.323
REMARK UNBOUND:                -0.644
REMARK  Name = 
REMARK  6 active torsions:
REMARK  status: ('A' for Active; 'I' for Inactive)
REMARK    1  A    between atoms: C_1  and  C_2
REMARK    2  A    between atoms: C_3  and  C_4
REMARK    3  A    between atoms: C_7  and  C_8
REMARK    4  A    between atoms: C_15  and  C_16
REMARK    5  A    between atoms: C_15  and  C_17
REMARK    6  A    between atoms: C_20  and  C_21
REMARK                            x       y       z     vdW  Elec       q    Type
REMARK                         _______ _______ _______ _____ _____    ______ ____
ROOT
ATOM      1  C   UNL     1      37.837  -3.781  16.355  0.00  0.00    +0.000 C 
ATOM      2  C   UNL     1      38.797  -2.620  16.661  0.00  0.00    +0.000 C 
ATOM      3  C   UNL     1      38.505  -2.098  18.113  0.00  0.00    +0.000 C 
ATOM      4  C   UNL     1      39.544  -2.817  19.001  0.00  0.00    +0.000 C 
ATOM      5  C   UNL     1      40.483  -3.584  18.080  0.00  0.00    +0.000 C 
ATOM      6  C   UNL     1      40.319  -2.994  16.663  0.00  0.00    +0.000 C 
ATOM      7  C   UNL     1      41.168  -1.698  16.563  0.00  0.00    +0.000 C 
ENDROOT
BRANCH   3   8
ATOM      8  C   UNL     1      38.409  -0.579  18.206  0.00  0.00    +0.000 A 
ATOM      9  C   UNL     1      38.113   0.154  17.043  0.00  0.00    +0.000 A 
ATOM     10  C   UNL     1      38.050   1.550  17.061  0.00  0.00    +0.000 A 
ATOM     11  C   UNL     1      38.255   2.250  18.254  0.00  0.00    +0.000 A 
ATOM     12  C   UNL     1      38.519   1.541  19.422  0.00  0.00    +0.000 A 
ATOM     13  C   UNL     1      38.587   0.139  19.400  0.00  0.00    +0.000 A 
BRANCH  11  14
ATOM     14  C   UNL     1      38.228   3.734  18.228  0.00  0.00    +0.000 C 
ATOM     15  N   UNL     1      39.221   4.377  17.539  0.00  0.00    +0.000 N 
ATOM     16  O   UNL     1      37.361   4.368  18.815  0.00  0.00    +0.000 OA
ATOM     17  H   UNL     1      40.019   3.913  17.132  0.00  0.00    +0.000 HD
ATOM     18  H   UNL     1      39.219   5.386  17.572  0.00  0.00    +0.000 HD
ENDBRANCH  11  14
ENDBRANCH   3   8
BRANCH   6  19
ATOM     19  C   UNL     1      40.752  -3.951  15.536  0.00  0.00    +0.000 A 
ATOM     20  C   UNL     1      40.703  -3.579  14.178  0.00  0.00    +0.000 A 
ATOM     21  C   UNL     1      41.157  -4.427  13.164  0.00  0.00    +0.000 A 
ATOM     22  C   UNL     1      41.655  -5.694  13.473  0.00  0.00    +0.000 A 
ATOM     23  C   UNL     1      41.661  -6.108  14.807  0.00  0.00    +0.000 A 
ATOM     24  C   UNL     1      41.218  -5.249  15.822  0.00  0.00    +0.000 A 
BRANCH  22  25
ATOM     25  C   UNL     1      42.135  -6.545  12.355  0.00  0.00    +0.000 C 
ATOM     26  N   UNL     1      41.209  -6.976  11.445  0.00  0.00    +0.000 N 
ATOM     27  O   UNL     1      43.310  -6.884  12.259  0.00  0.00    +0.000 OA
ATOM     28  H   UNL     1      40.217  -6.833  11.542  0.00  0.00    +0.000 HD
ATOM     29  H   UNL     1      41.537  -7.613  10.730  0.00  0.00    +0.000 HD
ENDBRANCH  22  25
ENDBRANCH   6  19
TORSDOF 4
ENDMDL
MODEL 9
REMARK VINA RESULT:    -5.054      5.061      8.663
REMARK INTER + INTRA:          -6.880
REMARK INTER:                  -7.112
REMARK INTRA:                   0.232
REMARK UNBOUND:                -0.644
REMARK  Name = 
REMARK  6 active torsions:
REMARK  status: ('A' for Active; 'I' for Inactive)
REMARK    1  A    between atoms: C_1  and  C_2
REMARK    2  A    between atoms: C_3  and  C_4
REMARK    3  A    between atoms: C_7  and  C_8
REMARK    4  A    between atoms: C_15  and  C_16
REMARK    5  A    between atoms: C_15  and  C_17
REMARK    6  A    between atoms: C_20  and  C_21
REMARK                            x       y       z     vdW  Elec       q    Type
REMARK                         _______ _______ _______ _____ _____    ______ ____
ROOT
ATOM      1  C   UNL     1      49.136   6.638  16.302  0.00  0.00    +0.000 C 
ATOM      2  C   UNL     1      49.216   5.102  16.286  0.00  0.00    +0.000 C 
ATOM      3  C   UNL     1      49.532   4.602  17.740  0.00  0.00    +0.000 C 
ATOM      4  C   UNL     1      48.155   4.241  18.336  0.00  0.00    +0.000 C 
ATOM      5  C   UNL     1      47.124   4.375  17.223  0.00  0.00    +0.000 C 
ATOM      6  C   UNL     1      47.892   4.368  15.884  0.00  0.00    +0.000 C 
ATOM      7  C   UNL     1      48.213   2.897  15.503  0.00  0.00    +0.000 C 
ENDROOT
BRANCH   3   8
ATOM      8  C   UNL     1      50.637   3.552  17.796  0.00  0.00    +0.000 A 
ATOM      9  C   UNL     1      50.342   2.235  17.399  0.00  0.00    +0.000 A 
ATOM     10  C   UNL     1      51.305   1.225  17.465  0.00  0.00    +0.000 A 
ATOM     11  C   UNL     1      52.601   1.512  17.904  0.00  0.00    +0.000 A 
ATOM     12  C   UNL     1      52.921   2.815  18.272  0.00  0.00    +0.000 A 
ATOM     13  C   UNL     1      51.950   3.828  18.210  0.00  0.00    +0.000 A 
BRANCH  11  14
ATOM     14  C   UNL     1      53.584   0.405  18.007  0.00  0.00    +0.000 C 
ATOM     15  N   UNL     1      53.811  -0.352  16.890  0.00  0.00    +0.000 N 
ATOM     16  O   UNL     1      54.165   0.161  19.058  0.00  0.00    +0.000 OA
ATOM     17  H   UNL     1      53.283  -0.269  16.034  0.00  0.00    +0.000 HD
ATOM     18  H   UNL     1      54.444  -1.132  16.989  0.00  0.00    +0.000 HD
ENDBRANCH  11  14
ENDBRANCH   3   8
BRANCH   6  19
ATOM     19  C   UNL     1      47.119   5.017  14.720  0.00  0.00    +0.000 A 
ATOM     20  C   UNL     1      47.618   6.131  14.018  0.00  0.00    +0.000 A 
ATOM     21  C   UNL     1      46.944   6.676  12.923  0.00  0.00    +0.000 A 
ATOM     22  C   UNL     1      45.726   6.139  12.504  0.00  0.00    +0.000 A 
ATOM     23  C   UNL     1      45.181   5.069  13.218  0.00  0.00    +0.000 A 
ATOM     24  C   UNL     1      45.868   4.517  14.308  0.00  0.00    +0.000 A 
BRANCH  22  25
ATOM     25  C   UNL     1      45.062   6.752  11.326  0.00  0.00    +0.000 C 
ATOM     26  N   UNL     1      44.879   5.967  10.221  0.00  0.00    +0.000 N 
ATOM     27  O   UNL     1      44.716   7.929  11.320  0.00  0.00    +0.000 OA
ATOM     28  H   UNL     1      45.252   5.036  10.125  0.00  0.00    +0.000 HD
ATOM     29  H   UNL     1      44.491   6.418   9.403  0.00  0.00    +0.000 HD
ENDBRANCH  22  25
ENDBRANCH   6  19
TORSDOF 4
ENDMDL
