MODEL 1
REMARK VINA RESULT:    -7.560      0.000      0.000
REMARK INTER + INTRA:         -11.676
REMARK INTER:                 -10.432
REMARK INTRA:                  -1.244
REMARK UNBOUND:                -1.244
REMARK  Name = 
REMARK  7 active torsions:
REMARK  status: ('A' for Active; 'I' for Inactive)
REMARK    1  A    between atoms: N_1  and  C_2
REMARK    2  A    between atoms: C_2  and  C_3
REMARK    3  A    between atoms: N_10  and  C_11
REMARK    4  A    between atoms: C_11  and  C_12
REMARK    5  A    between atoms: C_15  and  C_16
REMARK    6  A    between atoms: C_16  and  N_17
REMARK    7  A    between atoms: C_18  and  C_20
REMARK                            x       y       z     vdW  Elec       q    Type
REMARK                         _______ _______ _______ _____ _____    ______ ____
ROOT
ATOM      1  C   UNL     1      44.953   4.748  11.613  0.00  0.00    +0.000 A 
ATOM      2  C   UNL     1      45.172   6.013  11.049  0.00  0.00    +0.000 A 
ATOM      3  C   UNL     1      45.939   6.975  11.717  0.00  0.00    +0.000 A 
ATOM      4  C   UNL     1      46.526   6.689  12.957  0.00  0.00    +0.000 A 
ATOM      5  C   UNL     1      46.287   5.435  13.534  0.00  0.00    +0.000 A 
ATOM      6  C   UNL     1      45.517   4.472  12.865  0.00  0.00    +0.000 A 
ENDROOT
BRANCH   1   7
ATOM      7  C   UNL     1      44.115   3.723  10.887  0.00  0.00    +0.000 C 
BRANCH   7  15
ATOM      8  C   UNL     1      46.951   2.203   7.281  0.00  0.00    +0.000 A 
ATOM      9  C   UNL     1      47.410   0.960   6.879  0.00  0.00    +0.000 A 
ATOM     10  C   UNL     1      46.657  -0.020   7.556  0.00  0.00    +0.000 A 
ATOM     11  C   UNL     1      45.768   0.644   8.369  0.00  0.00    +0.000 A 
ATOM     12  N   UNL     1      45.911   2.015   8.187  0.00  0.00    +0.000 N 
ATOM     13  C   UNL     1      45.093   3.007   8.774  0.00  0.00    +0.000 C 
ATOM     14  O   UNL     1      44.650   3.922   8.098  0.00  0.00    +0.000 OA
ATOM     15  N   UNL     1      44.906   2.785  10.122  0.00  0.00    +0.000 N 
ATOM     16  H   UNL     1      45.596   2.226  10.608  0.00  0.00    +0.000 HD
BRANCH   8  17
ATOM     17  C   UNL     1      47.492   3.546   6.940  0.00  0.00    +0.000 C 
BRANCH  17  18
ATOM     18  N   UNL     1      46.778   4.043   5.769  0.00  0.00    +0.000 NA
ATOM     19  H   UNL     1      47.459   4.410   5.106  0.00  0.00    +0.000 HD
ATOM     20  H   UNL     1      46.207   4.838   6.052  0.00  0.00    +0.000 HD
ENDBRANCH  17  18
ENDBRANCH   8  17
ENDBRANCH   7  15
ENDBRANCH   1   7
BRANCH   4  21
ATOM     21  C   UNL     1      47.396   7.708  13.653  0.00  0.00    +0.000 C 
BRANCH  21  22
ATOM     22  N   UNL     1      47.894   7.235  14.921  0.00  0.00    +0.000 N 
ATOM     23  C   UNL     1      49.239   7.026  15.111  0.00  0.00    +0.000 C 
ATOM     24  O   UNL     1      50.042   7.096  14.182  0.00  0.00    +0.000 OA
ATOM     25  H   UNL     1      47.285   7.341  15.726  0.00  0.00    +0.000 HD
BRANCH  23  26
ATOM     26  C   UNL     1      49.686   6.703  16.473  0.00  0.00    +0.000 A 
ATOM     27  C   UNL     1      50.597   7.532  17.117  0.00  0.00    +0.000 A 
ATOM     28  S   UNL     1      50.947   7.056  18.717  0.00  0.00    +0.000 S 
ATOM     29  C   UNL     1      49.857   5.752  18.622  0.00  0.00    +0.000 A 
ATOM     30  N   UNL     1      49.610   4.967  19.704  0.00  0.00    +0.000 NA
ATOM     31  C   UNL     1      48.753   4.025  19.492  0.00  0.00    +0.000 A 
ATOM     32  N   UNL     1      48.136   3.782  18.295  0.00  0.00    +0.000 N 
ATOM     33  C   UNL     1      48.385   4.519  17.162  0.00  0.00    +0.000 A 
ATOM     34  O   UNL     1      47.866   4.233  16.089  0.00  0.00    +0.000 OA
ATOM     35  C   UNL     1      49.296   5.635  17.362  0.00  0.00    +0.000 A 
ATOM     36  H   UNL     1      47.508   3.000  18.188  0.00  0.00    +0.000 HD
ENDBRANCH  23  26
ENDBRANCH  21  22
ENDBRANCH   4  21
TORSDOF 7
ENDMDL
MODEL 2
REMARK VINA RESULT:    -7.319      5.177      9.754
REMARK INTER + INTRA:         -11.344
REMARK INTER:                 -10.531
REMARK INTRA:                  -0.813
REMARK UNBOUND:                -1.244
REMARK  Name = 
REMARK  7 active torsions:
REMARK  status: ('A' for Active; 'I' for Inactive)
REMARK    1  A    between atoms: N_1  and  C_2
REMARK    2  A    between atoms: C_2  and  C_3
REMARK    3  A    between atoms: N_10  and  C_11
REMARK    4  A    between atoms: C_11  and  C_12
REMARK    5  A    between atoms: C_15  and  C_16
REMARK    6  A    between atoms: C_16  and  N_17
REMARK    7  A    between atoms: C_18  and  C_20
REMARK                            x       y       z     vdW  Elec       q    Type
REMARK                         _______ _______ _______ _____ _____    ______ ____
ROOT
ATOM      1  C   UNL     1      51.406   3.011  17.761  0.00  0.00    +0.000 A 
ATOM      2  C   UNL     1      50.672   1.987  17.147  0.00  0.00    +0.000 A 
ATOM      3  C   UNL     1      49.303   2.135  16.897  0.00  0.00    +0.000 A 
ATOM      4  C   UNL     1      48.636   3.320  17.235  0.00  0.00    +0.000 A 
ATOM      5  C   UNL     1      49.363   4.335  17.872  0.00  0.00    +0.000 A 
ATOM      6  C   UNL     1      50.734   4.185  18.123  0.00  0.00    +0.000 A 
ENDROOT
BRANCH   1   7
ATOM      7  C   UNL     1      52.881   2.836  18.035  0.00  0.00    +0.000 C 
BRANCH   7  15
ATOM      8  C   UNL     1      54.672  -1.653  18.082  0.00  0.00    +0.000 A 
ATOM      9  C   UNL     1      55.244  -2.469  17.120  0.00  0.00    +0.000 A 
ATOM     10  C   UNL     1      55.552  -1.670  16.001  0.00  0.00    +0.000 A 
ATOM     11  C   UNL     1      55.147  -0.389  16.296  0.00  0.00    +0.000 A 
ATOM     12  N   UNL     1      54.633  -0.352  17.587  0.00  0.00    +0.000 N 
ATOM     13  C   UNL     1      54.221   0.814  18.270  0.00  0.00    +0.000 C 
ATOM     14  O   UNL     1      54.572   1.014  19.422  0.00  0.00    +0.000 OA
ATOM     15  N   UNL     1      53.417   1.611  17.482  0.00  0.00    +0.000 N 
ATOM     16  H   UNL     1      52.926   1.172  16.714  0.00  0.00    +0.000 HD
BRANCH   8  17
ATOM     17  C   UNL     1      54.077  -2.038  19.389  0.00  0.00    +0.000 C 
BRANCH  17  18
ATOM     18  N   UNL     1      52.633  -2.154  19.218  0.00  0.00    +0.000 NA
ATOM     19  H   UNL     1      52.368  -3.129  19.353  0.00  0.00    +0.000 HD
ATOM     20  H   UNL     1      52.403  -1.934  18.250  0.00  0.00    +0.000 HD
ENDBRANCH  17  18
ENDBRANCH   8  17
ENDBRANCH   7  15
ENDBRANCH   1   7
BRANCH   4  21
ATOM     21  C   UNL     1      47.171   3.500  16.918  0.00  0.00    +0.000 C 
BRANCH  21  22
ATOM     22  N   UNL     1      46.937   4.559  15.967  0.00  0.00    +0.000 N 
ATOM     23  C   UNL     1      46.937   4.300  14.617  0.00  0.00    +0.000 C 
ATOM     24  O   UNL     1      47.270   3.205  14.168  0.00  0.00    +0.000 OA
ATOM     25  H   UNL     1      46.497   5.405  16.316  0.00  0.00    +0.000 HD
BRANCH  23  26
ATOM     26  C   UNL     1      46.530   5.392  13.721  0.00  0.00    +0.000 A 
ATOM     27  C   UNL     1      47.410   6.435  13.457  0.00  0.00    +0.000 A 
ATOM     28  S   UNL     1      46.809   7.573  12.338  0.00  0.00    +0.000 S 
ATOM     29  C   UNL     1      45.370   6.687  12.131  0.00  0.00    +0.000 A 
ATOM     30  N   UNL     1      44.434   7.076  11.225  0.00  0.00    +0.000 NA
ATOM     31  C   UNL     1      43.401   6.305  11.166  0.00  0.00    +0.000 A 
ATOM     32  N   UNL     1      43.207   5.193  11.940  0.00  0.00    +0.000 N 
ATOM     33  C   UNL     1      44.103   4.784  12.899  0.00  0.00    +0.000 A 
ATOM     34  O   UNL     1      43.867   3.823  13.622  0.00  0.00    +0.000 OA
ATOM     35  C   UNL     1      45.316   5.582  12.964  0.00  0.00    +0.000 A 
ATOM     36  H   UNL     1      42.354   4.660  11.871  0.00  0.00    +0.000 HD
ENDBRANCH  23  26
ENDBRANCH  21  22
ENDBRANCH   4  21
TORSDOF 7
ENDMDL
MODEL 3
REMARK VINA RESULT:    -7.213      3.721      8.742
REMARK INTER + INTRA:         -11.198
REMARK INTER:                 -10.218
REMARK INTRA:                  -0.980
REMARK UNBOUND:                -1.244
REMARK  Name = 
REMARK  7 active torsions:
REMARK  status: ('A' for Active; 'I' for Inactive)
REMARK    1  A    between atoms: N_1  and  C_2
REMARK    2  A    between atoms: C_2  and  C_3
REMARK    3  A    between atoms: N_10  and  C_11
REMARK    4  A    between atoms: C_11  and  C_12
REMARK    5  A    between atoms: C_15  and  C_16
REMARK    6  A    between atoms: C_16  and  N_17
REMARK    7  A    between atoms: C_18  and  C_20
REMARK                            x       y       z     vdW  Elec       q    Type
REMARK                         _______ _______ _______ _____ _____    ______ ____
ROOT
ATOM      1  C   UNL     1      50.450   7.258  15.730  0.00  0.00    +0.000 A 
ATOM      2  C   UNL     1      49.093   6.921  15.618  0.00  0.00    +0.000 A 
ATOM      3  C   UNL     1      48.374   7.211  14.453  0.00  0.00    +0.000 A 
ATOM      4  C   UNL     1      48.999   7.826  13.359  0.00  0.00    +0.000 A 
ATOM      5  C   UNL     1      50.348   8.185  13.478  0.00  0.00    +0.000 A 
ATOM      6  C   UNL     1      51.067   7.896  14.647  0.00  0.00    +0.000 A 
ENDROOT
BRANCH   1   7
ATOM      7  C   UNL     1      51.212   6.948  16.996  0.00  0.00    +0.000 C 
BRANCH   7  15
ATOM      8  C   UNL     1      50.962   2.154  17.555  0.00  0.00    +0.000 A 
ATOM      9  C   UNL     1      51.908   1.146  17.633  0.00  0.00    +0.000 A 
ATOM     10  C   UNL     1      53.168   1.747  17.827  0.00  0.00    +0.000 A 
ATOM     11  C   UNL     1      52.967   3.108  17.848  0.00  0.00    +0.000 A 
ATOM     12  N   UNL     1      51.609   3.376  17.715  0.00  0.00    +0.000 N 
ATOM     13  C   UNL     1      51.017   4.656  17.801  0.00  0.00    +0.000 C 
ATOM     14  O   UNL     1      50.018   4.832  18.479  0.00  0.00    +0.000 OA
ATOM     15  N   UNL     1      51.699   5.588  17.045  0.00  0.00    +0.000 N 
ATOM     16  H   UNL     1      52.264   5.248  16.277  0.00  0.00    +0.000 HD
BRANCH   8  17
ATOM     17  C   UNL     1      49.512   2.043  17.245  0.00  0.00    +0.000 C 
BRANCH  17  18
ATOM     18  N   UNL     1      49.368   1.781  15.817  0.00  0.00    +0.000 NA
ATOM     19  H   UNL     1      50.288   1.568  15.432  0.00  0.00    +0.000 HD
ATOM     20  H   UNL     1      49.066   2.639  15.359  0.00  0.00    +0.000 HD
ENDBRANCH  17  18
ENDBRANCH   8  17
ENDBRANCH   7  15
ENDBRANCH   1   7
BRANCH   4  21
ATOM     21  C   UNL     1      48.238   8.091  12.084  0.00  0.00    +0.000 C 
BRANCH  21  22
ATOM     22  N   UNL     1      47.537   6.924  11.605  0.00  0.00    +0.000 N 
ATOM     23  C   UNL     1      46.177   6.955  11.410  0.00  0.00    +0.000 C 
ATOM     24  O   UNL     1      45.494   7.915  11.764  0.00  0.00    +0.000 OA
ATOM     25  H   UNL     1      48.093   6.205  11.152  0.00  0.00    +0.000 HD
BRANCH  23  26
ATOM     26  C   UNL     1      45.561   5.786  10.767  0.00  0.00    +0.000 A 
ATOM     27  C   UNL     1      45.825   5.512   9.430  0.00  0.00    +0.000 A 
ATOM     28  S   UNL     1      45.095   4.078   8.866  0.00  0.00    +0.000 S 
ATOM     29  C   UNL     1      44.439   3.747  10.401  0.00  0.00    +0.000 A 
ATOM     30  N   UNL     1      43.752   2.597  10.635  0.00  0.00    +0.000 NA
ATOM     31  C   UNL     1      43.323   2.472  11.846  0.00  0.00    +0.000 A 
ATOM     32  N   UNL     1      43.498   3.398  12.839  0.00  0.00    +0.000 N 
ATOM     33  C   UNL     1      44.146   4.593  12.641  0.00  0.00    +0.000 A 
ATOM     34  O   UNL     1      44.227   5.430  13.534  0.00  0.00    +0.000 OA
ATOM     35  C   UNL     1      44.706   4.757  11.310  0.00  0.00    +0.000 A 
ATOM     36  H   UNL     1      43.097   3.254  13.753  0.00  0.00    +0.000 HD
ENDBRANCH  23  26
ENDBRANCH  21  22
ENDBRANCH   4  21
TORSDOF 7
ENDMDL
MODEL 4
REMARK VINA RESULT:    -6.980      5.160      9.622
REMARK INTER + INTRA:         -10.876
REMARK INTER:                  -9.890
REMARK INTRA:                  -0.987
REMARK UNBOUND:                -1.244
REMARK  Name = 
REMARK  7 active torsions:
REMARK  status: ('A' for Active; 'I' for Inactive)
REMARK    1  A    between atoms: N_1  and  C_2
REMARK    2  A    between atoms: C_2  and  C_3
REMARK    3  A    between atoms: N_10  and  C_11
REMARK    4  A    between atoms: C_11  and  C_12
REMARK    5  A    between atoms: C_15  and  C_16
REMARK    6  A    between atoms: C_16  and  N_17
REMARK    7  A    between atoms: C_18  and  C_20
REMARK                            x       y       z     vdW  Elec       q    Type
REMARK                         _______ _______ _______ _____ _____    ______ ____
ROOT
ATOM      1  C   UNL     1      51.481   2.956  17.748  0.00  0.00    +0.000 A 
ATOM      2  C   UNL     1      50.698   1.934  17.195  0.00  0.00    +0.000 A 
ATOM      3  C   UNL     1      49.345   2.144  16.902  0.00  0.00    +0.000 A 
ATOM      4  C   UNL     1      48.746   3.390  17.134  0.00  0.00    +0.000 A 
ATOM      5  C   UNL     1      49.522   4.405  17.710  0.00  0.00    +0.000 A 
ATOM      6  C   UNL     1      50.876   4.193  18.005  0.00  0.00    +0.000 A 
ENDROOT
BRANCH   1   7
ATOM      7  C   UNL     1      52.937   2.714  18.069  0.00  0.00    +0.000 C 
BRANCH   7  15
ATOM      8  C   UNL     1      54.591  -1.827  18.081  0.00  0.00    +0.000 A 
ATOM      9  C   UNL     1      55.149  -2.648  17.115  0.00  0.00    +0.000 A 
ATOM     10  C   UNL     1      55.494  -1.846  16.010  0.00  0.00    +0.000 A 
ATOM     11  C   UNL     1      55.125  -0.556  16.316  0.00  0.00    +0.000 A 
ATOM     12  N   UNL     1      54.597  -0.520  17.602  0.00  0.00    +0.000 N 
ATOM     13  C   UNL     1      54.212   0.650  18.295  0.00  0.00    +0.000 C 
ATOM     14  O   UNL     1      54.555   0.825  19.453  0.00  0.00    +0.000 OA
ATOM     15  N   UNL     1      53.442   1.481  17.508  0.00  0.00    +0.000 N 
ATOM     16  H   UNL     1      52.947   1.066  16.728  0.00  0.00    +0.000 HD
BRANCH   8  17
ATOM     17  C   UNL     1      53.968  -2.210  19.376  0.00  0.00    +0.000 C 
BRANCH  17  18
ATOM     18  N   UNL     1      52.533  -1.962  19.285  0.00  0.00    +0.000 NA
ATOM     19  H   UNL     1      52.220  -2.210  18.347  0.00  0.00    +0.000 HD
ATOM     20  H   UNL     1      52.372  -0.960  19.377  0.00  0.00    +0.000 HD
ENDBRANCH  17  18
ENDBRANCH   8  17
ENDBRANCH   7  15
ENDBRANCH   1   7
BRANCH   4  21
ATOM     21  C   UNL     1      47.302   3.633  16.770  0.00  0.00    +0.000 C 
BRANCH  21  22
ATOM     22  N   UNL     1      47.148   4.669  15.778  0.00  0.00    +0.000 N 
ATOM     23  C   UNL     1      47.036   4.352  14.446  0.00  0.00    +0.000 C 
ATOM     24  O   UNL     1      47.201   3.204  14.038  0.00  0.00    +0.000 OA
ATOM     25  H   UNL     1      46.839   5.580  16.105  0.00  0.00    +0.000 HD
BRANCH  23  26
ATOM     26  C   UNL     1      46.718   5.445  13.516  0.00  0.00    +0.000 A 
ATOM     27  C   UNL     1      45.580   5.369  12.722  0.00  0.00    +0.000 A 
ATOM     28  S   UNL     1      45.320   6.754  11.762  0.00  0.00    +0.000 S 
ATOM     29  C   UNL     1      46.693   7.525  12.409  0.00  0.00    +0.000 A 
ATOM     30  N   UNL     1      47.005   8.803  12.067  0.00  0.00    +0.000 NA
ATOM     31  C   UNL     1      48.064   9.264  12.643  0.00  0.00    +0.000 A 
ATOM     32  N   UNL     1      48.852   8.560  13.514  0.00  0.00    +0.000 N 
ATOM     33  C   UNL     1      48.603   7.253  13.857  0.00  0.00    +0.000 A 
ATOM     34  O   UNL     1      49.366   6.630  14.587  0.00  0.00    +0.000 OA
ATOM     35  C   UNL     1      47.384   6.705  13.285  0.00  0.00    +0.000 A 
ATOM     36  H   UNL     1      49.691   8.969  13.894  0.00  0.00    +0.000 HD
ENDBRANCH  23  26
ENDBRANCH  21  22
ENDBRANCH   4  21
TORSDOF 7
ENDMDL
MODEL 5
REMARK VINA RESULT:    -6.976      1.682      1.991
REMARK INTER + INTRA:         -10.870
REMARK INTER:                  -9.757
REMARK INTRA:                  -1.114
REMARK UNBOUND:                -1.244
REMARK  Name = 
REMARK  7 active torsions:
REMARK  status: ('A' for Active; 'I' for Inactive)
REMARK    1  A    between atoms: N_1  and  C_2
REMARK    2  A    between atoms: C_2  and  C_3
REMARK    3  A    between atoms: N_10  and  C_11
REMARK    4  A    between atoms: C_11  and  C_12
REMARK    5  A    between atoms: C_15  and  C_16
REMARK    6  A    between atoms: C_16  and  N_17
REMARK    7  A    between atoms: C_18  and  C_20
REMARK                            x       y       z     vdW  Elec       q    Type
REMARK                         _______ _______ _______ _____ _____    ______ ____
ROOT
ATOM      1  C   UNL     1      44.701   4.554  11.731  0.00  0.00    +0.000 A 
ATOM      2  C   UNL     1      44.336   5.859  11.372  0.00  0.00    +0.000 A 
ATOM      3  C   UNL     1      44.977   6.967  11.939  0.00  0.00    +0.000 A 
ATOM      4  C   UNL     1      46.016   6.798  12.864  0.00  0.00    +0.000 A 
ATOM      5  C   UNL     1      46.366   5.495  13.243  0.00  0.00    +0.000 A 
ATOM      6  C   UNL     1      45.722   4.386  12.675  0.00  0.00    +0.000 A 
ENDROOT
BRANCH   1   7
ATOM      7  C   UNL     1      43.995   3.368  11.119  0.00  0.00    +0.000 C 
BRANCH   7  15
ATOM      8  C   UNL     1      46.827   2.373   7.331  0.00  0.00    +0.000 A 
ATOM      9  C   UNL     1      47.412   1.215   6.847  0.00  0.00    +0.000 A 
ATOM     10  C   UNL     1      46.813   0.120   7.501  0.00  0.00    +0.000 A 
ATOM     11  C   UNL     1      45.888   0.633   8.381  0.00  0.00    +0.000 A 
ATOM     12  N   UNL     1      45.859   2.018   8.266  0.00  0.00    +0.000 N 
ATOM     13  C   UNL     1      44.956   2.876   8.934  0.00  0.00    +0.000 C 
ATOM     14  O   UNL     1      44.378   3.762   8.325  0.00  0.00    +0.000 OA
ATOM     15  N   UNL     1      44.857   2.570  10.276  0.00  0.00    +0.000 N 
ATOM     16  H   UNL     1      45.630   2.076  10.704  0.00  0.00    +0.000 HD
BRANCH   8  17
ATOM     17  C   UNL     1      47.189   3.786   7.040  0.00  0.00    +0.000 C 
BRANCH  17  18
ATOM     18  N   UNL     1      46.780   4.091   5.673  0.00  0.00    +0.000 NA
ATOM     19  H   UNL     1      47.401   4.808   5.301  0.00  0.00    +0.000 HD
ATOM     20  H   UNL     1      45.852   4.511   5.700  0.00  0.00    +0.000 HD
ENDBRANCH  17  18
ENDBRANCH   8  17
ENDBRANCH   7  15
ENDBRANCH   1   7
BRANCH   4  21
ATOM     21  C   UNL     1      46.743   7.990  13.437  0.00  0.00    +0.000 C 
BRANCH  21  22
ATOM     22  N   UNL     1      48.114   7.694  13.773  0.00  0.00    +0.000 N 
ATOM     23  C   UNL     1      48.901   8.634  14.394  0.00  0.00    +0.000 C 
ATOM     24  O   UNL     1      48.520   9.792  14.557  0.00  0.00    +0.000 OA
ATOM     25  H   UNL     1      48.381   6.715  13.806  0.00  0.00    +0.000 HD
BRANCH  23  26
ATOM     26  C   UNL     1      50.231   8.205  14.850  0.00  0.00    +0.000 A 
ATOM     27  C   UNL     1      51.352   8.955  14.516  0.00  0.00    +0.000 A 
ATOM     28  S   UNL     1      52.801   8.361  15.192  0.00  0.00    +0.000 S 
ATOM     29  C   UNL     1      51.974   7.107  15.993  0.00  0.00    +0.000 A 
ATOM     30  N   UNL     1      52.630   6.262  16.833  0.00  0.00    +0.000 NA
ATOM     31  C   UNL     1      51.876   5.369  17.381  0.00  0.00    +0.000 A 
ATOM     32  N   UNL     1      50.534   5.229  17.154  0.00  0.00    +0.000 N 
ATOM     33  C   UNL     1      49.836   6.030  16.282  0.00  0.00    +0.000 A 
ATOM     34  O   UNL     1      48.648   5.835  16.050  0.00  0.00    +0.000 OA
ATOM     35  C   UNL     1      50.624   7.095  15.685  0.00  0.00    +0.000 A 
ATOM     36  H   UNL     1      50.014   4.480  17.584  0.00  0.00    +0.000 HD
ENDBRANCH  23  26
ENDBRANCH  21  22
ENDBRANCH   4  21
TORSDOF 7
ENDMDL
MODEL 6
REMARK VINA RESULT:    -6.812      4.993      8.068
REMARK INTER + INTRA:         -10.644
REMARK INTER:                  -9.722
REMARK INTRA:                  -0.922
REMARK UNBOUND:                -1.244
REMARK  Name = 
REMARK  7 active torsions:
REMARK  status: ('A' for Active; 'I' for Inactive)
REMARK    1  A    between atoms: N_1  and  C_2
REMARK    2  A    between atoms: C_2  and  C_3
REMARK    3  A    between atoms: N_10  and  C_11
REMARK    4  A    between atoms: C_11  and  C_12
REMARK    5  A    between atoms: C_15  and  C_16
REMARK    6  A    between atoms: C_16  and  N_17
REMARK    7  A    between atoms: C_18  and  C_20
REMARK                            x       y       z     vdW  Elec       q    Type
REMARK                         _______ _______ _______ _____ _____    ______ ____
ROOT
ATOM      1  C   UNL     1      50.619   8.747  11.225  0.00  0.00    +0.000 A 
ATOM      2  C   UNL     1      49.819   9.878  11.444  0.00  0.00    +0.000 A 
ATOM      3  C   UNL     1      48.557   9.761  12.038  0.00  0.00    +0.000 A 
ATOM      4  C   UNL     1      48.071   8.513  12.451  0.00  0.00    +0.000 A 
ATOM      5  C   UNL     1      48.858   7.380  12.211  0.00  0.00    +0.000 A 
ATOM      6  C   UNL     1      50.122   7.496  11.614  0.00  0.00    +0.000 A 
ENDROOT
BRANCH   1   7
ATOM      7  C   UNL     1      51.974   8.884  10.574  0.00  0.00    +0.000 C 
BRANCH   7  15
ATOM      8  C   UNL     1      54.647   5.236   8.870  0.00  0.00    +0.000 A 
ATOM      9  C   UNL     1      54.547   4.406   7.766  0.00  0.00    +0.000 A 
ATOM     10  C   UNL     1      53.591   4.961   6.891  0.00  0.00    +0.000 A 
ATOM     11  C   UNL     1      53.118   6.108   7.486  0.00  0.00    +0.000 A 
ATOM     12  N   UNL     1      53.781   6.312   8.690  0.00  0.00    +0.000 N 
ATOM     13  C   UNL     1      53.635   7.444   9.523  0.00  0.00    +0.000 C 
ATOM     14  O   UNL     1      54.616   8.009   9.977  0.00  0.00    +0.000 OA
ATOM     15  N   UNL     1      52.308   7.765   9.722  0.00  0.00    +0.000 N 
ATOM     16  H   UNL     1      51.622   7.031   9.596  0.00  0.00    +0.000 HD
BRANCH   8  17
ATOM     17  C   UNL     1      55.431   5.030  10.117  0.00  0.00    +0.000 C 
BRANCH  17  18
ATOM     18  N   UNL     1      54.565   4.390  11.101  0.00  0.00    +0.000 NA
ATOM     19  H   UNL     1      53.614   4.373  10.734  0.00  0.00    +0.000 HD
ATOM     20  H   UNL     1      54.533   4.977  11.934  0.00  0.00    +0.000 HD
ENDBRANCH  17  18
ENDBRANCH   8  17
ENDBRANCH   7  15
ENDBRANCH   1   7
BRANCH   4  21
ATOM     21  C   UNL     1      46.733   8.395  13.139  0.00  0.00    +0.000 C 
BRANCH  21  22
ATOM     22  N   UNL     1      46.153   7.082  12.997  0.00  0.00    +0.000 N 
ATOM     23  C   UNL     1      45.196   6.840  12.040  0.00  0.00    +0.000 C 
ATOM     24  O   UNL     1      44.703   7.747  11.373  0.00  0.00    +0.000 OA
ATOM     25  H   UNL     1      46.661   6.304  13.405  0.00  0.00    +0.000 HD
BRANCH  23  26
ATOM     26  C   UNL     1      44.773   5.445  11.847  0.00  0.00    +0.000 A 
ATOM     27  C   UNL     1      44.108   4.777  12.867  0.00  0.00    +0.000 A 
ATOM     28  S   UNL     1      43.620   3.197  12.449  0.00  0.00    +0.000 S 
ATOM     29  C   UNL     1      44.238   3.368  10.872  0.00  0.00    +0.000 A 
ATOM     30  N   UNL     1      44.074   2.386   9.946  0.00  0.00    +0.000 NA
ATOM     31  C   UNL     1      44.582   2.656   8.791  0.00  0.00    +0.000 A 
ATOM     32  N   UNL     1      45.256   3.806   8.480  0.00  0.00    +0.000 N 
ATOM     33  C   UNL     1      45.486   4.807   9.393  0.00  0.00    +0.000 A 
ATOM     34  O   UNL     1      46.152   5.795   9.101  0.00  0.00    +0.000 OA
ATOM     35  C   UNL     1      44.879   4.583  10.694  0.00  0.00    +0.000 A 
ATOM     36  H   UNL     1      45.666   3.932   7.568  0.00  0.00    +0.000 HD
ENDBRANCH  23  26
ENDBRANCH  21  22
ENDBRANCH   4  21
TORSDOF 7
ENDMDL
MODEL 7
REMARK VINA RESULT:    -6.791      2.169      3.386
REMARK INTER + INTRA:         -10.616
REMARK INTER:                  -9.616
REMARK INTRA:                  -1.000
REMARK UNBOUND:                -1.244
REMARK  Name = 
REMARK  7 active torsions:
REMARK  status: ('A' for Active; 'I' for Inactive)
REMARK    1  A    between atoms: N_1  and  C_2
REMARK    2  A    between atoms: C_2  and  C_3
REMARK    3  A    between atoms: N_10  and  C_11
REMARK    4  A    between atoms: C_11  and  C_12
REMARK    5  A    between atoms: C_15  and  C_16
REMARK    6  A    between atoms: C_16  and  N_17
REMARK    7  A    between atoms: C_18  and  C_20
REMARK                            x       y       z     vdW  Elec       q    Type
REMARK                         _______ _______ _______ _____ _____    ______ ____
ROOT
ATOM      1  C   UNL     1      46.645   7.864  12.175  0.00  0.00    +0.000 A 
ATOM      2  C   UNL     1      46.856   8.356  13.471  0.00  0.00    +0.000 A 
ATOM      3  C   UNL     1      48.148   8.446  14.004  0.00  0.00    +0.000 A 
ATOM      4  C   UNL     1      49.264   8.068  13.246  0.00  0.00    +0.000 A 
ATOM      5  C   UNL     1      49.053   7.552  11.961  0.00  0.00    +0.000 A 
ATOM      6  C   UNL     1      47.759   7.460  11.428  0.00  0.00    +0.000 A 
ENDROOT
BRANCH   1   7
ATOM      7  C   UNL     1      45.247   7.762  11.616  0.00  0.00    +0.000 C 
BRANCH   7  15
ATOM      8  C   UNL     1      44.218   3.251  10.218  0.00  0.00    +0.000 A 
ATOM      9  C   UNL     1      44.370   2.556   9.030  0.00  0.00    +0.000 A 
ATOM     10  C   UNL     1      45.223   3.304   8.195  0.00  0.00    +0.000 A 
ATOM     11  C   UNL     1      45.561   4.447   8.883  0.00  0.00    +0.000 A 
ATOM     12  N   UNL     1      44.978   4.416  10.145  0.00  0.00    +0.000 N 
ATOM     13  C   UNL     1      45.190   5.368  11.168  0.00  0.00    +0.000 C 
ATOM     14  O   UNL     1      45.427   5.007  12.309  0.00  0.00    +0.000 OA
ATOM     15  N   UNL     1      45.085   6.659  10.695  0.00  0.00    +0.000 N 
ATOM     16  H   UNL     1      44.547   6.809   9.850  0.00  0.00    +0.000 HD
BRANCH   8  17
ATOM     17  C   UNL     1      43.332   2.936  11.370  0.00  0.00    +0.000 C 
BRANCH  17  18
ATOM     18  N   UNL     1      44.152   2.371  12.437  0.00  0.00    +0.000 NA
ATOM     19  H   UNL     1      45.090   2.208  12.073  0.00  0.00    +0.000 HD
ATOM     20  H   UNL     1      43.781   1.453  12.678  0.00  0.00    +0.000 HD
ENDBRANCH  17  18
ENDBRANCH   8  17
ENDBRANCH   7  15
ENDBRANCH   1   7
BRANCH   4  21
ATOM     21  C   UNL     1      50.660   8.214  13.801  0.00  0.00    +0.000 C 
BRANCH  21  22
ATOM     22  N   UNL     1      50.868   7.422  14.989  0.00  0.00    +0.000 N 
ATOM     23  C   UNL     1      50.800   7.998  16.235  0.00  0.00    +0.000 C 
ATOM     24  O   UNL     1      50.702   9.215  16.381  0.00  0.00    +0.000 OA
ATOM     25  H   UNL     1      50.775   6.415  14.896  0.00  0.00    +0.000 HD
BRANCH  23  26
ATOM     26  C   UNL     1      50.860   7.101  17.397  0.00  0.00    +0.000 A 
ATOM     27  C   UNL     1      51.775   7.346  18.415  0.00  0.00    +0.000 A 
ATOM     28  S   UNL     1      51.656   6.257  19.722  0.00  0.00    +0.000 S 
ATOM     29  C   UNL     1      50.346   5.448  18.996  0.00  0.00    +0.000 A 
ATOM     30  N   UNL     1      49.701   4.440  19.642  0.00  0.00    +0.000 NA
ATOM     31  C   UNL     1      48.720   3.927  18.979  0.00  0.00    +0.000 A 
ATOM     32  N   UNL     1      48.335   4.313  17.723  0.00  0.00    +0.000 N 
ATOM     33  C   UNL     1      48.982   5.295  17.013  0.00  0.00    +0.000 A 
ATOM     34  O   UNL     1      48.654   5.569  15.863  0.00  0.00    +0.000 OA
ATOM     35  C   UNL     1      50.056   5.951  17.739  0.00  0.00    +0.000 A 
ATOM     36  H   UNL     1      47.585   3.837  17.246  0.00  0.00    +0.000 HD
ENDBRANCH  23  26
ENDBRANCH  21  22
ENDBRANCH   4  21
TORSDOF 7
ENDMDL
MODEL 8
REMARK VINA RESULT:    -6.576      2.941      4.634
REMARK INTER + INTRA:         -10.318
REMARK INTER:                  -9.208
REMARK INTRA:                  -1.111
REMARK UNBOUND:                -1.244
REMARK  Name = 
REMARK  7 active torsions:
REMARK  status: ('A' for Active; 'I' for Inactive)
REMARK    1  A    between atoms: N_1  and  C_2
REMARK    2  A    between atoms: C_2  and  C_3
REMARK    3  A    between atoms: N_10  and  C_11
REMARK    4  A    between atoms: C_11  and  C_12
REMARK    5  A    between atoms: C_15  and  C_16
REMARK    6  A    between atoms: C_16  and  N_17
REMARK    7  A    between atoms: C_18  and  C_20
REMARK                            x       y       z     vdW  Elec       q    Type
REMARK                         _______ _______ _______ _____ _____    ______ ____
ROOT
ATOM      1  C   UNL     1      48.606   7.156  13.136  0.00  0.00    +0.000 A 
ATOM      2  C   UNL     1      48.254   6.662  14.400  0.00  0.00    +0.000 A 
ATOM      3  C   UNL     1      49.088   6.860  15.507  0.00  0.00    +0.000 A 
ATOM      4  C   UNL     1      50.285   7.579  15.383  0.00  0.00    +0.000 A 
ATOM      5  C   UNL     1      50.650   8.053  14.116  0.00  0.00    +0.000 A 
ATOM      6  C   UNL     1      49.815   7.852  13.007  0.00  0.00    +0.000 A 
ENDROOT
BRANCH   1   7
ATOM      7  C   UNL     1      47.703   6.927  11.948  0.00  0.00    +0.000 C 
BRANCH   7  15
ATOM      8  C   UNL     1      44.431   3.569  10.772  0.00  0.00    +0.000 A 
ATOM      9  C   UNL     1      43.534   2.807  11.501  0.00  0.00    +0.000 A 
ATOM     10  C   UNL     1      43.449   3.356  12.796  0.00  0.00    +0.000 A 
ATOM     11  C   UNL     1      44.307   4.430  12.836  0.00  0.00    +0.000 A 
ATOM     12  N   UNL     1      44.896   4.598  11.588  0.00  0.00    +0.000 N 
ATOM     13  C   UNL     1      45.750   5.663  11.223  0.00  0.00    +0.000 C 
ATOM     14  O   UNL     1      45.582   6.258  10.171  0.00  0.00    +0.000 OA
ATOM     15  N   UNL     1      46.724   5.887  12.174  0.00  0.00    +0.000 N 
ATOM     16  H   UNL     1      46.965   5.122  12.791  0.00  0.00    +0.000 HD
BRANCH   8  17
ATOM     17  C   UNL     1      44.947   3.333   9.398  0.00  0.00    +0.000 C 
BRANCH  17  18
ATOM     18  N   UNL     1      44.155   4.132   8.468  0.00  0.00    +0.000 NA
ATOM     19  H   UNL     1      43.322   4.463   8.954  0.00  0.00    +0.000 HD
ATOM     20  H   UNL     1      43.820   3.523   7.723  0.00  0.00    +0.000 HD
ENDBRANCH  17  18
ENDBRANCH   8  17
ENDBRANCH   7  15
ENDBRANCH   1   7
BRANCH   4  21
ATOM     21  C   UNL     1      51.157   7.838  16.587  0.00  0.00    +0.000 C 
BRANCH  21  22
ATOM     22  N   UNL     1      51.989   6.708  16.921  0.00  0.00    +0.000 N 
ATOM     23  C   UNL     1      51.712   5.937  18.025  0.00  0.00    +0.000 C 
ATOM     24  O   UNL     1      50.847   6.257  18.837  0.00  0.00    +0.000 OA
ATOM     25  H   UNL     1      52.580   6.335  16.184  0.00  0.00    +0.000 HD
BRANCH  23  26
ATOM     26  C   UNL     1      52.502   4.711  18.206  0.00  0.00    +0.000 A 
ATOM     27  C   UNL     1      53.777   4.784  18.756  0.00  0.00    +0.000 A 
ATOM     28  S   UNL     1      54.520   3.264  18.969  0.00  0.00    +0.000 S 
ATOM     29  C   UNL     1      53.146   2.451  18.379  0.00  0.00    +0.000 A 
ATOM     30  N   UNL     1      53.086   1.093  18.371  0.00  0.00    +0.000 NA
ATOM     31  C   UNL     1      51.981   0.613  17.909  0.00  0.00    +0.000 A 
ATOM     32  N   UNL     1      50.938   1.362  17.436  0.00  0.00    +0.000 N 
ATOM     33  C   UNL     1      50.968   2.735  17.383  0.00  0.00    +0.000 A 
ATOM     34  O   UNL     1      50.044   3.373  16.890  0.00  0.00    +0.000 OA
ATOM     35  C   UNL     1      52.166   3.331  17.951  0.00  0.00    +0.000 A 
ATOM     36  H   UNL     1      50.120   0.919  17.048  0.00  0.00    +0.000 HD
ENDBRANCH  23  26
ENDBRANCH  21  22
ENDBRANCH   4  21
TORSDOF 7
ENDMDL
MODEL 9
REMARK VINA RESULT:    -6.382      5.497      7.859
REMARK INTER + INTRA:         -10.051
REMARK INTER:                  -9.192
REMARK INTRA:                  -0.859
REMARK UNBOUND:                -1.244
REMARK  Name = 
REMARK  7 active torsions:
REMARK  status: ('A' for Active; 'I' for Inactive)
REMARK    1  A    between atoms: N_1  and  C_2
REMARK    2  A    between atoms: C_2  and  C_3
REMARK    3  A    between atoms: N_10  and  C_11
REMARK    4  A    between atoms: C_11  and  C_12
REMARK    5  A    between atoms: C_15  and  C_16
REMARK    6  A    between atoms: C_16  and  N_17
REMARK    7  A    between atoms: C_18  and  C_20
REMARK                            x       y       z     vdW  Elec       q    Type
REMARK                         _______ _______ _______ _____ _____    ______ ____
ROOT
ATOM      1  C   UNL     1      47.746   8.345  12.101  0.00  0.00    +0.000 A 
ATOM      2  C   UNL     1      47.903   9.729  11.939  0.00  0.00    +0.000 A 
ATOM      3  C   UNL     1      49.154  10.280  11.640  0.00  0.00    +0.000 A 
ATOM      4  C   UNL     1      50.278   9.459  11.472  0.00  0.00    +0.000 A 
ATOM      5  C   UNL     1      50.128   8.079  11.659  0.00  0.00    +0.000 A 
ATOM      6  C   UNL     1      48.874   7.527  11.961  0.00  0.00    +0.000 A 
ENDROOT
BRANCH   1   7
ATOM      7  C   UNL     1      46.393   7.764  12.434  0.00  0.00    +0.000 C 
BRANCH   7  15
ATOM      8  C   UNL     1      44.346   3.782  10.613  0.00  0.00    +0.000 A 
ATOM      9  C   UNL     1      44.184   3.287   9.330  0.00  0.00    +0.000 A 
ATOM     10  C   UNL     1      45.023   4.023   8.471  0.00  0.00    +0.000 A 
ATOM     11  C   UNL     1      45.667   4.962   9.243  0.00  0.00    +0.000 A 
ATOM     12  N   UNL     1      45.288   4.807  10.572  0.00  0.00    +0.000 N 
ATOM     13  C   UNL     1      45.827   5.522  11.665  0.00  0.00    +0.000 C 
ATOM     14  O   UNL     1      46.164   4.937  12.682  0.00  0.00    +0.000 OA
ATOM     15  N   UNL     1      45.891   6.876  11.409  0.00  0.00    +0.000 N 
ATOM     16  H   UNL     1      45.268   7.253  10.706  0.00  0.00    +0.000 HD
BRANCH   8  17
ATOM     17  C   UNL     1      43.603   3.417  11.849  0.00  0.00    +0.000 C 
BRANCH  17  18
ATOM     18  N   UNL     1      43.038   2.085  11.666  0.00  0.00    +0.000 NA
ATOM     19  H   UNL     1      42.048   2.181  11.442  0.00  0.00    +0.000 HD
ATOM     20  H   UNL     1      43.077   1.592  12.557  0.00  0.00    +0.000 HD
ENDBRANCH  17  18
ENDBRANCH   8  17
ENDBRANCH   7  15
ENDBRANCH   1   7
BRANCH   4  21
ATOM     21  C   UNL     1      51.616  10.049  11.098  0.00  0.00    +0.000 C 
BRANCH  21  22
ATOM     22  N   UNL     1      52.089   9.578   9.819  0.00  0.00    +0.000 N 
ATOM     23  C   UNL     1      53.273   8.886   9.722  0.00  0.00    +0.000 C 
ATOM     24  O   UNL     1      54.032   8.766  10.682  0.00  0.00    +0.000 OA
ATOM     25  H   UNL     1      51.408   9.515   9.069  0.00  0.00    +0.000 HD
BRANCH  23  26
ATOM     26  C   UNL     1      53.606   8.299   8.417  0.00  0.00    +0.000 A 
ATOM     27  C   UNL     1      53.845   9.127   7.327  0.00  0.00    +0.000 A 
ATOM     28  S   UNL     1      54.295   8.287   5.912  0.00  0.00    +0.000 S 
ATOM     29  C   UNL     1      54.232   6.790   6.720  0.00  0.00    +0.000 A 
ATOM     30  N   UNL     1      54.594   5.640   6.090  0.00  0.00    +0.000 NA
ATOM     31  C   UNL     1      54.509   4.583   6.826  0.00  0.00    +0.000 A 
ATOM     32  N   UNL     1      54.078   4.565   8.125  0.00  0.00    +0.000 N 
ATOM     33  C   UNL     1      53.661   5.693   8.790  0.00  0.00    +0.000 A 
ATOM     34  O   UNL     1      53.216   5.631   9.931  0.00  0.00    +0.000 OA
ATOM     35  C   UNL     1      53.796   6.922   8.027  0.00  0.00    +0.000 A 
ATOM     36  H   UNL     1      53.996   3.695   8.628  0.00  0.00    +0.000 HD
ENDBRANCH  23  26
ENDBRANCH  21  22
ENDBRANCH   4  21
TORSDOF 7
ENDMDL
