MODEL 1
REMARK VINA RESULT:    -8.154      0.000      0.000
REMARK INTER + INTRA:         -12.284
REMARK INTER:                 -11.253
REMARK INTRA:                  -1.031
REMARK UNBOUND:                -1.031
REMARK  Name = 
REMARK  7 active torsions:
REMARK  status: ('A' for Active; 'I' for Inactive)
REMARK    1  A    between atoms: C_2  and  C_20
REMARK    2  A    between atoms: N_3  and  C_4
REMARK    3  A    between atoms: C_4  and  C_5
REMARK    4  A    between atoms: C_8  and  C_9
REMARK    5  A    between atoms: C_9  and  C_10
REMARK    6  A    between atoms: C_10  and  O_11
REMARK    7  A    between atoms: C_10  and  C_12
REMARK                            x       y       z     vdW  Elec       q    Type
REMARK                         _______ _______ _______ _____ _____    ______ ____
ROOT
ATOM      1  C   UNL     1      46.793   8.062  13.295  0.00  0.00    +0.000 C 
ENDROOT
BRANCH   1   2
ATOM      2  C   UNL     1      46.116   7.053  12.402  0.00  0.00    +0.000 A 
ATOM      3  C   UNL     1      46.637   6.781  11.141  0.00  0.00    +0.000 A 
ATOM      4  C   UNL     1      45.993   5.852  10.331  0.00  0.00    +0.000 A 
ATOM      5  C   UNL     1      44.834   5.217  10.786  0.00  0.00    +0.000 A 
ATOM      6  C   UNL     1      44.378   5.565  12.053  0.00  0.00    +0.000 A 
ATOM      7  N   UNL     1      44.984   6.462  12.864  0.00  0.00    +0.000 NA
BRANCH   5   8
ATOM      8  C   UNL     1      44.137   4.176   9.946  0.00  0.00    +0.000 C 
BRANCH   8   9
ATOM      9  C   UNL     1      44.834   2.803   9.933  0.00  0.00    +0.000 C 
BRANCH   9  10
ATOM     10  C   UNL     1      45.590   2.603   8.637  0.00  0.00    +0.000 A 
ATOM     11  C   UNL     1      45.668   3.616   7.686  0.00  0.00    +0.000 A 
ATOM     12  N   UNL     1      46.348   3.481   6.522  0.00  0.00    +0.000 NA
ATOM     13  C   UNL     1      46.964   2.292   6.346  0.00  0.00    +0.000 A 
ATOM     14  C   UNL     1      46.905   1.282   7.288  0.00  0.00    +0.000 A 
ATOM     15  N   UNL     1      46.231   1.413   8.454  0.00  0.00    +0.000 NA
ENDBRANCH   9  10
BRANCH   9  16
ATOM     16  O   UNL     1      43.850   1.768  10.043  0.00  0.00    +0.000 OA
ATOM     17  H   UNL     1      43.905   1.445  10.963  0.00  0.00    +0.000 HD
ENDBRANCH   9  16
ENDBRANCH   8   9
ENDBRANCH   5   8
ENDBRANCH   1   2
BRANCH   1  20
ATOM     18  O   UNL     1      49.356   6.867  13.504  0.00  0.00    +0.000 OA
ATOM     19  C   UNL     1      48.604   6.857  14.475  0.00  0.00    +0.000 C 
ATOM     20  N   UNL     1      47.370   7.447  14.465  0.00  0.00    +0.000 N 
ATOM     21  H   UNL     1      46.790   7.440  15.292  0.00  0.00    +0.000 HD
BRANCH  19  22
ATOM     22  C   UNL     1      48.993   6.256  15.752  0.00  0.00    +0.000 A 
ATOM     23  C   UNL     1      50.059   6.764  16.479  0.00  0.00    +0.000 A 
ATOM     24  S   UNL     1      50.299   5.968  17.970  0.00  0.00    +0.000 S 
ATOM     25  C   UNL     1      49.017   4.890  17.668  0.00  0.00    +0.000 A 
ATOM     26  N   UNL     1      48.672   3.934  18.573  0.00  0.00    +0.000 NA
ATOM     27  C   UNL     1      47.698   3.173  18.198  0.00  0.00    +0.000 A 
ATOM     28  N   UNL     1      47.048   3.269  16.994  0.00  0.00    +0.000 N 
ATOM     29  C   UNL     1      47.361   4.216  16.049  0.00  0.00    +0.000 A 
ATOM     30  O   UNL     1      46.752   4.272  14.987  0.00  0.00    +0.000 OA
ATOM     31  C   UNL     1      48.426   5.121  16.440  0.00  0.00    +0.000 A 
ATOM     32  H   UNL     1      46.300   2.636  16.755  0.00  0.00    +0.000 HD
ENDBRANCH  19  22
ENDBRANCH   1  20
TORSDOF 7
ENDMDL
MODEL 2
REMARK VINA RESULT:    -7.716      2.583      3.715
REMARK INTER + INTRA:         -11.680
REMARK INTER:                 -10.786
REMARK INTRA:                  -0.893
REMARK UNBOUND:                -1.031
REMARK  Name = 
REMARK  7 active torsions:
REMARK  status: ('A' for Active; 'I' for Inactive)
REMARK    1  A    between atoms: C_2  and  C_20
REMARK    2  A    between atoms: N_3  and  C_4
REMARK    3  A    between atoms: C_4  and  C_5
REMARK    4  A    between atoms: C_8  and  C_9
REMARK    5  A    between atoms: C_9  and  C_10
REMARK    6  A    between atoms: C_10  and  O_11
REMARK    7  A    between atoms: C_10  and  C_12
REMARK                            x       y       z     vdW  Elec       q    Type
REMARK                         _______ _______ _______ _____ _____    ______ ____
ROOT
ATOM      1  C   UNL     1      47.480   4.055  15.673  0.00  0.00    +0.000 C 
ENDROOT
BRANCH   1   2
ATOM      2  C   UNL     1      46.925   4.438  14.324  0.00  0.00    +0.000 A 
ATOM      3  C   UNL     1      47.170   5.706  13.806  0.00  0.00    +0.000 A 
ATOM      4  C   UNL     1      46.643   6.040  12.563  0.00  0.00    +0.000 A 
ATOM      5  C   UNL     1      45.871   5.110  11.863  0.00  0.00    +0.000 A 
ATOM      6  C   UNL     1      45.665   3.875  12.467  0.00  0.00    +0.000 A 
ATOM      7  N   UNL     1      46.167   3.520  13.672  0.00  0.00    +0.000 NA
BRANCH   5   8
ATOM      8  C   UNL     1      45.320   5.431  10.495  0.00  0.00    +0.000 C 
BRANCH   8   9
ATOM      9  C   UNL     1      44.534   4.278   9.842  0.00  0.00    +0.000 C 
BRANCH   9  10
ATOM     10  C   UNL     1      45.412   3.521   8.869  0.00  0.00    +0.000 A 
ATOM     11  C   UNL     1      45.544   2.138   8.946  0.00  0.00    +0.000 A 
ATOM     12  N   UNL     1      46.308   1.423   8.084  0.00  0.00    +0.000 NA
ATOM     13  C   UNL     1      46.928   2.144   7.126  0.00  0.00    +0.000 A 
ATOM     14  C   UNL     1      46.795   3.517   7.030  0.00  0.00    +0.000 A 
ATOM     15  N   UNL     1      46.031   4.235   7.886  0.00  0.00    +0.000 NA
ENDBRANCH   9  10
BRANCH   9  16
ATOM     16  O   UNL     1      43.418   4.810   9.121  0.00  0.00    +0.000 OA
ATOM     17  H   UNL     1      42.826   5.196   9.794  0.00  0.00    +0.000 HD
ENDBRANCH   9  16
ENDBRANCH   8   9
ENDBRANCH   5   8
ENDBRANCH   1   2
BRANCH   1  20
ATOM     18  O   UNL     1      49.708   5.529  16.625  0.00  0.00    +0.000 OA
ATOM     19  C   UNL     1      48.585   5.798  17.040  0.00  0.00    +0.000 C 
ATOM     20  N   UNL     1      47.457   5.161  16.600  0.00  0.00    +0.000 N 
ATOM     21  H   UNL     1      46.547   5.428  16.947  0.00  0.00    +0.000 HD
BRANCH  19  22
ATOM     22  C   UNL     1      48.352   6.872  18.008  0.00  0.00    +0.000 A 
ATOM     23  C   UNL     1      48.216   6.590  19.359  0.00  0.00    +0.000 A 
ATOM     24  S   UNL     1      48.025   7.986  20.324  0.00  0.00    +0.000 S 
ATOM     25  C   UNL     1      48.072   9.005  18.961  0.00  0.00    +0.000 A 
ATOM     26  N   UNL     1      47.974  10.356  19.088  0.00  0.00    +0.000 NA
ATOM     27  C   UNL     1      47.999  10.999  17.968  0.00  0.00    +0.000 A 
ATOM     28  N   UNL     1      48.097  10.414  16.732  0.00  0.00    +0.000 N 
ATOM     29  C   UNL     1      48.198   9.056  16.553  0.00  0.00    +0.000 A 
ATOM     30  O   UNL     1      48.289   8.572  15.431  0.00  0.00    +0.000 OA
ATOM     31  C   UNL     1      48.212   8.290  17.786  0.00  0.00    +0.000 A 
ATOM     32  H   UNL     1      48.101  10.972  15.891  0.00  0.00    +0.000 HD
ENDBRANCH  19  22
ENDBRANCH   1  20
TORSDOF 7
ENDMDL
MODEL 3
REMARK VINA RESULT:    -7.675      2.590      3.280
REMARK INTER + INTRA:         -11.623
REMARK INTER:                 -10.642
REMARK INTRA:                  -0.981
REMARK UNBOUND:                -1.031
REMARK  Name = 
REMARK  7 active torsions:
REMARK  status: ('A' for Active; 'I' for Inactive)
REMARK    1  A    between atoms: C_2  and  C_20
REMARK    2  A    between atoms: N_3  and  C_4
REMARK    3  A    between atoms: C_4  and  C_5
REMARK    4  A    between atoms: C_8  and  C_9
REMARK    5  A    between atoms: C_9  and  C_10
REMARK    6  A    between atoms: C_10  and  O_11
REMARK    7  A    between atoms: C_10  and  C_12
REMARK                            x       y       z     vdW  Elec       q    Type
REMARK                         _______ _______ _______ _____ _____    ______ ____
ROOT
ATOM      1  C   UNL     1      47.221   4.296  15.559  0.00  0.00    +0.000 C 
ENDROOT
BRANCH   1   2
ATOM      2  C   UNL     1      46.741   4.605  14.163  0.00  0.00    +0.000 A 
ATOM      3  C   UNL     1      47.161   5.768  13.526  0.00  0.00    +0.000 A 
ATOM      4  C   UNL     1      46.701   6.037  12.241  0.00  0.00    +0.000 A 
ATOM      5  C   UNL     1      45.821   5.148  11.618  0.00  0.00    +0.000 A 
ATOM      6  C   UNL     1      45.443   4.021  12.339  0.00  0.00    +0.000 A 
ATOM      7  N   UNL     1      45.876   3.732  13.587  0.00  0.00    +0.000 NA
BRANCH   5   8
ATOM      8  C   UNL     1      45.336   5.393  10.210  0.00  0.00    +0.000 C 
BRANCH   8   9
ATOM      9  C   UNL     1      44.555   4.218   9.595  0.00  0.00    +0.000 C 
BRANCH   9  10
ATOM     10  C   UNL     1      45.467   3.363   8.740  0.00  0.00    +0.000 A 
ATOM     11  C   UNL     1      45.526   1.983   8.910  0.00  0.00    +0.000 A 
ATOM     12  N   UNL     1      46.317   1.182   8.155  0.00  0.00    +0.000 NA
ATOM     13  C   UNL     1      47.042   1.814   7.207  0.00  0.00    +0.000 A 
ATOM     14  C   UNL     1      46.982   3.182   7.018  0.00  0.00    +0.000 A 
ATOM     15  N   UNL     1      46.191   3.986   7.767  0.00  0.00    +0.000 NA
ENDBRANCH   9  10
BRANCH   9  16
ATOM     16  O   UNL     1      43.505   4.725   8.764  0.00  0.00    +0.000 OA
ATOM     17  H   UNL     1      42.757   4.108   8.874  0.00  0.00    +0.000 HD
ENDBRANCH   9  16
ENDBRANCH   8   9
ENDBRANCH   5   8
ENDBRANCH   1   2
BRANCH   1  20
ATOM     18  O   UNL     1      49.778   4.441  16.777  0.00  0.00    +0.000 OA
ATOM     19  C   UNL     1      49.046   5.426  16.792  0.00  0.00    +0.000 C 
ATOM     20  N   UNL     1      47.816   5.448  16.193  0.00  0.00    +0.000 N 
ATOM     21  H   UNL     1      47.253   6.286  16.205  0.00  0.00    +0.000 HD
BRANCH  19  22
ATOM     22  C   UNL     1      49.455   6.688  17.412  0.00  0.00    +0.000 A 
ATOM     23  C   UNL     1      50.573   7.371  16.958  0.00  0.00    +0.000 A 
ATOM     24  S   UNL     1      50.833   8.853  17.764  0.00  0.00    +0.000 S 
ATOM     25  C   UNL     1      49.487   8.605  18.776  0.00  0.00    +0.000 A 
ATOM     26  N   UNL     1      49.130   9.526  19.712  0.00  0.00    +0.000 NA
ATOM     27  C   UNL     1      48.105   9.192  20.424  0.00  0.00    +0.000 A 
ATOM     28  N   UNL     1      47.413   8.016  20.295  0.00  0.00    +0.000 N 
ATOM     29  C   UNL     1      47.735   7.056  19.366  0.00  0.00    +0.000 A 
ATOM     30  O   UNL     1      47.088   6.020  19.280  0.00  0.00    +0.000 OA
ATOM     31  C   UNL     1      48.860   7.401  18.516  0.00  0.00    +0.000 A 
ATOM     32  H   UNL     1      46.624   7.808  20.890  0.00  0.00    +0.000 HD
ENDBRANCH  19  22
ENDBRANCH   1  20
TORSDOF 7
ENDMDL
MODEL 4
REMARK VINA RESULT:    -7.359      1.097      1.174
REMARK INTER + INTRA:         -11.187
REMARK INTER:                 -10.582
REMARK INTRA:                  -0.605
REMARK UNBOUND:                -1.031
REMARK  Name = 
REMARK  7 active torsions:
REMARK  status: ('A' for Active; 'I' for Inactive)
REMARK    1  A    between atoms: C_2  and  C_20
REMARK    2  A    between atoms: N_3  and  C_4
REMARK    3  A    between atoms: C_4  and  C_5
REMARK    4  A    between atoms: C_8  and  C_9
REMARK    5  A    between atoms: C_9  and  C_10
REMARK    6  A    between atoms: C_10  and  O_11
REMARK    7  A    between atoms: C_10  and  C_12
REMARK                            x       y       z     vdW  Elec       q    Type
REMARK                         _______ _______ _______ _____ _____    ______ ____
ROOT
ATOM      1  C   UNL     1      47.254   8.418  13.553  0.00  0.00    +0.000 C 
ENDROOT
BRANCH   1   2
ATOM      2  C   UNL     1      46.313   7.442  12.893  0.00  0.00    +0.000 A 
ATOM      3  C   UNL     1      45.330   7.904  12.024  0.00  0.00    +0.000 A 
ATOM      4  C   UNL     1      44.468   6.987  11.431  0.00  0.00    +0.000 A 
ATOM      5  C   UNL     1      44.594   5.626  11.722  0.00  0.00    +0.000 A 
ATOM      6  C   UNL     1      45.595   5.259  12.615  0.00  0.00    +0.000 A 
ATOM      7  N   UNL     1      46.449   6.127  13.204  0.00  0.00    +0.000 NA
BRANCH   5   8
ATOM      8  C   UNL     1      43.700   4.604  11.063  0.00  0.00    +0.000 C 
BRANCH   8   9
ATOM      9  C   UNL     1      44.337   3.211  10.907  0.00  0.00    +0.000 C 
BRANCH   9  10
ATOM     10  C   UNL     1      45.046   3.097   9.575  0.00  0.00    +0.000 A 
ATOM     11  C   UNL     1      45.270   4.218   8.781  0.00  0.00    +0.000 A 
ATOM     12  N   UNL     1      45.914   4.159   7.590  0.00  0.00    +0.000 NA
ATOM     13  C   UNL     1      46.342   2.932   7.224  0.00  0.00    +0.000 A 
ATOM     14  C   UNL     1      46.138   1.812   8.010  0.00  0.00    +0.000 A 
ATOM     15  N   UNL     1      45.499   1.866   9.201  0.00  0.00    +0.000 NA
ENDBRANCH   9  10
BRANCH   9  16
ATOM     16  O   UNL     1      43.315   2.210  10.960  0.00  0.00    +0.000 OA
ATOM     17  H   UNL     1      43.511   1.671  11.749  0.00  0.00    +0.000 HD
ENDBRANCH   9  16
ENDBRANCH   8   9
ENDBRANCH   5   8
ENDBRANCH   1   2
BRANCH   1  20
ATOM     18  O   UNL     1      49.619   6.941  14.062  0.00  0.00    +0.000 OA
ATOM     19  C   UNL     1      48.858   7.198  14.989  0.00  0.00    +0.000 C 
ATOM     20  N   UNL     1      47.719   7.939  14.832  0.00  0.00    +0.000 N 
ATOM     21  H   UNL     1      47.130   8.152  15.624  0.00  0.00    +0.000 HD
BRANCH  19  22
ATOM     22  C   UNL     1      49.137   6.776  16.364  0.00  0.00    +0.000 A 
ATOM     23  C   UNL     1      49.826   7.607  17.234  0.00  0.00    +0.000 A 
ATOM     24  S   UNL     1      49.982   6.959  18.806  0.00  0.00    +0.000 S 
ATOM     25  C   UNL     1      49.174   5.529  18.358  0.00  0.00    +0.000 A 
ATOM     26  N   UNL     1      48.953   4.533  19.260  0.00  0.00    +0.000 NA
ATOM     27  C   UNL     1      48.353   3.498  18.772  0.00  0.00    +0.000 A 
ATOM     28  N   UNL     1      47.968   3.361  17.464  0.00  0.00    +0.000 N 
ATOM     29  C   UNL     1      48.170   4.337  16.518  0.00  0.00    +0.000 A 
ATOM     30  O   UNL     1      47.805   4.177  15.360  0.00  0.00    +0.000 OA
ATOM     31  C   UNL     1      48.809   5.537  17.026  0.00  0.00    +0.000 A 
ATOM     32  H   UNL     1      47.511   2.521  17.142  0.00  0.00    +0.000 HD
ENDBRANCH  19  22
ENDBRANCH   1  20
TORSDOF 7
ENDMDL
MODEL 5
REMARK VINA RESULT:    -7.302      2.115      2.493
REMARK INTER + INTRA:         -11.107
REMARK INTER:                 -10.178
REMARK INTRA:                  -0.929
REMARK UNBOUND:                -1.031
REMARK  Name = 
REMARK  7 active torsions:
REMARK  status: ('A' for Active; 'I' for Inactive)
REMARK    1  A    between atoms: C_2  and  C_20
REMARK    2  A    between atoms: N_3  and  C_4
REMARK    3  A    between atoms: C_4  and  C_5
REMARK    4  A    between atoms: C_8  and  C_9
REMARK    5  A    between atoms: C_9  and  C_10
REMARK    6  A    between atoms: C_10  and  O_11
REMARK    7  A    between atoms: C_10  and  C_12
REMARK                            x       y       z     vdW  Elec       q    Type
REMARK                         _______ _______ _______ _____ _____    ______ ____
ROOT
ATOM      1  C   UNL     1      47.983   7.358  13.852  0.00  0.00    +0.000 C 
ENDROOT
BRANCH   1   2
ATOM      2  C   UNL     1      47.025   6.586  12.980  0.00  0.00    +0.000 A 
ATOM      3  C   UNL     1      46.436   7.203  11.880  0.00  0.00    +0.000 A 
ATOM      4  C   UNL     1      45.550   6.475  11.093  0.00  0.00    +0.000 A 
ATOM      5  C   UNL     1      45.257   5.149  11.421  0.00  0.00    +0.000 A 
ATOM      6  C   UNL     1      45.880   4.622  12.547  0.00  0.00    +0.000 A 
ATOM      7  N   UNL     1      46.748   5.304  13.329  0.00  0.00    +0.000 NA
BRANCH   5   8
ATOM      8  C   UNL     1      44.331   4.323  10.562  0.00  0.00    +0.000 C 
BRANCH   8   9
ATOM      9  C   UNL     1      44.817   2.884  10.310  0.00  0.00    +0.000 C 
BRANCH   9  10
ATOM     10  C   UNL     1      45.513   2.785   8.969  0.00  0.00    +0.000 A 
ATOM     11  C   UNL     1      45.637   3.896   8.140  0.00  0.00    +0.000 A 
ATOM     12  N   UNL     1      46.266   3.853   6.941  0.00  0.00    +0.000 NA
ATOM     13  C   UNL     1      46.783   2.652   6.603  0.00  0.00    +0.000 A 
ATOM     14  C   UNL     1      46.679   1.543   7.423  0.00  0.00    +0.000 A 
ATOM     15  N   UNL     1      46.055   1.583   8.623  0.00  0.00    +0.000 NA
ENDBRANCH   9  10
BRANCH   9  16
ATOM     16  O   UNL     1      43.693   1.996  10.299  0.00  0.00    +0.000 OA
ATOM     17  H   UNL     1      43.494   1.807  11.235  0.00  0.00    +0.000 HD
ENDBRANCH   9  16
ENDBRANCH   8   9
ENDBRANCH   5   8
ENDBRANCH   1   2
BRANCH   1  20
ATOM     18  O   UNL     1      50.200   6.613  15.456  0.00  0.00    +0.000 OA
ATOM     19  C   UNL     1      49.066   6.529  15.917  0.00  0.00    +0.000 C 
ATOM     20  N   UNL     1      47.950   6.906  15.222  0.00  0.00    +0.000 N 
ATOM     21  H   UNL     1      47.035   6.845  15.645  0.00  0.00    +0.000 HD
BRANCH  19  22
ATOM     22  C   UNL     1      48.817   6.064  17.284  0.00  0.00    +0.000 A 
ATOM     23  C   UNL     1      49.032   4.740  17.633  0.00  0.00    +0.000 A 
ATOM     24  S   UNL     1      48.754   4.424  19.287  0.00  0.00    +0.000 S 
ATOM     25  C   UNL     1      48.292   6.036  19.578  0.00  0.00    +0.000 A 
ATOM     26  N   UNL     1      47.934   6.453  20.822  0.00  0.00    +0.000 NA
ATOM     27  C   UNL     1      47.583   7.695  20.887  0.00  0.00    +0.000 A 
ATOM     28  N   UNL     1      47.542   8.553  19.819  0.00  0.00    +0.000 N 
ATOM     29  C   UNL     1      47.893   8.179  18.544  0.00  0.00    +0.000 A 
ATOM     30  O   UNL     1      47.848   8.978  17.617  0.00  0.00    +0.000 OA
ATOM     31  C   UNL     1      48.331   6.800  18.426  0.00  0.00    +0.000 A 
ATOM     32  H   UNL     1      47.249   9.512  19.933  0.00  0.00    +0.000 HD
ENDBRANCH  19  22
ENDBRANCH   1  20
TORSDOF 7
ENDMDL
MODEL 6
REMARK VINA RESULT:    -6.870      2.753      3.812
REMARK INTER + INTRA:         -10.512
REMARK INTER:                 -10.257
REMARK INTRA:                  -0.256
REMARK UNBOUND:                -1.031
REMARK  Name = 
REMARK  7 active torsions:
REMARK  status: ('A' for Active; 'I' for Inactive)
REMARK    1  A    between atoms: C_2  and  C_20
REMARK    2  A    between atoms: N_3  and  C_4
REMARK    3  A    between atoms: C_4  and  C_5
REMARK    4  A    between atoms: C_8  and  C_9
REMARK    5  A    between atoms: C_9  and  C_10
REMARK    6  A    between atoms: C_10  and  O_11
REMARK    7  A    between atoms: C_10  and  C_12
REMARK                            x       y       z     vdW  Elec       q    Type
REMARK                         _______ _______ _______ _____ _____    ______ ____
ROOT
ATOM      1  C   UNL     1      46.986   4.868  14.759  0.00  0.00    +0.000 C 
ENDROOT
BRANCH   1   2
ATOM      2  C   UNL     1      46.241   4.610  13.473  0.00  0.00    +0.000 A 
ATOM      3  C   UNL     1      46.001   3.304  13.060  0.00  0.00    +0.000 A 
ATOM      4  C   UNL     1      45.318   3.089  11.867  0.00  0.00    +0.000 A 
ATOM      5  C   UNL     1      44.898   4.178  11.100  0.00  0.00    +0.000 A 
ATOM      6  C   UNL     1      45.198   5.447  11.585  0.00  0.00    +0.000 A 
ATOM      7  N   UNL     1      45.856   5.687  12.741  0.00  0.00    +0.000 NA
BRANCH   5   8
ATOM      8  C   UNL     1      44.121   3.976   9.823  0.00  0.00    +0.000 C 
BRANCH   8   9
ATOM      9  C   UNL     1      44.907   4.314   8.543  0.00  0.00    +0.000 C 
BRANCH   9  10
ATOM     10  C   UNL     1      45.777   3.146   8.129  0.00  0.00    +0.000 A 
ATOM     11  C   UNL     1      45.474   1.848   8.525  0.00  0.00    +0.000 A 
ATOM     12  N   UNL     1      46.218   0.775   8.163  0.00  0.00    +0.000 NA
ATOM     13  C   UNL     1      47.278   1.048   7.371  0.00  0.00    +0.000 A 
ATOM     14  C   UNL     1      47.583   2.331   6.959  0.00  0.00    +0.000 A 
ATOM     15  N   UNL     1      46.841   3.406   7.315  0.00  0.00    +0.000 NA
ENDBRANCH   9  10
BRANCH   9  16
ATOM     16  O   UNL     1      45.755   5.442   8.788  0.00  0.00    +0.000 OA
ATOM     17  H   UNL     1      46.589   5.255   8.315  0.00  0.00    +0.000 HD
ENDBRANCH   9  16
ENDBRANCH   8   9
ENDBRANCH   5   8
ENDBRANCH   1   2
BRANCH   1  20
ATOM     18  O   UNL     1      49.360   5.691  16.073  0.00  0.00    +0.000 OA
ATOM     19  C   UNL     1      48.668   6.526  15.499  0.00  0.00    +0.000 C 
ATOM     20  N   UNL     1      47.532   6.203  14.809  0.00  0.00    +0.000 N 
ATOM     21  H   UNL     1      47.003   6.915  14.327  0.00  0.00    +0.000 HD
BRANCH  19  22
ATOM     22  C   UNL     1      49.036   7.943  15.456  0.00  0.00    +0.000 A 
ATOM     23  C   UNL     1      49.741   8.460  14.380  0.00  0.00    +0.000 A 
ATOM     24  S   UNL     1      50.004  10.144  14.492  0.00  0.00    +0.000 S 
ATOM     25  C   UNL     1      49.225  10.224  16.003  0.00  0.00    +0.000 A 
ATOM     26  N   UNL     1      49.088  11.406  16.663  0.00  0.00    +0.000 NA
ATOM     27  C   UNL     1      48.500  11.310  17.810  0.00  0.00    +0.000 A 
ATOM     28  N   UNL     1      48.050  10.140  18.363  0.00  0.00    +0.000 N 
ATOM     29  C   UNL     1      48.165   8.923  17.735  0.00  0.00    +0.000 A 
ATOM     30  O   UNL     1      47.745   7.900  18.262  0.00  0.00    +0.000 OA
ATOM     31  C   UNL     1      48.787   8.983  16.425  0.00  0.00    +0.000 A 
ATOM     32  H   UNL     1      47.606  10.130  19.269  0.00  0.00    +0.000 HD
ENDBRANCH  19  22
ENDBRANCH   1  20
TORSDOF 7
ENDMDL
MODEL 7
REMARK VINA RESULT:    -6.866      2.781      8.184
REMARK INTER + INTRA:         -10.507
REMARK INTER:                  -9.674
REMARK INTRA:                  -0.833
REMARK UNBOUND:                -1.031
REMARK  Name = 
REMARK  7 active torsions:
REMARK  status: ('A' for Active; 'I' for Inactive)
REMARK    1  A    between atoms: C_2  and  C_20
REMARK    2  A    between atoms: N_3  and  C_4
REMARK    3  A    between atoms: C_4  and  C_5
REMARK    4  A    between atoms: C_8  and  C_9
REMARK    5  A    between atoms: C_9  and  C_10
REMARK    6  A    between atoms: C_10  and  O_11
REMARK    7  A    between atoms: C_10  and  C_12
REMARK                            x       y       z     vdW  Elec       q    Type
REMARK                         _______ _______ _______ _____ _____    ______ ____
ROOT
ATOM      1  C   UNL     1      47.226   7.777  12.179  0.00  0.00    +0.000 C 
ENDROOT
BRANCH   1   2
ATOM      2  C   UNL     1      47.831   7.719  13.559  0.00  0.00    +0.000 A 
ATOM      3  C   UNL     1      47.728   8.816  14.409  0.00  0.00    +0.000 A 
ATOM      4  C   UNL     1      48.299   8.743  15.675  0.00  0.00    +0.000 A 
ATOM      5  C   UNL     1      48.973   7.584  16.069  0.00  0.00    +0.000 A 
ATOM      6  C   UNL     1      49.039   6.546  15.146  0.00  0.00    +0.000 A 
ATOM      7  N   UNL     1      48.491   6.586  13.910  0.00  0.00    +0.000 NA
BRANCH   5   8
ATOM      8  C   UNL     1      49.567   7.462  17.450  0.00  0.00    +0.000 C 
BRANCH   8   9
ATOM      9  C   UNL     1      48.655   6.759  18.473  0.00  0.00    +0.000 C 
BRANCH   9  10
ATOM     10  C   UNL     1      48.422   5.318  18.074  0.00  0.00    +0.000 A 
ATOM     11  C   UNL     1      47.145   4.853  17.775  0.00  0.00    +0.000 A 
ATOM     12  N   UNL     1      46.896   3.575  17.399  0.00  0.00    +0.000 NA
ATOM     13  C   UNL     1      47.982   2.775  17.319  0.00  0.00    +0.000 A 
ATOM     14  C   UNL     1      49.257   3.227  17.601  0.00  0.00    +0.000 A 
ATOM     15  N   UNL     1      49.511   4.503  17.973  0.00  0.00    +0.000 NA
ENDBRANCH   9  10
BRANCH   9  16
ATOM     16  O   UNL     1      47.388   7.424  18.518  0.00  0.00    +0.000 OA
ATOM     17  H   UNL     1      47.383   7.932  19.351  0.00  0.00    +0.000 HD
ENDBRANCH   9  16
ENDBRANCH   8   9
ENDBRANCH   5   8
ENDBRANCH   1   2
BRANCH   1  20
ATOM     18  O   UNL     1      44.464   7.453  11.626  0.00  0.00    +0.000 OA
ATOM     19  C   UNL     1      45.200   6.471  11.617  0.00  0.00    +0.000 C 
ATOM     20  N   UNL     1      46.548   6.551  11.834  0.00  0.00    +0.000 N 
ATOM     21  H   UNL     1      47.125   5.723  11.794  0.00  0.00    +0.000 HD
BRANCH  19  22
ATOM     22  C   UNL     1      44.699   5.129  11.316  0.00  0.00    +0.000 A 
ATOM     23  C   UNL     1      43.942   4.430  12.244  0.00  0.00    +0.000 A 
ATOM     24  S   UNL     1      43.396   2.918  11.668  0.00  0.00    +0.000 S 
ATOM     25  C   UNL     1      44.193   3.131  10.179  0.00  0.00    +0.000 A 
ATOM     26  N   UNL     1      44.121   2.189   9.201  0.00  0.00    +0.000 NA
ATOM     27  C   UNL     1      44.796   2.474   8.137  0.00  0.00    +0.000 A 
ATOM     28  N   UNL     1      45.549   3.607   7.968  0.00  0.00    +0.000 N 
ATOM     29  C   UNL     1      45.653   4.585   8.927  0.00  0.00    +0.000 A 
ATOM     30  O   UNL     1      46.333   5.587   8.735  0.00  0.00    +0.000 OA
ATOM     31  C   UNL     1      44.881   4.329  10.129  0.00  0.00    +0.000 A 
ATOM     32  H   UNL     1      46.063   3.767   7.115  0.00  0.00    +0.000 HD
ENDBRANCH  19  22
ENDBRANCH   1  20
TORSDOF 7
ENDMDL
MODEL 8
REMARK VINA RESULT:    -6.739      3.382      8.230
REMARK INTER + INTRA:         -10.331
REMARK INTER:                  -9.497
REMARK INTRA:                  -0.835
REMARK UNBOUND:                -1.031
REMARK  Name = 
REMARK  7 active torsions:
REMARK  status: ('A' for Active; 'I' for Inactive)
REMARK    1  A    between atoms: C_2  and  C_20
REMARK    2  A    between atoms: N_3  and  C_4
REMARK    3  A    between atoms: C_4  and  C_5
REMARK    4  A    between atoms: C_8  and  C_9
REMARK    5  A    between atoms: C_9  and  C_10
REMARK    6  A    between atoms: C_10  and  O_11
REMARK    7  A    between atoms: C_10  and  C_12
REMARK                            x       y       z     vdW  Elec       q    Type
REMARK                         _______ _______ _______ _____ _____    ______ ____
ROOT
ATOM      1  C   UNL     1      48.304   7.494  12.850  0.00  0.00    +0.000 C 
ENDROOT
BRANCH   1   2
ATOM      2  C   UNL     1      48.683   6.942  14.201  0.00  0.00    +0.000 A 
ATOM      3  C   UNL     1      49.825   7.407  14.845  0.00  0.00    +0.000 A 
ATOM      4  C   UNL     1      50.161   6.879  16.088  0.00  0.00    +0.000 A 
ATOM      5  C   UNL     1      49.359   5.888  16.662  0.00  0.00    +0.000 A 
ATOM      6  C   UNL     1      48.247   5.474  15.936  0.00  0.00    +0.000 A 
ATOM      7  N   UNL     1      47.894   5.971  14.729  0.00  0.00    +0.000 NA
BRANCH   5   8
ATOM      8  C   UNL     1      49.676   5.326  18.025  0.00  0.00    +0.000 C 
BRANCH   8   9
ATOM      9  C   UNL     1      51.168   5.024  18.255  0.00  0.00    +0.000 C 
BRANCH   9  10
ATOM     10  C   UNL     1      51.459   3.559  18.002  0.00  0.00    +0.000 A 
ATOM     11  C   UNL     1      50.496   2.721  17.449  0.00  0.00    +0.000 A 
ATOM     12  N   UNL     1      50.722   1.409  17.193  0.00  0.00    +0.000 NA
ATOM     13  C   UNL     1      51.961   0.966  17.499  0.00  0.00    +0.000 A 
ATOM     14  C   UNL     1      52.931   1.792  18.037  0.00  0.00    +0.000 A 
ATOM     15  N   UNL     1      52.711   3.103  18.291  0.00  0.00    +0.000 NA
ENDBRANCH   9  10
BRANCH   9  16
ATOM     16  O   UNL     1      51.512   5.322  19.613  0.00  0.00    +0.000 OA
ATOM     17  H   UNL     1      50.692   5.202  20.127  0.00  0.00    +0.000 HD
ENDBRANCH   9  16
ENDBRANCH   8   9
ENDBRANCH   5   8
ENDBRANCH   1   2
BRANCH   1  20
ATOM     18  O   UNL     1      45.730   7.888  11.726  0.00  0.00    +0.000 OA
ATOM     19  C   UNL     1      46.285   6.801  11.596  0.00  0.00    +0.000 C 
ATOM     20  N   UNL     1      47.541   6.546  12.073  0.00  0.00    +0.000 N 
ATOM     21  H   UNL     1      47.975   5.647  11.924  0.00  0.00    +0.000 HD
BRANCH  19  22
ATOM     22  C   UNL     1      45.665   5.696  10.863  0.00  0.00    +0.000 A 
ATOM     23  C   UNL     1      45.831   5.573   9.492  0.00  0.00    +0.000 A 
ATOM     24  S   UNL     1      45.090   4.177   8.844  0.00  0.00    +0.000 S 
ATOM     25  C   UNL     1      44.485   3.721  10.368  0.00  0.00    +0.000 A 
ATOM     26  N   UNL     1      43.754   2.583  10.524  0.00  0.00    +0.000 NA
ATOM     27  C   UNL     1      43.340   2.379  11.730  0.00  0.00    +0.000 A 
ATOM     28  N   UNL     1      43.576   3.214  12.792  0.00  0.00    +0.000 N 
ATOM     29  C   UNL     1      44.307   4.372  12.683  0.00  0.00    +0.000 A 
ATOM     30  O   UNL     1      44.500   5.089  13.658  0.00  0.00    +0.000 OA
ATOM     31  C   UNL     1      44.827   4.628  11.353  0.00  0.00    +0.000 A 
ATOM     32  H   UNL     1      43.215   3.002  13.710  0.00  0.00    +0.000 HD
ENDBRANCH  19  22
ENDBRANCH   1  20
TORSDOF 7
ENDMDL
MODEL 9
REMARK VINA RESULT:    -6.712      4.140      9.636
REMARK INTER + INTRA:         -10.294
REMARK INTER:                  -9.629
REMARK INTRA:                  -0.666
REMARK UNBOUND:                -1.031
REMARK  Name = 
REMARK  7 active torsions:
REMARK  status: ('A' for Active; 'I' for Inactive)
REMARK    1  A    between atoms: C_2  and  C_20
REMARK    2  A    between atoms: N_3  and  C_4
REMARK    3  A    between atoms: C_4  and  C_5
REMARK    4  A    between atoms: C_8  and  C_9
REMARK    5  A    between atoms: C_9  and  C_10
REMARK    6  A    between atoms: C_10  and  O_11
REMARK    7  A    between atoms: C_10  and  C_12
REMARK                            x       y       z     vdW  Elec       q    Type
REMARK                         _______ _______ _______ _____ _____    ______ ____
ROOT
ATOM      1  C   UNL     1      47.275   3.500  16.732  0.00  0.00    +0.000 C 
ENDROOT
BRANCH   1   2
ATOM      2  C   UNL     1      48.735   3.733  17.027  0.00  0.00    +0.000 A 
ATOM      3  C   UNL     1      49.217   5.030  17.169  0.00  0.00    +0.000 A 
ATOM      4  C   UNL     1      50.569   5.222  17.434  0.00  0.00    +0.000 A 
ATOM      5  C   UNL     1      51.420   4.119  17.542  0.00  0.00    +0.000 A 
ATOM      6  C   UNL     1      50.852   2.862  17.369  0.00  0.00    +0.000 A 
ATOM      7  N   UNL     1      49.542   2.644  17.114  0.00  0.00    +0.000 NA
BRANCH   5   8
ATOM      8  C   UNL     1      52.883   4.295  17.869  0.00  0.00    +0.000 C 
BRANCH   8   9
ATOM      9  C   UNL     1      53.219   4.152  19.365  0.00  0.00    +0.000 C 
BRANCH   9  10
ATOM     10  C   UNL     1      54.023   2.893  19.611  0.00  0.00    +0.000 A 
ATOM     11  C   UNL     1      54.526   2.597  20.874  0.00  0.00    +0.000 A 
ATOM     12  N   UNL     1      55.237   1.474  21.139  0.00  0.00    +0.000 NA
ATOM     13  C   UNL     1      55.417   0.644  20.089  0.00  0.00    +0.000 A 
ATOM     14  C   UNL     1      54.911   0.919  18.832  0.00  0.00    +0.000 A 
ATOM     15  N   UNL     1      54.198   2.037  18.564  0.00  0.00    +0.000 NA
ENDBRANCH   9  10
BRANCH   9  16
ATOM     16  O   UNL     1      52.006   4.065  20.121  0.00  0.00    +0.000 OA
ATOM     17  H   UNL     1      51.315   3.799  19.485  0.00  0.00    +0.000 HD
ENDBRANCH   9  16
ENDBRANCH   8   9
ENDBRANCH   5   8
ENDBRANCH   1   2
BRANCH   1  20
ATOM     18  O   UNL     1      47.202   3.137  13.921  0.00  0.00    +0.000 OA
ATOM     19  C   UNL     1      46.802   4.192  14.403  0.00  0.00    +0.000 C 
ATOM     20  N   UNL     1      46.768   4.428  15.750  0.00  0.00    +0.000 N 
ATOM     21  H   UNL     1      46.408   5.300  16.111  0.00  0.00    +0.000 HD
BRANCH  19  22
ATOM     22  C   UNL     1      46.272   5.275  13.571  0.00  0.00    +0.000 A 
ATOM     23  C   UNL     1      47.011   6.428  13.354  0.00  0.00    +0.000 A 
ATOM     24  S   UNL     1      46.246   7.530  12.297  0.00  0.00    +0.000 S 
ATOM     25  C   UNL     1      44.885   6.521  12.136  0.00  0.00    +0.000 A 
ATOM     26  N   UNL     1      43.837   6.873  11.342  0.00  0.00    +0.000 NA
ATOM     27  C   UNL     1      42.864   6.023  11.338  0.00  0.00    +0.000 A 
ATOM     28  N   UNL     1      42.836   4.862  12.066  0.00  0.00    +0.000 N 
ATOM     29  C   UNL     1      43.868   4.465  12.881  0.00  0.00    +0.000 A 
ATOM     30  O   UNL     1      43.807   3.416  13.511  0.00  0.00    +0.000 OA
ATOM     31  C   UNL     1      45.003   5.370  12.891  0.00  0.00    +0.000 A 
ATOM     32  H   UNL     1      42.040   4.243  12.027  0.00  0.00    +0.000 HD
ENDBRANCH  19  22
ENDBRANCH   1  20
TORSDOF 7
ENDMDL
