MODEL 1
REMARK VINA RESULT:    -8.062      0.000      0.000
REMARK INTER + INTRA:         -12.074
REMARK INTER:                 -11.126
REMARK INTRA:                  -0.949
REMARK UNBOUND:                -0.949
REMARK  Name = 
REMARK  7 active torsions:
REMARK  status: ('A' for Active; 'I' for Inactive)
REMARK    1  A    between atoms: N_1  and  C_2
REMARK    2  A    between atoms: C_2  and  C_3
REMARK    3  A    between atoms: C_3  and  N_4
REMARK    4  A    between atoms: C_3  and  C_17
REMARK    5  A    between atoms: C_5  and  C_7
REMARK    6  A    between atoms: C_20  and  C_21
REMARK    7  A    between atoms: C_21  and  C_22
REMARK                            x       y       z     vdW  Elec       q    Type
REMARK                         _______ _______ _______ _____ _____    ______ ____
ROOT
ATOM      1  C   UNL     1      46.062   7.964  12.408  0.00  0.00    +0.000 C 
ENDROOT
BRANCH   1   2
ATOM      2  C   UNL     1      45.646   6.722  11.617  0.00  0.00    +0.000 A 
ATOM      3  C   UNL     1      46.318   6.380  10.437  0.00  0.00    +0.000 A 
ATOM      4  C   UNL     1      45.936   5.255   9.698  0.00  0.00    +0.000 A 
ATOM      5  C   UNL     1      44.886   4.435  10.133  0.00  0.00    +0.000 A 
ATOM      6  C   UNL     1      44.226   4.762  11.323  0.00  0.00    +0.000 A 
ATOM      7  C   UNL     1      44.598   5.895  12.053  0.00  0.00    +0.000 A 
BRANCH   5   8
ATOM      8  C   UNL     1      44.462   3.224   9.330  0.00  0.00    +0.000 C 
BRANCH   8   9
ATOM      9  C   UNL     1      45.484   2.686   8.352  0.00  0.00    +0.000 A 
ATOM     10  C   UNL     1      45.810   3.390   7.193  0.00  0.00    +0.000 A 
ATOM     11  C   UNL     1      46.660   2.804   6.258  0.00  0.00    +0.000 A 
ATOM     12  C   UNL     1      47.165   1.534   6.499  0.00  0.00    +0.000 A 
ATOM     13  C   UNL     1      46.808   0.905   7.680  0.00  0.00    +0.000 A 
ATOM     14  N   UNL     1      45.983   1.448   8.603  0.00  0.00    +0.000 NA
ENDBRANCH   8   9
ENDBRANCH   5   8
ENDBRANCH   1   2
BRANCH   1  15
ATOM     15  N   UNL     1      46.693   7.526  13.647  0.00  0.00    +0.000 N 
ATOM     16  C   UNL     1      48.029   7.230  13.744  0.00  0.00    +0.000 C 
ATOM     17  O   UNL     1      48.830   7.450  12.843  0.00  0.00    +0.000 OA
ATOM     18  H   UNL     1      46.066   7.083  14.311  0.00  0.00    +0.000 HD
BRANCH  16  19
ATOM     19  C   UNL     1      48.470   6.675  15.028  0.00  0.00    +0.000 A 
ATOM     20  C   UNL     1      49.462   7.311  15.758  0.00  0.00    +0.000 A 
ATOM     21  S   UNL     1      49.856   6.509  17.211  0.00  0.00    +0.000 S 
ATOM     22  C   UNL     1      48.746   5.259  16.889  0.00  0.00    +0.000 A 
ATOM     23  N   UNL     1      48.613   4.200  17.728  0.00  0.00    +0.000 NA
ATOM     24  C   UNL     1      47.758   3.314  17.340  0.00  0.00    +0.000 A 
ATOM     25  N   UNL     1      47.011   3.399  16.195  0.00  0.00    +0.000 N 
ATOM     26  C   UNL     1      47.077   4.472  15.338  0.00  0.00    +0.000 A 
ATOM     27  O   UNL     1      46.340   4.556  14.363  0.00  0.00    +0.000 OA
ATOM     28  C   UNL     1      48.053   5.475  15.710  0.00  0.00    +0.000 A 
ATOM     29  H   UNL     1      46.334   2.687  15.960  0.00  0.00    +0.000 HD
ENDBRANCH  16  19
ENDBRANCH   1  15
BRANCH   1  30
ATOM     30  C   UNL     1      44.857   8.923  12.650  0.00  0.00    +0.000 C 
BRANCH  30  31
ATOM     31  N   UNL     1      44.095   9.260  11.438  0.00  0.00    +0.000 NA
ATOM     32  H   UNL     1      43.106   9.313  11.680  0.00  0.00    +0.000 HD
ATOM     33  H   UNL     1      44.184   8.501  10.762  0.00  0.00    +0.000 HD
ENDBRANCH  30  31
ENDBRANCH   1  30
TORSDOF 7
ENDMDL
MODEL 2
REMARK VINA RESULT:    -7.962      1.886      2.737
REMARK INTER + INTRA:         -11.936
REMARK INTER:                 -11.161
REMARK INTRA:                  -0.775
REMARK UNBOUND:                -0.949
REMARK  Name = 
REMARK  7 active torsions:
REMARK  status: ('A' for Active; 'I' for Inactive)
REMARK    1  A    between atoms: N_1  and  C_2
REMARK    2  A    between atoms: C_2  and  C_3
REMARK    3  A    between atoms: C_3  and  N_4
REMARK    4  A    between atoms: C_3  and  C_17
REMARK    5  A    between atoms: C_5  and  C_7
REMARK    6  A    between atoms: C_20  and  C_21
REMARK    7  A    between atoms: C_21  and  C_22
REMARK                            x       y       z     vdW  Elec       q    Type
REMARK                         _______ _______ _______ _____ _____    ______ ____
ROOT
ATOM      1  C   UNL     1      47.043   6.874  13.142  0.00  0.00    +0.000 C 
ENDROOT
BRANCH   1   2
ATOM      2  C   UNL     1      46.371   5.969  12.108  0.00  0.00    +0.000 A 
ATOM      3  C   UNL     1      45.812   4.746  12.500  0.00  0.00    +0.000 A 
ATOM      4  C   UNL     1      45.207   3.903  11.561  0.00  0.00    +0.000 A 
ATOM      5  C   UNL     1      45.129   4.273  10.211  0.00  0.00    +0.000 A 
ATOM      6  C   UNL     1      45.668   5.504   9.820  0.00  0.00    +0.000 A 
ATOM      7  C   UNL     1      46.286   6.339  10.756  0.00  0.00    +0.000 A 
BRANCH   5   8
ATOM      8  C   UNL     1      44.488   3.359   9.191  0.00  0.00    +0.000 C 
BRANCH   8   9
ATOM      9  C   UNL     1      45.419   2.762   8.157  0.00  0.00    +0.000 A 
ATOM     10  C   UNL     1      46.024   1.522   8.365  0.00  0.00    +0.000 A 
ATOM     11  C   UNL     1      46.969   1.066   7.449  0.00  0.00    +0.000 A 
ATOM     12  C   UNL     1      47.288   1.851   6.351  0.00  0.00    +0.000 A 
ATOM     13  C   UNL     1      46.634   3.063   6.205  0.00  0.00    +0.000 A 
ATOM     14  N   UNL     1      45.715   3.533   7.078  0.00  0.00    +0.000 NA
ENDBRANCH   8   9
ENDBRANCH   5   8
ENDBRANCH   1   2
BRANCH   1  15
ATOM     15  N   UNL     1      47.112   6.152  14.406  0.00  0.00    +0.000 N 
ATOM     16  C   UNL     1      48.286   5.939  15.083  0.00  0.00    +0.000 C 
ATOM     17  O   UNL     1      49.348   6.460  14.762  0.00  0.00    +0.000 OA
ATOM     18  H   UNL     1      46.354   5.497  14.566  0.00  0.00    +0.000 HD
BRANCH  16  19
ATOM     19  C   UNL     1      48.194   5.078  16.267  0.00  0.00    +0.000 A 
ATOM     20  C   UNL     1      47.598   3.830  16.177  0.00  0.00    +0.000 A 
ATOM     21  S   UNL     1      47.566   2.984  17.658  0.00  0.00    +0.000 S 
ATOM     22  C   UNL     1      48.307   4.278  18.479  0.00  0.00    +0.000 A 
ATOM     23  N   UNL     1      48.532   4.227  19.817  0.00  0.00    +0.000 NA
ATOM     24  C   UNL     1      49.071   5.293  20.309  0.00  0.00    +0.000 A 
ATOM     25  N   UNL     1      49.419   6.399  19.580  0.00  0.00    +0.000 N 
ATOM     26  C   UNL     1      49.252   6.480  18.218  0.00  0.00    +0.000 A 
ATOM     27  O   UNL     1      49.645   7.451  17.583  0.00  0.00    +0.000 OA
ATOM     28  C   UNL     1      48.614   5.323  17.624  0.00  0.00    +0.000 A 
ATOM     29  H   UNL     1      49.867   7.192  20.018  0.00  0.00    +0.000 HD
ENDBRANCH  16  19
ENDBRANCH   1  15
BRANCH   1  30
ATOM     30  C   UNL     1      46.311   8.245  13.269  0.00  0.00    +0.000 C 
BRANCH  30  31
ATOM     31  N   UNL     1      46.872   9.142  14.291  0.00  0.00    +0.000 NA
ATOM     32  H   UNL     1      47.249   9.968  13.827  0.00  0.00    +0.000 HD
ATOM     33  H   UNL     1      47.662   8.683  14.745  0.00  0.00    +0.000 HD
ENDBRANCH  30  31
ENDBRANCH   1  30
TORSDOF 7
ENDMDL
MODEL 3
REMARK VINA RESULT:    -7.844      2.698      4.187
REMARK INTER + INTRA:         -11.774
REMARK INTER:                 -10.463
REMARK INTRA:                  -1.311
REMARK UNBOUND:                -0.949
REMARK  Name = 
REMARK  7 active torsions:
REMARK  status: ('A' for Active; 'I' for Inactive)
REMARK    1  A    between atoms: N_1  and  C_2
REMARK    2  A    between atoms: C_2  and  C_3
REMARK    3  A    between atoms: C_3  and  N_4
REMARK    4  A    between atoms: C_3  and  C_17
REMARK    5  A    between atoms: C_5  and  C_7
REMARK    6  A    between atoms: C_20  and  C_21
REMARK    7  A    between atoms: C_21  and  C_22
REMARK                            x       y       z     vdW  Elec       q    Type
REMARK                         _______ _______ _______ _____ _____    ______ ____
ROOT
ATOM      1  C   UNL     1      46.420   5.758  13.628  0.00  0.00    +0.000 C 
ENDROOT
BRANCH   1   2
ATOM      2  C   UNL     1      45.927   5.174  12.303  0.00  0.00    +0.000 A 
ATOM      3  C   UNL     1      45.332   3.907  12.268  0.00  0.00    +0.000 A 
ATOM      4  C   UNL     1      44.890   3.358  11.060  0.00  0.00    +0.000 A 
ATOM      5  C   UNL     1      45.015   4.072   9.860  0.00  0.00    +0.000 A 
ATOM      6  C   UNL     1      45.590   5.347   9.893  0.00  0.00    +0.000 A 
ATOM      7  C   UNL     1      46.046   5.890  11.099  0.00  0.00    +0.000 A 
BRANCH   5   8
ATOM      8  C   UNL     1      44.550   3.476   8.549  0.00  0.00    +0.000 C 
BRANCH   8   9
ATOM      9  C   UNL     1      45.626   2.853   7.686  0.00  0.00    +0.000 A 
ATOM     10  C   UNL     1      46.248   1.661   8.060  0.00  0.00    +0.000 A 
ATOM     11  C   UNL     1      47.318   1.187   7.305  0.00  0.00    +0.000 A 
ATOM     12  C   UNL     1      47.742   1.906   6.197  0.00  0.00    +0.000 A 
ATOM     13  C   UNL     1      47.064   3.072   5.880  0.00  0.00    +0.000 A 
ATOM     14  N   UNL     1      46.026   3.558   6.596  0.00  0.00    +0.000 NA
ENDBRANCH   8   9
ENDBRANCH   5   8
ENDBRANCH   1   2
BRANCH   1  15
ATOM     15  N   UNL     1      47.542   6.646  13.347  0.00  0.00    +0.000 N 
ATOM     16  C   UNL     1      47.420   8.010  13.288  0.00  0.00    +0.000 C 
ATOM     17  O   UNL     1      46.399   8.606  13.610  0.00  0.00    +0.000 OA
ATOM     18  H   UNL     1      48.302   6.220  12.826  0.00  0.00    +0.000 HD
BRANCH  16  19
ATOM     19  C   UNL     1      48.618   8.742  12.860  0.00  0.00    +0.000 A 
ATOM     20  C   UNL     1      48.527   9.709  11.871  0.00  0.00    +0.000 A 
ATOM     21  S   UNL     1      50.024  10.436  11.493  0.00  0.00    +0.000 S 
ATOM     22  C   UNL     1      50.850   9.449  12.607  0.00  0.00    +0.000 A 
ATOM     23  N   UNL     1      52.198   9.525  12.753  0.00  0.00    +0.000 NA
ATOM     24  C   UNL     1      52.691   8.693  13.609  0.00  0.00    +0.000 A 
ATOM     25  N   UNL     1      51.955   7.804  14.346  0.00  0.00    +0.000 N 
ATOM     26  C   UNL     1      50.585   7.721  14.267  0.00  0.00    +0.000 A 
ATOM     27  O   UNL     1      49.947   6.970  14.996  0.00  0.00    +0.000 OA
ATOM     28  C   UNL     1      49.988   8.607  13.289  0.00  0.00    +0.000 A 
ATOM     29  H   UNL     1      52.395   7.199  15.025  0.00  0.00    +0.000 HD
ENDBRANCH  16  19
ENDBRANCH   1  15
BRANCH   1  30
ATOM     30  C   UNL     1      46.778   4.639  14.652  0.00  0.00    +0.000 C 
BRANCH  30  31
ATOM     31  N   UNL     1      47.763   5.038  15.670  0.00  0.00    +0.000 NA
ATOM     32  H   UNL     1      47.334   4.947  16.590  0.00  0.00    +0.000 HD
ATOM     33  H   UNL     1      47.985   6.027  15.553  0.00  0.00    +0.000 HD
ENDBRANCH  30  31
ENDBRANCH   1  30
TORSDOF 7
ENDMDL
MODEL 4
REMARK VINA RESULT:    -7.456      2.563      4.485
REMARK INTER + INTRA:         -11.238
REMARK INTER:                  -9.833
REMARK INTRA:                  -1.405
REMARK UNBOUND:                -0.949
REMARK  Name = 
REMARK  7 active torsions:
REMARK  status: ('A' for Active; 'I' for Inactive)
REMARK    1  A    between atoms: N_1  and  C_2
REMARK    2  A    between atoms: C_2  and  C_3
REMARK    3  A    between atoms: C_3  and  N_4
REMARK    4  A    between atoms: C_3  and  C_17
REMARK    5  A    between atoms: C_5  and  C_7
REMARK    6  A    between atoms: C_20  and  C_21
REMARK    7  A    between atoms: C_21  and  C_22
REMARK                            x       y       z     vdW  Elec       q    Type
REMARK                         _______ _______ _______ _____ _____    ______ ____
ROOT
ATOM      1  C   UNL     1      47.023   5.559  14.465  0.00  0.00    +0.000 C 
ENDROOT
BRANCH   1   2
ATOM      2  C   UNL     1      46.325   5.076  13.193  0.00  0.00    +0.000 A 
ATOM      3  C   UNL     1      45.883   3.751  13.091  0.00  0.00    +0.000 A 
ATOM      4  C   UNL     1      45.256   3.295  11.927  0.00  0.00    +0.000 A 
ATOM      5  C   UNL     1      45.037   4.159  10.845  0.00  0.00    +0.000 A 
ATOM      6  C   UNL     1      45.459   5.489  10.951  0.00  0.00    +0.000 A 
ATOM      7  C   UNL     1      46.099   5.942  12.109  0.00  0.00    +0.000 A 
BRANCH   5   8
ATOM      8  C   UNL     1      44.371   3.666   9.579  0.00  0.00    +0.000 C 
BRANCH   8   9
ATOM      9  C   UNL     1      45.294   3.104   8.519  0.00  0.00    +0.000 A 
ATOM     10  C   UNL     1      45.702   1.771   8.554  0.00  0.00    +0.000 A 
ATOM     11  C   UNL     1      46.649   1.326   7.635  0.00  0.00    +0.000 A 
ATOM     12  C   UNL     1      47.165   2.215   6.703  0.00  0.00    +0.000 A 
ATOM     13  C   UNL     1      46.699   3.519   6.721  0.00  0.00    +0.000 A 
ATOM     14  N   UNL     1      45.784   3.980   7.603  0.00  0.00    +0.000 NA
ENDBRANCH   8   9
ENDBRANCH   5   8
ENDBRANCH   1   2
BRANCH   1  15
ATOM     15  N   UNL     1      48.260   6.228  14.081  0.00  0.00    +0.000 N 
ATOM     16  C   UNL     1      48.851   7.205  14.841  0.00  0.00    +0.000 C 
ATOM     17  O   UNL     1      48.473   7.493  15.972  0.00  0.00    +0.000 OA
ATOM     18  H   UNL     1      48.453   6.230  13.085  0.00  0.00    +0.000 HD
BRANCH  16  19
ATOM     19  C   UNL     1      50.015   7.866  14.243  0.00  0.00    +0.000 A 
ATOM     20  C   UNL     1      51.263   7.754  14.838  0.00  0.00    +0.000 A 
ATOM     21  S   UNL     1      52.488   8.605  14.011  0.00  0.00    +0.000 S 
ATOM     22  C   UNL     1      51.383   9.190  12.856  0.00  0.00    +0.000 A 
ATOM     23  N   UNL     1      51.775  10.037  11.870  0.00  0.00    +0.000 NA
ATOM     24  C   UNL     1      50.823  10.424  11.087  0.00  0.00    +0.000 A 
ATOM     25  N   UNL     1      49.517  10.028  11.193  0.00  0.00    +0.000 N 
ATOM     26  C   UNL     1      49.080   9.139  12.146  0.00  0.00    +0.000 A 
ATOM     27  O   UNL     1      47.920   8.744  12.167  0.00  0.00    +0.000 OA
ATOM     28  C   UNL     1      50.104   8.706  13.075  0.00  0.00    +0.000 A 
ATOM     29  H   UNL     1      48.821  10.341  10.531  0.00  0.00    +0.000 HD
ENDBRANCH  16  19
ENDBRANCH   1  15
BRANCH   1  30
ATOM     30  C   UNL     1      47.256   4.393  15.473  0.00  0.00    +0.000 C 
BRANCH  30  31
ATOM     31  N   UNL     1      47.152   4.782  16.888  0.00  0.00    +0.000 NA
ATOM     32  H   UNL     1      47.132   3.936  17.457  0.00  0.00    +0.000 HD
ATOM     33  H   UNL     1      46.261   5.253  17.043  0.00  0.00    +0.000 HD
ENDBRANCH  30  31
ENDBRANCH   1  30
TORSDOF 7
ENDMDL
MODEL 5
REMARK VINA RESULT:    -7.026      2.554      3.572
REMARK INTER + INTRA:         -10.644
REMARK INTER:                  -9.153
REMARK INTRA:                  -1.491
REMARK UNBOUND:                -0.949
REMARK  Name = 
REMARK  7 active torsions:
REMARK  status: ('A' for Active; 'I' for Inactive)
REMARK    1  A    between atoms: N_1  and  C_2
REMARK    2  A    between atoms: C_2  and  C_3
REMARK    3  A    between atoms: C_3  and  N_4
REMARK    4  A    between atoms: C_3  and  C_17
REMARK    5  A    between atoms: C_5  and  C_7
REMARK    6  A    between atoms: C_20  and  C_21
REMARK    7  A    between atoms: C_21  and  C_22
REMARK                            x       y       z     vdW  Elec       q    Type
REMARK                         _______ _______ _______ _____ _____    ______ ____
ROOT
ATOM      1  C   UNL     1      48.380   7.977  14.198  0.00  0.00    +0.000 C 
ENDROOT
BRANCH   1   2
ATOM      2  C   UNL     1      47.299   7.310  13.346  0.00  0.00    +0.000 A 
ATOM      3  C   UNL     1      47.267   5.917  13.210  0.00  0.00    +0.000 A 
ATOM      4  C   UNL     1      46.291   5.298  12.422  0.00  0.00    +0.000 A 
ATOM      5  C   UNL     1      45.312   6.057  11.767  0.00  0.00    +0.000 A 
ATOM      6  C   UNL     1      45.327   7.448  11.917  0.00  0.00    +0.000 A 
ATOM      7  C   UNL     1      46.312   8.068  12.693  0.00  0.00    +0.000 A 
BRANCH   5   8
ATOM      8  C   UNL     1      44.262   5.392  10.903  0.00  0.00    +0.000 C 
BRANCH   8   9
ATOM      9  C   UNL     1      44.769   4.353   9.926  0.00  0.00    +0.000 A 
ATOM     10  C   UNL     1      45.519   4.721   8.809  0.00  0.00    +0.000 A 
ATOM     11  C   UNL     1      45.860   3.751   7.870  0.00  0.00    +0.000 A 
ATOM     12  C   UNL     1      45.448   2.440   8.064  0.00  0.00    +0.000 A 
ATOM     13  C   UNL     1      44.719   2.149   9.205  0.00  0.00    +0.000 A 
ATOM     14  N   UNL     1      44.371   3.070  10.132  0.00  0.00    +0.000 NA
ENDBRANCH   8   9
ENDBRANCH   5   8
ENDBRANCH   1   2
BRANCH   1  15
ATOM     15  N   UNL     1      48.289   7.443  15.551  0.00  0.00    +0.000 N 
ATOM     16  C   UNL     1      49.297   6.724  16.142  0.00  0.00    +0.000 C 
ATOM     17  O   UNL     1      50.409   6.597  15.643  0.00  0.00    +0.000 OA
ATOM     18  H   UNL     1      47.344   7.286  15.885  0.00  0.00    +0.000 HD
BRANCH  16  19
ATOM     19  C   UNL     1      48.987   6.147  17.454  0.00  0.00    +0.000 A 
ATOM     20  C   UNL     1      49.120   4.782  17.664  0.00  0.00    +0.000 A 
ATOM     21  S   UNL     1      48.696   4.294  19.243  0.00  0.00    +0.000 S 
ATOM     22  C   UNL     1      48.276   5.884  19.684  0.00  0.00    +0.000 A 
ATOM     23  N   UNL     1      47.778   6.166  20.915  0.00  0.00    +0.000 NA
ATOM     24  C   UNL     1      47.473   7.407  21.097  0.00  0.00    +0.000 A 
ATOM     25  N   UNL     1      47.636   8.396  20.164  0.00  0.00    +0.000 N 
ATOM     26  C   UNL     1      48.177   8.168  18.920  0.00  0.00    +0.000 A 
ATOM     27  O   UNL     1      48.383   9.086  18.135  0.00  0.00    +0.000 OA
ATOM     28  C   UNL     1      48.498   6.781  18.653  0.00  0.00    +0.000 A 
ATOM     29  H   UNL     1      47.408   9.357  20.376  0.00  0.00    +0.000 HD
ENDBRANCH  16  19
ENDBRANCH   1  15
BRANCH   1  30
ATOM     30  C   UNL     1      48.271   9.532  14.154  0.00  0.00    +0.000 C 
BRANCH  30  31
ATOM     31  N   UNL     1      48.274  10.179  15.475  0.00  0.00    +0.000 NA
ATOM     32  H   UNL     1      49.096  10.779  15.540  0.00  0.00    +0.000 HD
ATOM     33  H   UNL     1      48.381   9.468  16.198  0.00  0.00    +0.000 HD
ENDBRANCH  30  31
ENDBRANCH   1  30
TORSDOF 7
ENDMDL
MODEL 6
REMARK VINA RESULT:    -6.980      3.384      5.883
REMARK INTER + INTRA:         -10.580
REMARK INTER:                  -9.594
REMARK INTRA:                  -0.987
REMARK UNBOUND:                -0.949
REMARK  Name = 
REMARK  7 active torsions:
REMARK  status: ('A' for Active; 'I' for Inactive)
REMARK    1  A    between atoms: N_1  and  C_2
REMARK    2  A    between atoms: C_2  and  C_3
REMARK    3  A    between atoms: C_3  and  N_4
REMARK    4  A    between atoms: C_3  and  C_17
REMARK    5  A    between atoms: C_5  and  C_7
REMARK    6  A    between atoms: C_20  and  C_21
REMARK    7  A    between atoms: C_21  and  C_22
REMARK                            x       y       z     vdW  Elec       q    Type
REMARK                         _______ _______ _______ _____ _____    ______ ____
ROOT
ATOM      1  C   UNL     1      46.199   4.756  13.930  0.00  0.00    +0.000 C 
ENDROOT
BRANCH   1   2
ATOM      2  C   UNL     1      46.048   6.152  13.323  0.00  0.00    +0.000 A 
ATOM      3  C   UNL     1      44.984   6.434  12.459  0.00  0.00    +0.000 A 
ATOM      4  C   UNL     1      44.844   7.704  11.888  0.00  0.00    +0.000 A 
ATOM      5  C   UNL     1      45.756   8.727  12.184  0.00  0.00    +0.000 A 
ATOM      6  C   UNL     1      46.810   8.454  13.063  0.00  0.00    +0.000 A 
ATOM      7  C   UNL     1      46.957   7.181  13.623  0.00  0.00    +0.000 A 
BRANCH   5   8
ATOM      8  C   UNL     1      45.617  10.097  11.557  0.00  0.00    +0.000 C 
BRANCH   8   9
ATOM      9  C   UNL     1      44.233  10.464  11.067  0.00  0.00    +0.000 A 
ATOM     10  C   UNL     1      43.917  10.423   9.709  0.00  0.00    +0.000 A 
ATOM     11  C   UNL     1      42.674  10.887   9.286  0.00  0.00    +0.000 A 
ATOM     12  C   UNL     1      41.775  11.378  10.223  0.00  0.00    +0.000 A 
ATOM     13  C   UNL     1      42.155  11.371  11.554  0.00  0.00    +0.000 A 
ATOM     14  N   UNL     1      43.355  10.931  11.993  0.00  0.00    +0.000 NA
ENDBRANCH   8   9
ENDBRANCH   5   8
ENDBRANCH   1   2
BRANCH   1  15
ATOM     15  N   UNL     1      47.367   4.760  14.802  0.00  0.00    +0.000 N 
ATOM     16  C   UNL     1      47.344   4.280  16.087  0.00  0.00    +0.000 C 
ATOM     17  O   UNL     1      46.387   3.675  16.558  0.00  0.00    +0.000 OA
ATOM     18  H   UNL     1      48.065   5.461  14.577  0.00  0.00    +0.000 HD
BRANCH  16  19
ATOM     19  C   UNL     1      48.567   4.484  16.869  0.00  0.00    +0.000 A 
ATOM     20  C   UNL     1      48.818   5.713  17.461  0.00  0.00    +0.000 A 
ATOM     21  S   UNL     1      50.296   5.768  18.311  0.00  0.00    +0.000 S 
ATOM     22  C   UNL     1      50.672   4.165  17.876  0.00  0.00    +0.000 A 
ATOM     23  N   UNL     1      51.846   3.591  18.244  0.00  0.00    +0.000 NA
ATOM     24  C   UNL     1      52.009   2.384  17.816  0.00  0.00    +0.000 A 
ATOM     25  N   UNL     1      51.095   1.693  17.065  0.00  0.00    +0.000 N 
ATOM     26  C   UNL     1      49.875   2.214  16.706  0.00  0.00    +0.000 A 
ATOM     27  O   UNL     1      49.047   1.544  16.100  0.00  0.00    +0.000 OA
ATOM     28  C   UNL     1      49.662   3.583  17.129  0.00  0.00    +0.000 A 
ATOM     29  H   UNL     1      51.266   0.737  16.786  0.00  0.00    +0.000 HD
ENDBRANCH  16  19
ENDBRANCH   1  15
BRANCH   1  30
ATOM     30  C   UNL     1      46.272   3.654  12.828  0.00  0.00    +0.000 C 
BRANCH  30  31
ATOM     31  N   UNL     1      45.040   2.865  12.675  0.00  0.00    +0.000 NA
ATOM     32  H   UNL     1      44.285   3.344  13.163  0.00  0.00    +0.000 HD
ATOM     33  H   UNL     1      45.157   1.965  13.140  0.00  0.00    +0.000 HD
ENDBRANCH  30  31
ENDBRANCH   1  30
TORSDOF 7
ENDMDL
MODEL 7
REMARK VINA RESULT:    -6.926      3.155      7.685
REMARK INTER + INTRA:         -10.507
REMARK INTER:                  -9.346
REMARK INTRA:                  -1.161
REMARK UNBOUND:                -0.949
REMARK  Name = 
REMARK  7 active torsions:
REMARK  status: ('A' for Active; 'I' for Inactive)
REMARK    1  A    between atoms: N_1  and  C_2
REMARK    2  A    between atoms: C_2  and  C_3
REMARK    3  A    between atoms: C_3  and  N_4
REMARK    4  A    between atoms: C_3  and  C_17
REMARK    5  A    between atoms: C_5  and  C_7
REMARK    6  A    between atoms: C_20  and  C_21
REMARK    7  A    between atoms: C_21  and  C_22
REMARK                            x       y       z     vdW  Elec       q    Type
REMARK                         _______ _______ _______ _____ _____    ______ ____
ROOT
ATOM      1  C   UNL     1      48.123   7.592  13.416  0.00  0.00    +0.000 C 
ENDROOT
BRANCH   1   2
ATOM      2  C   UNL     1      48.580   6.847  14.672  0.00  0.00    +0.000 A 
ATOM      3  C   UNL     1      49.732   7.256  15.355  0.00  0.00    +0.000 A 
ATOM      4  C   UNL     1      50.166   6.574  16.496  0.00  0.00    +0.000 A 
ATOM      5  C   UNL     1      49.447   5.477  16.992  0.00  0.00    +0.000 A 
ATOM      6  C   UNL     1      48.284   5.078  16.325  0.00  0.00    +0.000 A 
ATOM      7  C   UNL     1      47.858   5.752  15.175  0.00  0.00    +0.000 A 
BRANCH   5   8
ATOM      8  C   UNL     1      49.921   4.729  18.219  0.00  0.00    +0.000 C 
BRANCH   8   9
ATOM      9  C   UNL     1      50.905   3.606  17.971  0.00  0.00    +0.000 A 
ATOM     10  C   UNL     1      50.489   2.393  17.422  0.00  0.00    +0.000 A 
ATOM     11  C   UNL     1      51.399   1.343  17.326  0.00  0.00    +0.000 A 
ATOM     12  C   UNL     1      52.699   1.525  17.776  0.00  0.00    +0.000 A 
ATOM     13  C   UNL     1      53.041   2.762  18.294  0.00  0.00    +0.000 A 
ATOM     14  N   UNL     1      52.179   3.798  18.403  0.00  0.00    +0.000 NA
ENDBRANCH   8   9
ENDBRANCH   5   8
ENDBRANCH   1   2
BRANCH   1  15
ATOM     15  N   UNL     1      47.486   6.633  12.522  0.00  0.00    +0.000 N 
ATOM     16  C   UNL     1      46.342   6.911  11.818  0.00  0.00    +0.000 C 
ATOM     17  O   UNL     1      45.845   8.030  11.765  0.00  0.00    +0.000 OA
ATOM     18  H   UNL     1      47.681   5.659  12.731  0.00  0.00    +0.000 HD
BRANCH  16  19
ATOM     19  C   UNL     1      45.760   5.789  11.073  0.00  0.00    +0.000 A 
ATOM     20  C   UNL     1      45.930   5.702   9.699  0.00  0.00    +0.000 A 
ATOM     21  S   UNL     1      45.167   4.344   9.006  0.00  0.00    +0.000 S 
ATOM     22  C   UNL     1      44.545   3.852  10.512  0.00  0.00    +0.000 A 
ATOM     23  N   UNL     1      43.743   2.761  10.622  0.00  0.00    +0.000 NA
ATOM     24  C   UNL     1      43.319   2.528  11.819  0.00  0.00    +0.000 A 
ATOM     25  N   UNL     1      43.638   3.277  12.920  0.00  0.00    +0.000 N 
ATOM     26  C   UNL     1      44.481   4.362  12.867  0.00  0.00    +0.000 A 
ATOM     27  O   UNL     1      44.810   4.966  13.882  0.00  0.00    +0.000 OA
ATOM     28  C   UNL     1      44.951   4.690  11.536  0.00  0.00    +0.000 A 
ATOM     29  H   UNL     1      43.300   3.026  13.838  0.00  0.00    +0.000 HD
ENDBRANCH  16  19
ENDBRANCH   1  15
BRANCH   1  30
ATOM     30  C   UNL     1      49.302   8.356  12.739  0.00  0.00    +0.000 C 
BRANCH  30  31
ATOM     31  N   UNL     1      49.636   7.884  11.386  0.00  0.00    +0.000 NA
ATOM     32  H   UNL     1      50.161   8.615  10.908  0.00  0.00    +0.000 HD
ATOM     33  H   UNL     1      48.776   7.753  10.854  0.00  0.00    +0.000 HD
ENDBRANCH  30  31
ENDBRANCH   1  30
TORSDOF 7
ENDMDL
MODEL 8
REMARK VINA RESULT:    -6.797      3.646      8.283
REMARK INTER + INTRA:         -10.329
REMARK INTER:                  -9.326
REMARK INTRA:                  -1.003
REMARK UNBOUND:                -0.949
REMARK  Name = 
REMARK  7 active torsions:
REMARK  status: ('A' for Active; 'I' for Inactive)
REMARK    1  A    between atoms: N_1  and  C_2
REMARK    2  A    between atoms: C_2  and  C_3
REMARK    3  A    between atoms: C_3  and  N_4
REMARK    4  A    between atoms: C_3  and  C_17
REMARK    5  A    between atoms: C_5  and  C_7
REMARK    6  A    between atoms: C_20  and  C_21
REMARK    7  A    between atoms: C_21  and  C_22
REMARK                            x       y       z     vdW  Elec       q    Type
REMARK                         _______ _______ _______ _____ _____    ______ ____
ROOT
ATOM      1  C   UNL     1      47.839   4.064  16.544  0.00  0.00    +0.000 C 
ENDROOT
BRANCH   1   2
ATOM      2  C   UNL     1      49.198   4.732  16.759  0.00  0.00    +0.000 A 
ATOM      3  C   UNL     1      49.423   6.037  16.303  0.00  0.00    +0.000 A 
ATOM      4  C   UNL     1      50.666   6.652  16.482  0.00  0.00    +0.000 A 
ATOM      5  C   UNL     1      51.709   5.984  17.139  0.00  0.00    +0.000 A 
ATOM      6  C   UNL     1      51.481   4.687  17.615  0.00  0.00    +0.000 A 
ATOM      7  C   UNL     1      50.243   4.067  17.423  0.00  0.00    +0.000 A 
BRANCH   5   8
ATOM      8  C   UNL     1      53.059   6.641  17.323  0.00  0.00    +0.000 C 
BRANCH   8   9
ATOM      9  C   UNL     1      54.021   6.515  16.161  0.00  0.00    +0.000 A 
ATOM     10  C   UNL     1      53.906   7.336  15.040  0.00  0.00    +0.000 A 
ATOM     11  C   UNL     1      54.730   7.106  13.941  0.00  0.00    +0.000 A 
ATOM     12  C   UNL     1      55.649   6.067  13.985  0.00  0.00    +0.000 A 
ATOM     13  C   UNL     1      55.715   5.305  15.139  0.00  0.00    +0.000 A 
ATOM     14  N   UNL     1      54.926   5.503  16.219  0.00  0.00    +0.000 NA
ENDBRANCH   8   9
ENDBRANCH   5   8
ENDBRANCH   1   2
BRANCH   1  15
ATOM     15  N   UNL     1      47.094   4.848  15.567  0.00  0.00    +0.000 N 
ATOM     16  C   UNL     1      46.898   4.441  14.272  0.00  0.00    +0.000 C 
ATOM     17  O   UNL     1      47.201   3.323  13.870  0.00  0.00    +0.000 OA
ATOM     18  H   UNL     1      47.064   5.846  15.753  0.00  0.00    +0.000 HD
BRANCH  16  19
ATOM     19  C   UNL     1      46.244   5.411  13.388  0.00  0.00    +0.000 A 
ATOM     20  C   UNL     1      46.835   6.642  13.147  0.00  0.00    +0.000 A 
ATOM     21  S   UNL     1      45.920   7.643  12.111  0.00  0.00    +0.000 S 
ATOM     22  C   UNL     1      44.682   6.481  11.987  0.00  0.00    +0.000 A 
ATOM     23  N   UNL     1      43.554   6.726  11.272  0.00  0.00    +0.000 NA
ATOM     24  C   UNL     1      42.689   5.767  11.294  0.00  0.00    +0.000 A 
ATOM     25  N   UNL     1      42.857   4.579  11.954  0.00  0.00    +0.000 N 
ATOM     26  C   UNL     1      43.998   4.267  12.653  0.00  0.00    +0.000 A 
ATOM     27  O   UNL     1      44.152   3.166  13.168  0.00  0.00    +0.000 OA
ATOM     28  C   UNL     1      44.984   5.328  12.692  0.00  0.00    +0.000 A 
ATOM     29  H   UNL     1      42.155   3.853  11.908  0.00  0.00    +0.000 HD
ENDBRANCH  16  19
ENDBRANCH   1  15
BRANCH   1  30
ATOM     30  C   UNL     1      47.067   3.883  17.887  0.00  0.00    +0.000 C 
BRANCH  30  31
ATOM     31  N   UNL     1      46.575   5.137  18.479  0.00  0.00    +0.000 NA
ATOM     32  H   UNL     1      46.354   4.968  19.460  0.00  0.00    +0.000 HD
ATOM     33  H   UNL     1      45.698   5.400  18.030  0.00  0.00    +0.000 HD
ENDBRANCH  30  31
ENDBRANCH   1  30
TORSDOF 7
ENDMDL
MODEL 9
REMARK VINA RESULT:    -6.264      3.900      5.460
REMARK INTER + INTRA:          -9.593
REMARK INTER:                  -8.059
REMARK INTRA:                  -1.534
REMARK UNBOUND:                -0.949
REMARK  Name = 
REMARK  7 active torsions:
REMARK  status: ('A' for Active; 'I' for Inactive)
REMARK    1  A    between atoms: N_1  and  C_2
REMARK    2  A    between atoms: C_2  and  C_3
REMARK    3  A    between atoms: C_3  and  N_4
REMARK    4  A    between atoms: C_3  and  C_17
REMARK    5  A    between atoms: C_5  and  C_7
REMARK    6  A    between atoms: C_20  and  C_21
REMARK    7  A    between atoms: C_21  and  C_22
REMARK                            x       y       z     vdW  Elec       q    Type
REMARK                         _______ _______ _______ _____ _____    ______ ____
ROOT
ATOM      1  C   UNL     1      48.005   7.907  14.018  0.00  0.00    +0.000 C 
ENDROOT
BRANCH   1   2
ATOM      2  C   UNL     1      47.033   7.099  13.157  0.00  0.00    +0.000 A 
ATOM      3  C   UNL     1      46.940   5.711  13.312  0.00  0.00    +0.000 A 
ATOM      4  C   UNL     1      46.065   4.960  12.521  0.00  0.00    +0.000 A 
ATOM      5  C   UNL     1      45.246   5.584  11.569  0.00  0.00    +0.000 A 
ATOM      6  C   UNL     1      45.320   6.974  11.425  0.00  0.00    +0.000 A 
ATOM      7  C   UNL     1      46.207   7.722  12.207  0.00  0.00    +0.000 A 
BRANCH   5   8
ATOM      8  C   UNL     1      44.307   4.774  10.701  0.00  0.00    +0.000 C 
BRANCH   8   9
ATOM      9  C   UNL     1      44.961   3.893   9.659  0.00  0.00    +0.000 A 
ATOM     10  C   UNL     1      45.612   4.446   8.556  0.00  0.00    +0.000 A 
ATOM     11  C   UNL     1      46.091   3.603   7.557  0.00  0.00    +0.000 A 
ATOM     12  C   UNL     1      45.914   2.232   7.679  0.00  0.00    +0.000 A 
ATOM     13  C   UNL     1      45.273   1.757   8.810  0.00  0.00    +0.000 A 
ATOM     14  N   UNL     1      44.794   2.551   9.794  0.00  0.00    +0.000 NA
ENDBRANCH   8   9
ENDBRANCH   5   8
ENDBRANCH   1   2
BRANCH   1  15
ATOM     15  N   UNL     1      49.026   8.474  13.145  0.00  0.00    +0.000 N 
ATOM     16  C   UNL     1      49.299   9.817  13.086  0.00  0.00    +0.000 C 
ATOM     17  O   UNL     1      48.816  10.633  13.863  0.00  0.00    +0.000 OA
ATOM     18  H   UNL     1      49.246   7.915  12.327  0.00  0.00    +0.000 HD
BRANCH  16  19
ATOM     19  C   UNL     1      50.259  10.230  12.057  0.00  0.00    +0.000 A 
ATOM     20  C   UNL     1      49.877  11.121  11.065  0.00  0.00    +0.000 A 
ATOM     21  S   UNL     1      51.119  11.467   9.948  0.00  0.00    +0.000 S 
ATOM     22  C   UNL     1      52.195  10.402  10.727  0.00  0.00    +0.000 A 
ATOM     23  N   UNL     1      53.445  10.185  10.245  0.00  0.00    +0.000 NA
ATOM     24  C   UNL     1      54.137   9.328  10.919  0.00  0.00    +0.000 A 
ATOM     25  N   UNL     1      53.697   8.680  12.042  0.00  0.00    +0.000 N 
ATOM     26  C   UNL     1      52.457   8.899  12.594  0.00  0.00    +0.000 A 
ATOM     27  O   UNL     1      52.120   8.363  13.643  0.00  0.00    +0.000 OA
ATOM     28  C   UNL     1      51.626   9.824  11.849  0.00  0.00    +0.000 A 
ATOM     29  H   UNL     1      54.297   8.042  12.546  0.00  0.00    +0.000 HD
ENDBRANCH  16  19
ENDBRANCH   1  15
BRANCH   1  30
ATOM     30  C   UNL     1      48.607   7.046  15.170  0.00  0.00    +0.000 C 
BRANCH  30  31
ATOM     31  N   UNL     1      50.046   6.768  15.033  0.00  0.00    +0.000 NA
ATOM     32  H   UNL     1      50.444   7.437  14.376  0.00  0.00    +0.000 HD
ATOM     33  H   UNL     1      50.172   5.846  14.616  0.00  0.00    +0.000 HD
ENDBRANCH  30  31
ENDBRANCH   1  30
TORSDOF 7
ENDMDL
