MODEL 1
REMARK VINA RESULT:    -7.352      0.000      0.000
REMARK INTER + INTRA:         -10.542
REMARK INTER:                  -9.930
REMARK INTRA:                  -0.612
REMARK UNBOUND:                -0.612
REMARK  Name = 
REMARK  7 active torsions:
REMARK  status: ('A' for Active; 'I' for Inactive)
REMARK    1  A    between atoms: N_1  and  C_2
REMARK    2  A    between atoms: C_2  and  C_3
REMARK    3  A    between atoms: C_6  and  O_7
REMARK    4  A    between atoms: O_7  and  C_8
REMARK    5  A    between atoms: C_8  and  C_9
REMARK    6  A    between atoms: CA_13  and  C_14
REMARK    7  A    between atoms: C_14  and  OXT_16
REMARK                            x       y       z     vdW  Elec       q    Type
REMARK                         _______ _______ _______ _____ _____    ______ ____
ROOT
ATOM      1  O   UNL     1      44.199   5.178  10.708  0.00  0.00    +0.000 OA
ENDROOT
BRANCH   1   5
ATOM      2  C   UNL     1      46.020   2.377   8.165  0.00  0.00    +0.000 A 
ATOM      3  C   UNL     1      46.211   3.747   7.950  0.00  0.00    +0.000 A 
ATOM      4  C   UNL     1      45.593   4.693   8.767  0.00  0.00    +0.000 A 
ATOM      5  C   UNL     1      44.787   4.290   9.837  0.00  0.00    +0.000 A 
ATOM      6  C   UNL     1      44.558   2.919  10.032  0.00  0.00    +0.000 A 
ATOM      7 CL   UNL     1      43.534   2.349  11.302  0.00  0.00    +0.000 Cl
ATOM      8  C   UNL     1      45.174   1.971   9.206  0.00  0.00    +0.000 A 
BRANCH   2   9
ATOM      9  C   UNL     1      46.714   1.378   7.276  0.00  0.00    +0.000 C 
BRANCH   9  10
ATOM     10  N   UNL     1      46.718   0.052   7.883  0.00  0.00    +0.000 NA
ATOM     11  H   UNL     1      46.530  -0.645   7.166  0.00  0.00    +0.000 HD
ATOM     12  H   UNL     1      45.950  -0.008   8.550  0.00  0.00    +0.000 HD
ENDBRANCH   9  10
ENDBRANCH   2   9
ENDBRANCH   1   5
BRANCH   1  13
ATOM     13  C   UNL     1      44.902   6.407  10.886  0.00  0.00    +0.000 C 
BRANCH  13  14
ATOM     14  C   UNL     1      46.052   6.255  11.852  0.00  0.00    +0.000 A 
ATOM     15  C   UNL     1      47.219   7.009  11.665  0.00  0.00    +0.000 A 
ATOM     16  C   UNL     1      48.297   6.808  12.517  0.00  0.00    +0.000 A 
ATOM     17  N   UNL     1      48.300   5.914  13.527  0.00  0.00    +0.000 NA
ATOM     18  CA  UNL     1      47.155   5.183  13.677  0.00  0.00    +0.000 A 
ATOM     19  C   UNL     1      46.029   5.309  12.878  0.00  0.00    +0.000 A 
BRANCH  18  20
ATOM     20  C   UNL     1      47.175   4.180  14.781  0.00  0.00    +0.000 C 
ATOM     21  O   UNL     1      47.459   3.003  14.656  0.00  0.00    +0.000 OA
BRANCH  20  22
ATOM     22  OXT UNL     1      46.835   4.767  15.955  0.00  0.00    +0.000 OA
ATOM     23  HXT UNL     1      47.418   4.400  16.664  0.00  0.00    +0.000 HD
ENDBRANCH  20  22
ENDBRANCH  18  20
ENDBRANCH  13  14
ENDBRANCH   1  13
TORSDOF 7
ENDMDL
MODEL 2
REMARK VINA RESULT:    -7.020      1.741      2.212
REMARK INTER + INTRA:         -10.093
REMARK INTER:                  -9.358
REMARK INTRA:                  -0.735
REMARK UNBOUND:                -0.612
REMARK  Name = 
REMARK  7 active torsions:
REMARK  status: ('A' for Active; 'I' for Inactive)
REMARK    1  A    between atoms: N_1  and  C_2
REMARK    2  A    between atoms: C_2  and  C_3
REMARK    3  A    between atoms: C_6  and  O_7
REMARK    4  A    between atoms: O_7  and  C_8
REMARK    5  A    between atoms: C_8  and  C_9
REMARK    6  A    between atoms: CA_13  and  C_14
REMARK    7  A    between atoms: C_14  and  OXT_16
REMARK                            x       y       z     vdW  Elec       q    Type
REMARK                         _______ _______ _______ _____ _____    ______ ____
ROOT
ATOM      1  O   UNL     1      44.260   4.975  10.255  0.00  0.00    +0.000 OA
ENDROOT
BRANCH   1   5
ATOM      2  C   UNL     1      46.350   2.284   7.802  0.00  0.00    +0.000 A 
ATOM      3  C   UNL     1      46.432   3.661   7.562  0.00  0.00    +0.000 A 
ATOM      4  C   UNL     1      45.724   4.569   8.349  0.00  0.00    +0.000 A 
ATOM      5  C   UNL     1      44.934   4.122   9.413  0.00  0.00    +0.000 A 
ATOM      6  C   UNL     1      44.814   2.741   9.632  0.00  0.00    +0.000 A 
ATOM      7 CL   UNL     1      43.817   2.113  10.896  0.00  0.00    +0.000 Cl
ATOM      8  C   UNL     1      45.520   1.830   8.836  0.00  0.00    +0.000 A 
BRANCH   2   9
ATOM      9  C   UNL     1      47.139   1.329   6.946  0.00  0.00    +0.000 C 
BRANCH   9  10
ATOM     10  N   UNL     1      48.409   1.919   6.537  0.00  0.00    +0.000 NA
ATOM     11  H   UNL     1      48.244   2.859   6.186  0.00  0.00    +0.000 HD
ATOM     12  H   UNL     1      48.787   1.383   5.757  0.00  0.00    +0.000 HD
ENDBRANCH   9  10
ENDBRANCH   2   9
ENDBRANCH   1   5
BRANCH   1  13
ATOM     13  C   UNL     1      44.980   6.146  10.635  0.00  0.00    +0.000 C 
BRANCH  13  14
ATOM     14  C   UNL     1      45.943   5.867  11.763  0.00  0.00    +0.000 A 
ATOM     15  C   UNL     1      45.575   4.982  12.786  0.00  0.00    +0.000 A 
ATOM     16  C   UNL     1      46.439   4.788  13.855  0.00  0.00    +0.000 A 
ATOM     17  N   UNL     1      47.630   5.410  13.981  0.00  0.00    +0.000 NA
ATOM     18  CA  UNL     1      47.957   6.277  12.976  0.00  0.00    +0.000 A 
ATOM     19  C   UNL     1      47.161   6.539  11.872  0.00  0.00    +0.000 A 
BRANCH  18  20
ATOM     20  C   UNL     1      49.263   6.980  13.135  0.00  0.00    +0.000 C 
ATOM     21  O   UNL     1      49.819   7.633  12.272  0.00  0.00    +0.000 OA
BRANCH  20  22
ATOM     22  OXT UNL     1      49.747   6.793  14.388  0.00  0.00    +0.000 OA
ATOM     23  HXT UNL     1      49.797   7.673  14.834  0.00  0.00    +0.000 HD
ENDBRANCH  20  22
ENDBRANCH  18  20
ENDBRANCH  13  14
ENDBRANCH   1  13
TORSDOF 7
ENDMDL
MODEL 3
REMARK VINA RESULT:    -6.817      1.740      2.251
REMARK INTER + INTRA:          -9.820
REMARK INTER:                  -9.017
REMARK INTRA:                  -0.803
REMARK UNBOUND:                -0.612
REMARK  Name = 
REMARK  7 active torsions:
REMARK  status: ('A' for Active; 'I' for Inactive)
REMARK    1  A    between atoms: N_1  and  C_2
REMARK    2  A    between atoms: C_2  and  C_3
REMARK    3  A    between atoms: C_6  and  O_7
REMARK    4  A    between atoms: O_7  and  C_8
REMARK    5  A    between atoms: C_8  and  C_9
REMARK    6  A    between atoms: CA_13  and  C_14
REMARK    7  A    between atoms: C_14  and  OXT_16
REMARK                            x       y       z     vdW  Elec       q    Type
REMARK                         _______ _______ _______ _____ _____    ______ ____
ROOT
ATOM      1  O   UNL     1      43.677   4.099   9.881  0.00  0.00    +0.000 OA
ENDROOT
BRANCH   1   5
ATOM      2  C   UNL     1      46.491   1.778   7.800  0.00  0.00    +0.000 A 
ATOM      3  C   UNL     1      45.398   1.164   8.423  0.00  0.00    +0.000 A 
ATOM      4  C   UNL     1      44.468   1.915   9.141  0.00  0.00    +0.000 A 
ATOM      5  C   UNL     1      44.594   3.305   9.234  0.00  0.00    +0.000 A 
ATOM      6  C   UNL     1      45.710   3.921   8.647  0.00  0.00    +0.000 A 
ATOM      7 CL   UNL     1      45.960   5.628   8.762  0.00  0.00    +0.000 Cl
ATOM      8  C   UNL     1      46.648   3.165   7.932  0.00  0.00    +0.000 A 
BRANCH   2   9
ATOM      9  C   UNL     1      47.470   0.944   7.017  0.00  0.00    +0.000 C 
BRANCH   9  10
ATOM     10  N   UNL     1      48.272   1.776   6.128  0.00  0.00    +0.000 NA
ATOM     11  H   UNL     1      47.667   2.445   5.658  0.00  0.00    +0.000 HD
ATOM     12  H   UNL     1      48.673   1.188   5.398  0.00  0.00    +0.000 HD
ENDBRANCH   9  10
ENDBRANCH   2   9
ENDBRANCH   1   5
BRANCH   1  13
ATOM     13  C   UNL     1      43.502   3.816  11.268  0.00  0.00    +0.000 C 
BRANCH  13  14
ATOM     14  C   UNL     1      44.441   4.630  12.125  0.00  0.00    +0.000 A 
ATOM     15  C   UNL     1      44.526   6.016  11.936  0.00  0.00    +0.000 A 
ATOM     16  C   UNL     1      45.445   6.745  12.680  0.00  0.00    +0.000 A 
ATOM     17  N   UNL     1      46.281   6.196  13.586  0.00  0.00    +0.000 NA
ATOM     18  CA  UNL     1      46.185   4.841  13.740  0.00  0.00    +0.000 A 
ATOM     19  C   UNL     1      45.304   4.029  13.043  0.00  0.00    +0.000 A 
BRANCH  18  20
ATOM     20  C   UNL     1      47.129   4.239  14.726  0.00  0.00    +0.000 C 
ATOM     21  O   UNL     1      47.587   3.114  14.663  0.00  0.00    +0.000 OA
BRANCH  20  22
ATOM     22  OXT UNL     1      47.415   5.131  15.706  0.00  0.00    +0.000 OA
ATOM     23  HXT UNL     1      47.448   4.645  16.566  0.00  0.00    +0.000 HD
ENDBRANCH  20  22
ENDBRANCH  18  20
ENDBRANCH  13  14
ENDBRANCH   1  13
TORSDOF 7
ENDMDL
MODEL 4
REMARK VINA RESULT:    -6.541      2.498      6.516
REMARK INTER + INTRA:          -9.446
REMARK INTER:                  -8.829
REMARK INTRA:                  -0.618
REMARK UNBOUND:                -0.612
REMARK  Name = 
REMARK  7 active torsions:
REMARK  status: ('A' for Active; 'I' for Inactive)
REMARK    1  A    between atoms: N_1  and  C_2
REMARK    2  A    between atoms: C_2  and  C_3
REMARK    3  A    between atoms: C_6  and  O_7
REMARK    4  A    between atoms: O_7  and  C_8
REMARK    5  A    between atoms: C_8  and  C_9
REMARK    6  A    between atoms: CA_13  and  C_14
REMARK    7  A    between atoms: C_14  and  OXT_16
REMARK                            x       y       z     vdW  Elec       q    Type
REMARK                         _______ _______ _______ _____ _____    ______ ____
ROOT
ATOM      1  O   UNL     1      44.851   5.412  10.898  0.00  0.00    +0.000 OA
ENDROOT
BRANCH   1   5
ATOM      2  C   UNL     1      47.693   6.683  13.715  0.00  0.00    +0.000 A 
ATOM      3  C   UNL     1      47.242   7.566  12.727  0.00  0.00    +0.000 A 
ATOM      4  C   UNL     1      46.319   7.154  11.766  0.00  0.00    +0.000 A 
ATOM      5  C   UNL     1      45.804   5.854  11.785  0.00  0.00    +0.000 A 
ATOM      6  C   UNL     1      46.283   4.952  12.748  0.00  0.00    +0.000 A 
ATOM      7 CL   UNL     1      45.731   3.315  12.803  0.00  0.00    +0.000 Cl
ATOM      8  C   UNL     1      47.216   5.364  13.708  0.00  0.00    +0.000 A 
BRANCH   2   9
ATOM      9  C   UNL     1      48.677   7.160  14.750  0.00  0.00    +0.000 C 
BRANCH   9  10
ATOM     10  N   UNL     1      49.172   6.048  15.554  0.00  0.00    +0.000 NA
ATOM     11  H   UNL     1      48.733   6.076  16.471  0.00  0.00    +0.000 HD
ATOM     12  H   UNL     1      50.172   6.172  15.710  0.00  0.00    +0.000 HD
ENDBRANCH   9  10
ENDBRANCH   2   9
ENDBRANCH   1   5
BRANCH   1  13
ATOM     13  C   UNL     1      45.218   5.498   9.522  0.00  0.00    +0.000 C 
BRANCH  13  14
ATOM     14  C   UNL     1      45.473   4.135   8.927  0.00  0.00    +0.000 A 
ATOM     15  C   UNL     1      44.885   3.003   9.510  0.00  0.00    +0.000 A 
ATOM     16  C   UNL     1      45.184   1.747   8.998  0.00  0.00    +0.000 A 
ATOM     17  N   UNL     1      46.023   1.538   7.962  0.00  0.00    +0.000 NA
ATOM     18  CA  UNL     1      46.592   2.658   7.423  0.00  0.00    +0.000 A 
ATOM     19  C   UNL     1      46.359   3.951   7.864  0.00  0.00    +0.000 A 
BRANCH  18  20
ATOM     20  C   UNL     1      47.537   2.417   6.294  0.00  0.00    +0.000 C 
ATOM     21  O   UNL     1      48.381   1.541   6.259  0.00  0.00    +0.000 OA
BRANCH  20  22
ATOM     22  OXT UNL     1      47.319   3.312   5.299  0.00  0.00    +0.000 OA
ATOM     23  HXT UNL     1      48.192   3.680   5.018  0.00  0.00    +0.000 HD
ENDBRANCH  20  22
ENDBRANCH  18  20
ENDBRANCH  13  14
ENDBRANCH   1  13
TORSDOF 7
ENDMDL
MODEL 5
REMARK VINA RESULT:    -6.497      2.495      3.722
REMARK INTER + INTRA:          -9.388
REMARK INTER:                  -9.024
REMARK INTRA:                  -0.363
REMARK UNBOUND:                -0.612
REMARK  Name = 
REMARK  7 active torsions:
REMARK  status: ('A' for Active; 'I' for Inactive)
REMARK    1  A    between atoms: N_1  and  C_2
REMARK    2  A    between atoms: C_2  and  C_3
REMARK    3  A    between atoms: C_6  and  O_7
REMARK    4  A    between atoms: O_7  and  C_8
REMARK    5  A    between atoms: C_8  and  C_9
REMARK    6  A    between atoms: CA_13  and  C_14
REMARK    7  A    between atoms: C_14  and  OXT_16
REMARK                            x       y       z     vdW  Elec       q    Type
REMARK                         _______ _______ _______ _____ _____    ______ ____
ROOT
ATOM      1  O   UNL     1      44.280   4.895  10.229  0.00  0.00    +0.000 OA
ENDROOT
BRANCH   1   5
ATOM      2  C   UNL     1      46.371   2.196   7.785  0.00  0.00    +0.000 A 
ATOM      3  C   UNL     1      46.490   3.574   7.570  0.00  0.00    +0.000 A 
ATOM      4  C   UNL     1      45.783   4.485   8.354  0.00  0.00    +0.000 A 
ATOM      5  C   UNL     1      44.956   4.040   9.390  0.00  0.00    +0.000 A 
ATOM      6  C   UNL     1      44.800   2.659   9.584  0.00  0.00    +0.000 A 
ATOM      7 CL   UNL     1      43.756   2.034  10.812  0.00  0.00    +0.000 Cl
ATOM      8  C   UNL     1      45.505   1.745   8.791  0.00  0.00    +0.000 A 
BRANCH   2   9
ATOM      9  C   UNL     1      47.160   1.236   6.934  0.00  0.00    +0.000 C 
BRANCH   9  10
ATOM     10  N   UNL     1      48.384   1.858   6.441  0.00  0.00    +0.000 NA
ATOM     11  H   UNL     1      49.111   1.151   6.363  0.00  0.00    +0.000 HD
ATOM     12  H   UNL     1      48.711   2.534   7.130  0.00  0.00    +0.000 HD
ENDBRANCH   9  10
ENDBRANCH   2   9
ENDBRANCH   1   5
BRANCH   1  13
ATOM     13  C   UNL     1      44.832   5.022  11.538  0.00  0.00    +0.000 C 
BRANCH  13  14
ATOM     14  C   UNL     1      45.252   6.442  11.830  0.00  0.00    +0.000 A 
ATOM     15  C   UNL     1      46.352   6.683  12.665  0.00  0.00    +0.000 A 
ATOM     16  C   UNL     1      46.685   7.993  12.984  0.00  0.00    +0.000 A 
ATOM     17  N   UNL     1      46.004   9.070  12.541  0.00  0.00    +0.000 NA
ATOM     18  CA  UNL     1      44.929   8.805  11.739  0.00  0.00    +0.000 A 
ATOM     19  C   UNL     1      44.517   7.535  11.367  0.00  0.00    +0.000 A 
BRANCH  18  20
ATOM     20  C   UNL     1      44.168  10.000  11.272  0.00  0.00    +0.000 C 
ATOM     21  O   UNL     1      43.926  10.985  11.944  0.00  0.00    +0.000 OA
BRANCH  20  22
ATOM     22  OXT UNL     1      43.784   9.838   9.982  0.00  0.00    +0.000 OA
ATOM     23  HXT UNL     1      43.996  10.668   9.490  0.00  0.00    +0.000 HD
ENDBRANCH  20  22
ENDBRANCH  18  20
ENDBRANCH  13  14
ENDBRANCH   1  13
TORSDOF 7
ENDMDL
MODEL 6
REMARK VINA RESULT:    -6.489      2.338      3.084
REMARK INTER + INTRA:          -9.377
REMARK INTER:                  -8.741
REMARK INTRA:                  -0.636
REMARK UNBOUND:                -0.612
REMARK  Name = 
REMARK  7 active torsions:
REMARK  status: ('A' for Active; 'I' for Inactive)
REMARK    1  A    between atoms: N_1  and  C_2
REMARK    2  A    between atoms: C_2  and  C_3
REMARK    3  A    between atoms: C_6  and  O_7
REMARK    4  A    between atoms: O_7  and  C_8
REMARK    5  A    between atoms: C_8  and  C_9
REMARK    6  A    between atoms: CA_13  and  C_14
REMARK    7  A    between atoms: C_14  and  OXT_16
REMARK                            x       y       z     vdW  Elec       q    Type
REMARK                         _______ _______ _______ _____ _____    ______ ____
ROOT
ATOM      1  O   UNL     1      43.812   3.924  10.405  0.00  0.00    +0.000 OA
ENDROOT
BRANCH   1   5
ATOM      2  C   UNL     1      46.466   2.225   7.630  0.00  0.00    +0.000 A 
ATOM      3  C   UNL     1      45.578   1.409   8.342  0.00  0.00    +0.000 A 
ATOM      4  C   UNL     1      44.708   1.951   9.287  0.00  0.00    +0.000 A 
ATOM      5  C   UNL     1      44.687   3.329   9.526  0.00  0.00    +0.000 A 
ATOM      6  C   UNL     1      45.603   4.147   8.846  0.00  0.00    +0.000 A 
ATOM      7 CL   UNL     1      45.670   5.851   9.126  0.00  0.00    +0.000 Cl
ATOM      8  C   UNL     1      46.481   3.600   7.902  0.00  0.00    +0.000 A 
BRANCH   2   9
ATOM      9  C   UNL     1      47.382   1.613   6.603  0.00  0.00    +0.000 C 
BRANCH   9  10
ATOM     10  N   UNL     1      48.545   2.461   6.368  0.00  0.00    +0.000 NA
ATOM     11  H   UNL     1      48.408   2.988   5.508  0.00  0.00    +0.000 HD
ATOM     12  H   UNL     1      49.361   1.869   6.216  0.00  0.00    +0.000 HD
ENDBRANCH   9  10
ENDBRANCH   2   9
ENDBRANCH   1   5
BRANCH   1  13
ATOM     13  C   UNL     1      44.045   3.632  11.782  0.00  0.00    +0.000 C 
BRANCH  13  14
ATOM     14  C   UNL     1      45.075   4.558  12.381  0.00  0.00    +0.000 A 
ATOM     15  C   UNL     1      46.153   4.024  13.101  0.00  0.00    +0.000 A 
ATOM     16  C   UNL     1      47.054   4.888  13.709  0.00  0.00    +0.000 A 
ATOM     17  N   UNL     1      46.956   6.232  13.657  0.00  0.00    +0.000 NA
ATOM     18  CA  UNL     1      45.888   6.725  12.960  0.00  0.00    +0.000 A 
ATOM     19  C   UNL     1      44.936   5.945  12.323  0.00  0.00    +0.000 A 
BRANCH  18  20
ATOM     20  C   UNL     1      45.774   8.212  12.929  0.00  0.00    +0.000 C 
ATOM     21  O   UNL     1      45.142   8.851  12.109  0.00  0.00    +0.000 OA
BRANCH  20  22
ATOM     22  OXT UNL     1      46.473   8.759  13.954  0.00  0.00    +0.000 OA
ATOM     23  HXT UNL     1      46.161   8.346  14.796  0.00  0.00    +0.000 HD
ENDBRANCH  20  22
ENDBRANCH  18  20
ENDBRANCH  13  14
ENDBRANCH   1  13
TORSDOF 7
ENDMDL
MODEL 7
REMARK VINA RESULT:    -6.116      2.829      6.680
REMARK INTER + INTRA:          -8.873
REMARK INTER:                  -8.257
REMARK INTRA:                  -0.616
REMARK UNBOUND:                -0.612
REMARK  Name = 
REMARK  7 active torsions:
REMARK  status: ('A' for Active; 'I' for Inactive)
REMARK    1  A    between atoms: N_1  and  C_2
REMARK    2  A    between atoms: C_2  and  C_3
REMARK    3  A    between atoms: C_6  and  O_7
REMARK    4  A    between atoms: O_7  and  C_8
REMARK    5  A    between atoms: C_8  and  C_9
REMARK    6  A    between atoms: CA_13  and  C_14
REMARK    7  A    between atoms: C_14  and  OXT_16
REMARK                            x       y       z     vdW  Elec       q    Type
REMARK                         _______ _______ _______ _____ _____    ______ ____
ROOT
ATOM      1  O   UNL     1      47.598   6.177  12.455  0.00  0.00    +0.000 OA
ENDROOT
BRANCH   1   5
ATOM      2  C   UNL     1      47.869   5.203  16.530  0.00  0.00    +0.000 A 
ATOM      3  C   UNL     1      48.483   6.364  16.044  0.00  0.00    +0.000 A 
ATOM      4  C   UNL     1      48.426   6.690  14.689  0.00  0.00    +0.000 A 
ATOM      5  C   UNL     1      47.733   5.875  13.790  0.00  0.00    +0.000 A 
ATOM      6  C   UNL     1      47.151   4.688  14.263  0.00  0.00    +0.000 A 
ATOM      7 CL   UNL     1      46.322   3.606  13.202  0.00  0.00    +0.000 Cl
ATOM      8  C   UNL     1      47.215   4.358  15.623  0.00  0.00    +0.000 A 
BRANCH   2   9
ATOM      9  C   UNL     1      47.932   4.885  18.000  0.00  0.00    +0.000 C 
BRANCH   9  10
ATOM     10  N   UNL     1      46.647   5.134  18.645  0.00  0.00    +0.000 NA
ATOM     11  H   UNL     1      46.439   6.129  18.605  0.00  0.00    +0.000 HD
ATOM     12  H   UNL     1      46.722   4.895  19.634  0.00  0.00    +0.000 HD
ENDBRANCH   9  10
ENDBRANCH   2   9
ENDBRANCH   1   5
BRANCH   1  13
ATOM     13  C   UNL     1      46.484   7.009  12.131  0.00  0.00    +0.000 C 
BRANCH  13  14
ATOM     14  C   UNL     1      45.436   6.255  11.349  0.00  0.00    +0.000 A 
ATOM     15  C   UNL     1      44.120   6.198  11.830  0.00  0.00    +0.000 A 
ATOM     16  C   UNL     1      43.181   5.442  11.140  0.00  0.00    +0.000 A 
ATOM     17  N   UNL     1      43.457   4.741  10.021  0.00  0.00    +0.000 NA
ATOM     18  CA  UNL     1      44.751   4.804   9.583  0.00  0.00    +0.000 A 
ATOM     19  C   UNL     1      45.758   5.527  10.203  0.00  0.00    +0.000 A 
BRANCH  18  20
ATOM     20  C   UNL     1      45.053   4.007   8.359  0.00  0.00    +0.000 C 
ATOM     21  O   UNL     1      45.924   4.265   7.550  0.00  0.00    +0.000 OA
BRANCH  20  22
ATOM     22  OXT UNL     1      44.219   2.941   8.276  0.00  0.00    +0.000 OA
ATOM     23  HXT UNL     1      44.657   2.248   7.723  0.00  0.00    +0.000 HD
ENDBRANCH  20  22
ENDBRANCH  18  20
ENDBRANCH  13  14
ENDBRANCH   1  13
TORSDOF 7
ENDMDL
MODEL 8
REMARK VINA RESULT:    -6.113      2.485      5.991
REMARK INTER + INTRA:          -8.869
REMARK INTER:                  -7.986
REMARK INTRA:                  -0.883
REMARK UNBOUND:                -0.612
REMARK  Name = 
REMARK  7 active torsions:
REMARK  status: ('A' for Active; 'I' for Inactive)
REMARK    1  A    between atoms: N_1  and  C_2
REMARK    2  A    between atoms: C_2  and  C_3
REMARK    3  A    between atoms: C_6  and  O_7
REMARK    4  A    between atoms: O_7  and  C_8
REMARK    5  A    between atoms: C_8  and  C_9
REMARK    6  A    between atoms: CA_13  and  C_14
REMARK    7  A    between atoms: C_14  and  OXT_16
REMARK                            x       y       z     vdW  Elec       q    Type
REMARK                         _______ _______ _______ _____ _____    ______ ____
ROOT
ATOM      1  O   UNL     1      44.664   6.574  12.822  0.00  0.00    +0.000 OA
ENDROOT
BRANCH   1   5
ATOM      2  C   UNL     1      48.752   7.506  12.600  0.00  0.00    +0.000 A 
ATOM      3  C   UNL     1      47.798   8.425  12.147  0.00  0.00    +0.000 A 
ATOM      4  C   UNL     1      46.437   8.122  12.188  0.00  0.00    +0.000 A 
ATOM      5  C   UNL     1      45.995   6.901  12.706  0.00  0.00    +0.000 A 
ATOM      6  C   UNL     1      46.949   5.959  13.123  0.00  0.00    +0.000 A 
ATOM      7 CL   UNL     1      46.479   4.410  13.728  0.00  0.00    +0.000 Cl
ATOM      8  C   UNL     1      48.315   6.261  13.075  0.00  0.00    +0.000 A 
BRANCH   2   9
ATOM      9  C   UNL     1      50.214   7.866  12.560  0.00  0.00    +0.000 C 
BRANCH   9  10
ATOM     10  N   UNL     1      50.845   7.357  11.348  0.00  0.00    +0.000 NA
ATOM     11  H   UNL     1      50.535   7.908  10.551  0.00  0.00    +0.000 HD
ATOM     12  H   UNL     1      50.522   6.404  11.182  0.00  0.00    +0.000 HD
ENDBRANCH   9  10
ENDBRANCH   2   9
ENDBRANCH   1   5
BRANCH   1  13
ATOM     13  C   UNL     1      43.950   6.499  11.589  0.00  0.00    +0.000 C 
BRANCH  13  14
ATOM     14  C   UNL     1      43.984   5.106  11.010  0.00  0.00    +0.000 A 
ATOM     15  C   UNL     1      43.331   4.060  11.678  0.00  0.00    +0.000 A 
ATOM     16  C   UNL     1      43.429   2.770  11.174  0.00  0.00    +0.000 A 
ATOM     17  N   UNL     1      44.130   2.448  10.067  0.00  0.00    +0.000 NA
ATOM     18  CA  UNL     1      44.767   3.485   9.443  0.00  0.00    +0.000 A 
ATOM     19  C   UNL     1      44.731   4.803   9.871  0.00  0.00    +0.000 A 
BRANCH  18  20
ATOM     20  C   UNL     1      45.559   3.116   8.234  0.00  0.00    +0.000 C 
ATOM     21  O   UNL     1      45.795   3.855   7.297  0.00  0.00    +0.000 OA
BRANCH  20  22
ATOM     22  OXT UNL     1      45.990   1.834   8.328  0.00  0.00    +0.000 OA
ATOM     23  HXT UNL     1      46.895   1.840   8.726  0.00  0.00    +0.000 HD
ENDBRANCH  20  22
ENDBRANCH  18  20
ENDBRANCH  13  14
ENDBRANCH   1  13
TORSDOF 7
ENDMDL
MODEL 9
REMARK VINA RESULT:    -5.933      3.358      7.290
REMARK INTER + INTRA:          -8.626
REMARK INTER:                  -8.074
REMARK INTRA:                  -0.552
REMARK UNBOUND:                -0.612
REMARK  Name = 
REMARK  7 active torsions:
REMARK  status: ('A' for Active; 'I' for Inactive)
REMARK    1  A    between atoms: N_1  and  C_2
REMARK    2  A    between atoms: C_2  and  C_3
REMARK    3  A    between atoms: C_6  and  O_7
REMARK    4  A    between atoms: O_7  and  C_8
REMARK    5  A    between atoms: C_8  and  C_9
REMARK    6  A    between atoms: CA_13  and  C_14
REMARK    7  A    between atoms: C_14  and  OXT_16
REMARK                            x       y       z     vdW  Elec       q    Type
REMARK                         _______ _______ _______ _____ _____    ______ ____
ROOT
ATOM      1  O   UNL     1      47.215   5.354  13.504  0.00  0.00    +0.000 OA
ENDROOT
BRANCH   1   5
ATOM      2  C   UNL     1      48.295   4.689  17.506  0.00  0.00    +0.000 A 
ATOM      3  C   UNL     1      47.487   3.763  16.834  0.00  0.00    +0.000 A 
ATOM      4  C   UNL     1      47.096   3.980  15.513  0.00  0.00    +0.000 A 
ATOM      5  C   UNL     1      47.524   5.119  14.822  0.00  0.00    +0.000 A 
ATOM      6  C   UNL     1      48.299   6.071  15.504  0.00  0.00    +0.000 A 
ATOM      7 CL   UNL     1      48.823   7.525  14.730  0.00  0.00    +0.000 Cl
ATOM      8  C   UNL     1      48.685   5.855  16.832  0.00  0.00    +0.000 A 
BRANCH   2   9
ATOM      9  C   UNL     1      48.716   4.420  18.927  0.00  0.00    +0.000 C 
BRANCH   9  10
ATOM     10  N   UNL     1      48.282   3.097  19.360  0.00  0.00    +0.000 NA
ATOM     11  H   UNL     1      48.841   2.390  18.887  0.00  0.00    +0.000 HD
ATOM     12  H   UNL     1      47.319   2.950  19.060  0.00  0.00    +0.000 HD
ENDBRANCH   9  10
ENDBRANCH   2   9
ENDBRANCH   1   5
BRANCH   1  13
ATOM     13  C   UNL     1      45.908   5.876  13.272  0.00  0.00    +0.000 C 
BRANCH  13  14
ATOM     14  C   UNL     1      45.133   5.022  12.296  0.00  0.00    +0.000 A 
ATOM     15  C   UNL     1      44.162   4.131  12.774  0.00  0.00    +0.000 A 
ATOM     16  C   UNL     1      43.507   3.300  11.875  0.00  0.00    +0.000 A 
ATOM     17  N   UNL     1      43.752   3.288  10.548  0.00  0.00    +0.000 NA
ATOM     18  CA  UNL     1      44.713   4.157  10.112  0.00  0.00    +0.000 A 
ATOM     19  C   UNL     1      45.422   5.023  10.931  0.00  0.00    +0.000 A 
BRANCH  18  20
ATOM     20  C   UNL     1      44.994   4.121   8.648  0.00  0.00    +0.000 C 
ATOM     21  O   UNL     1      45.871   4.750   8.085  0.00  0.00    +0.000 OA
BRANCH  20  22
ATOM     22  OXT UNL     1      44.135   3.277   8.026  0.00  0.00    +0.000 OA
ATOM     23  HXT UNL     1      44.595   2.889   7.242  0.00  0.00    +0.000 HD
ENDBRANCH  20  22
ENDBRANCH  18  20
ENDBRANCH  13  14
ENDBRANCH   1  13
TORSDOF 7
ENDMDL
