MODEL 1
REMARK VINA RESULT:    -8.233      0.000      0.000
REMARK INTER + INTRA:         -10.139
REMARK INTER:                  -9.917
REMARK INTRA:                  -0.222
REMARK UNBOUND:                -0.222
REMARK  Name = 
REMARK  4 active torsions:
REMARK  status: ('A' for Active; 'I' for Inactive)
REMARK    1  A    between atoms: C_2  and  C_4
REMARK    2  A    between atoms: C_7  and  C_8
REMARK    3  A    between atoms: C_8  and  C_9
REMARK    4  A    between atoms: C_14  and  O_15
REMARK                            x       y       z     vdW  Elec       q    Type
REMARK                         _______ _______ _______ _____ _____    ______ ____
ROOT
ATOM      1  C   UNL     1      44.813   3.712   8.363  0.00  0.00    +0.000 C 
ENDROOT
BRANCH   1   2
ATOM      2  C   UNL     1      45.858   2.796   7.778  0.00  0.00    +0.000 A 
ATOM      3  N   UNL     1      46.639   3.271   6.801  0.00  0.00    +0.000 NA
ATOM      4  C   UNL     1      47.464   2.397   6.242  0.00  0.00    +0.000 A 
ATOM      5  N   UNL     1      48.230   2.840   5.186  0.00  0.00    +0.000 N 
ATOM      6  N   UNL     1      47.604   1.135   6.616  0.00  0.00    +0.000 NA
ATOM      7  C   UNL     1      46.794   0.791   7.601  0.00  0.00    +0.000 A 
ATOM      8  N   UNL     1      45.902   1.541   8.226  0.00  0.00    +0.000 NA
ATOM      9  H   UNL     1      48.330   3.845   5.197  0.00  0.00    +0.000 HD
ATOM     10  H   UNL     1      49.054   2.278   5.042  0.00  0.00    +0.000 HD
BRANCH   7  11
ATOM     11  O   UNL     1      46.879  -0.513   7.979  0.00  0.00    +0.000 OA
ATOM     12  H   UNL     1      47.834  -0.567   8.146  0.00  0.00    +0.000 HD
ENDBRANCH   7  11
ENDBRANCH   1   2
BRANCH   1  16
ATOM     13  C   UNL     1      45.837   4.935  12.327  0.00  0.00    +0.000 A 
ATOM     14  C   UNL     1      46.029   5.836  11.280  0.00  0.00    +0.000 A 
ATOM     15  C   UNL     1      45.680   5.457   9.981  0.00  0.00    +0.000 A 
ATOM     16  C   UNL     1      45.158   4.182   9.759  0.00  0.00    +0.000 A 
ATOM     17  N   UNL     1      44.942   3.305  10.773  0.00  0.00    +0.000 NA
ATOM     18  C   UNL     1      45.299   3.693  12.025  0.00  0.00    +0.000 A 
BRANCH  13  20
ATOM     19  N   UNL     1      46.725   6.467  13.993  0.00  0.00    +0.000 N 
ATOM     20  C   UNL     1      46.214   5.227  13.725  0.00  0.00    +0.000 C 
ATOM     21  O   UNL     1      46.052   4.406  14.617  0.00  0.00    +0.000 OA
ATOM     22  H   UNL     1      46.897   6.681  14.969  0.00  0.00    +0.000 HD
ATOM     23  H   UNL     1      46.645   7.242  13.351  0.00  0.00    +0.000 HD
ENDBRANCH  13  20
ENDBRANCH   1  16
TORSDOF 4
ENDMDL
MODEL 2
REMARK VINA RESULT:    -8.211      1.707      6.407
REMARK INTER + INTRA:         -10.113
REMARK INTER:                  -9.750
REMARK INTRA:                  -0.362
REMARK UNBOUND:                -0.222
REMARK  Name = 
REMARK  4 active torsions:
REMARK  status: ('A' for Active; 'I' for Inactive)
REMARK    1  A    between atoms: C_2  and  C_4
REMARK    2  A    between atoms: C_7  and  C_8
REMARK    3  A    between atoms: C_8  and  C_9
REMARK    4  A    between atoms: C_14  and  O_15
REMARK                            x       y       z     vdW  Elec       q    Type
REMARK                         _______ _______ _______ _____ _____    ______ ____
ROOT
ATOM      1  C   UNL     1      43.933   3.439  10.577  0.00  0.00    +0.000 C 
ENDROOT
BRANCH   1   2
ATOM      2  C   UNL     1      44.681   4.063  11.729  0.00  0.00    +0.000 A 
ATOM      3  N   UNL     1      44.488   5.364  11.977  0.00  0.00    +0.000 NA
ATOM      4  C   UNL     1      45.249   5.892  12.925  0.00  0.00    +0.000 A 
ATOM      5  N   UNL     1      45.122   7.244  13.154  0.00  0.00    +0.000 N 
ATOM      6  N   UNL     1      46.122   5.223  13.661  0.00  0.00    +0.000 NA
ATOM      7  C   UNL     1      46.208   3.946  13.335  0.00  0.00    +0.000 A 
ATOM      8  N   UNL     1      45.542   3.294  12.398  0.00  0.00    +0.000 NA
ATOM      9  H   UNL     1      44.232   7.593  12.828  0.00  0.00    +0.000 HD
ATOM     10  H   UNL     1      45.436   7.513  14.074  0.00  0.00    +0.000 HD
BRANCH   7  11
ATOM     11  O   UNL     1      47.130   3.239  14.043  0.00  0.00    +0.000 OA
ATOM     12  H   UNL     1      46.537   2.768  14.650  0.00  0.00    +0.000 HD
ENDBRANCH   7  11
ENDBRANCH   1   2
BRANCH   1  16
ATOM     13  C   UNL     1      46.551   2.513   7.330  0.00  0.00    +0.000 A 
ATOM     14  C   UNL     1      46.057   1.467   8.108  0.00  0.00    +0.000 A 
ATOM     15  C   UNL     1      45.185   1.753   9.161  0.00  0.00    +0.000 A 
ATOM     16  C   UNL     1      44.836   3.079   9.417  0.00  0.00    +0.000 A 
ATOM     17  N   UNL     1      45.289   4.105   8.651  0.00  0.00    +0.000 NA
ATOM     18  C   UNL     1      46.144   3.802   7.640  0.00  0.00    +0.000 A 
BRANCH  13  20
ATOM     19  N   UNL     1      47.484   3.223   5.200  0.00  0.00    +0.000 N 
ATOM     20  C   UNL     1      47.510   2.317   6.223  0.00  0.00    +0.000 C 
ATOM     21  O   UNL     1      48.316   1.396   6.231  0.00  0.00    +0.000 OA
ATOM     22  H   UNL     1      48.204   3.123   4.493  0.00  0.00    +0.000 HD
ATOM     23  H   UNL     1      47.019   4.116   5.271  0.00  0.00    +0.000 HD
ENDBRANCH  13  20
ENDBRANCH   1  16
TORSDOF 4
ENDMDL
MODEL 3
REMARK VINA RESULT:    -8.115      2.139      6.625
REMARK INTER + INTRA:          -9.997
REMARK INTER:                  -9.706
REMARK INTRA:                  -0.290
REMARK UNBOUND:                -0.222
REMARK  Name = 
REMARK  4 active torsions:
REMARK  status: ('A' for Active; 'I' for Inactive)
REMARK    1  A    between atoms: C_2  and  C_4
REMARK    2  A    between atoms: C_7  and  C_8
REMARK    3  A    between atoms: C_8  and  C_9
REMARK    4  A    between atoms: C_14  and  O_15
REMARK                            x       y       z     vdW  Elec       q    Type
REMARK                         _______ _______ _______ _____ _____    ______ ____
ROOT
ATOM      1  C   UNL     1      43.979   2.507  10.422  0.00  0.00    +0.000 C 
ENDROOT
BRANCH   1   2
ATOM      2  C   UNL     1      43.999   3.775  11.239  0.00  0.00    +0.000 A 
ATOM      3  N   UNL     1      44.988   3.941  12.125  0.00  0.00    +0.000 NA
ATOM      4  C   UNL     1      44.901   5.015  12.897  0.00  0.00    +0.000 A 
ATOM      5  N   UNL     1      45.867   5.174  13.865  0.00  0.00    +0.000 N 
ATOM      6  N   UNL     1      43.957   5.938  12.812  0.00  0.00    +0.000 NA
ATOM      7  C   UNL     1      43.050   5.673  11.889  0.00  0.00    +0.000 A 
ATOM      8  N   UNL     1      42.991   4.632  11.076  0.00  0.00    +0.000 NA
ATOM      9  H   UNL     1      46.705   4.656  13.641  0.00  0.00    +0.000 HD
ATOM     10  H   UNL     1      45.961   6.132  14.165  0.00  0.00    +0.000 HD
BRANCH   7  11
ATOM     11  O   UNL     1      42.040   6.580  11.807  0.00  0.00    +0.000 OA
ATOM     12  H   UNL     1      42.514   7.373  12.106  0.00  0.00    +0.000 HD
ENDBRANCH   7  11
ENDBRANCH   1   2
BRANCH   1  16
ATOM     13  C   UNL     1      46.675   2.499   7.108  0.00  0.00    +0.000 A 
ATOM     14  C   UNL     1      45.993   3.677   7.411  0.00  0.00    +0.000 A 
ATOM     15  C   UNL     1      45.123   3.700   8.503  0.00  0.00    +0.000 A 
ATOM     16  C   UNL     1      44.948   2.541   9.260  0.00  0.00    +0.000 A 
ATOM     17  N   UNL     1      45.626   1.396   8.993  0.00  0.00    +0.000 NA
ATOM     18  C   UNL     1      46.458   1.395   7.919  0.00  0.00    +0.000 A 
BRANCH  13  20
ATOM     19  N   UNL     1      47.476   3.296   4.955  0.00  0.00    +0.000 N 
ATOM     20  C   UNL     1      47.582   2.364   5.950  0.00  0.00    +0.000 C 
ATOM     21  O   UNL     1      48.417   1.471   5.891  0.00  0.00    +0.000 OA
ATOM     22  H   UNL     1      48.162   3.239   4.211  0.00  0.00    +0.000 HD
ATOM     23  H   UNL     1      46.987   4.171   5.075  0.00  0.00    +0.000 HD
ENDBRANCH  13  20
ENDBRANCH   1  16
TORSDOF 4
ENDMDL
MODEL 4
REMARK VINA RESULT:    -7.790      1.674      6.361
REMARK INTER + INTRA:          -9.605
REMARK INTER:                  -9.272
REMARK INTRA:                  -0.334
REMARK UNBOUND:                -0.222
REMARK  Name = 
REMARK  4 active torsions:
REMARK  status: ('A' for Active; 'I' for Inactive)
REMARK    1  A    between atoms: C_2  and  C_4
REMARK    2  A    between atoms: C_7  and  C_8
REMARK    3  A    between atoms: C_8  and  C_9
REMARK    4  A    between atoms: C_14  and  O_15
REMARK                            x       y       z     vdW  Elec       q    Type
REMARK                         _______ _______ _______ _____ _____    ______ ____
ROOT
ATOM      1  C   UNL     1      44.321   3.711  10.887  0.00  0.00    +0.000 C 
ENDROOT
BRANCH   1   2
ATOM      2  C   UNL     1      45.153   4.203  12.045  0.00  0.00    +0.000 A 
ATOM      3  N   UNL     1      45.187   5.519  12.284  0.00  0.00    +0.000 NA
ATOM      4  C   UNL     1      46.019   5.913  13.239  0.00  0.00    +0.000 A 
ATOM      5  N   UNL     1      46.127   7.268  13.458  0.00  0.00    +0.000 N 
ATOM      6  N   UNL     1      46.753   5.108  13.989  0.00  0.00    +0.000 NA
ATOM      7  C   UNL     1      46.617   3.833  13.671  0.00  0.00    +0.000 A 
ATOM      8  N   UNL     1      45.859   3.301  12.729  0.00  0.00    +0.000 NA
ATOM      9  H   UNL     1      45.315   7.765  13.120  0.00  0.00    +0.000 HD
ATOM     10  H   UNL     1      46.472   7.485  14.381  0.00  0.00    +0.000 HD
BRANCH   7  11
ATOM     11  O   UNL     1      47.394   2.981  14.394  0.00  0.00    +0.000 OA
ATOM     12  H   UNL     1      47.955   3.628  14.852  0.00  0.00    +0.000 HD
ENDBRANCH   7  11
ENDBRANCH   1   2
BRANCH   1  16
ATOM     13  C   UNL     1      46.556   2.963   7.323  0.00  0.00    +0.000 A 
ATOM     14  C   UNL     1      46.256   4.283   7.659  0.00  0.00    +0.000 A 
ATOM     15  C   UNL     1      45.543   4.544   8.831  0.00  0.00    +0.000 A 
ATOM     16  C   UNL     1      45.138   3.478   9.635  0.00  0.00    +0.000 A 
ATOM     17  N   UNL     1      45.446   2.190   9.334  0.00  0.00    +0.000 NA
ATOM     18  C   UNL     1      46.131   1.962   8.183  0.00  0.00    +0.000 A 
BRANCH  13  20
ATOM     19  N   UNL     1      48.612   2.351   6.179  0.00  0.00    +0.000 N 
ATOM     20  C   UNL     1      47.268   2.585   6.085  0.00  0.00    +0.000 C 
ATOM     21  O   UNL     1      46.678   2.457   5.021  0.00  0.00    +0.000 OA
ATOM     22  H   UNL     1      49.067   2.009   5.340  0.00  0.00    +0.000 HD
ATOM     23  H   UNL     1      49.082   2.204   7.060  0.00  0.00    +0.000 HD
ENDBRANCH  13  20
ENDBRANCH   1  16
TORSDOF 4
ENDMDL
MODEL 5
REMARK VINA RESULT:    -7.053      1.965      2.665
REMARK INTER + INTRA:          -8.718
REMARK INTER:                  -8.399
REMARK INTRA:                  -0.319
REMARK UNBOUND:                -0.222
REMARK  Name = 
REMARK  4 active torsions:
REMARK  status: ('A' for Active; 'I' for Inactive)
REMARK    1  A    between atoms: C_2  and  C_4
REMARK    2  A    between atoms: C_7  and  C_8
REMARK    3  A    between atoms: C_8  and  C_9
REMARK    4  A    between atoms: C_14  and  O_15
REMARK                            x       y       z     vdW  Elec       q    Type
REMARK                         _______ _______ _______ _____ _____    ______ ____
ROOT
ATOM      1  C   UNL     1      44.300   3.879   9.917  0.00  0.00    +0.000 C 
ENDROOT
BRANCH   1   2
ATOM      2  C   UNL     1      45.102   3.293   8.781  0.00  0.00    +0.000 A 
ATOM      3  N   UNL     1      45.399   1.989   8.824  0.00  0.00    +0.000 NA
ATOM      4  C   UNL     1      46.199   1.545   7.865  0.00  0.00    +0.000 A 
ATOM      5  N   UNL     1      46.579   0.222   7.924  0.00  0.00    +0.000 N 
ATOM      6  N   UNL     1      46.663   2.274   6.863  0.00  0.00    +0.000 NA
ATOM      7  C   UNL     1      46.284   3.538   6.919  0.00  0.00    +0.000 A 
ATOM      8  N   UNL     1      45.524   4.125   7.828  0.00  0.00    +0.000 NA
ATOM      9  H   UNL     1      45.932  -0.325   8.474  0.00  0.00    +0.000 HD
ATOM     10  H   UNL     1      46.871  -0.138   7.029  0.00  0.00    +0.000 HD
BRANCH   7  11
ATOM     11  O   UNL     1      46.781   4.326   5.928  0.00  0.00    +0.000 OA
ATOM     12  H   UNL     1      46.794   3.679   5.203  0.00  0.00    +0.000 HD
ENDBRANCH   7  11
ENDBRANCH   1   2
BRANCH   1  16
ATOM     13  C   UNL     1      46.646   4.940  13.327  0.00  0.00    +0.000 A 
ATOM     14  C   UNL     1      46.119   3.650  13.254  0.00  0.00    +0.000 A 
ATOM     15  C   UNL     1      45.366   3.284  12.136  0.00  0.00    +0.000 A 
ATOM     16  C   UNL     1      45.150   4.217  11.122  0.00  0.00    +0.000 A 
ATOM     17  N   UNL     1      45.679   5.467  11.168  0.00  0.00    +0.000 NA
ATOM     18  C   UNL     1      46.398   5.804  12.271  0.00  0.00    +0.000 A 
BRANCH  13  20
ATOM     19  N   UNL     1      47.077   4.954  15.720  0.00  0.00    +0.000 N 
ATOM     20  C   UNL     1      47.418   5.434  14.485  0.00  0.00    +0.000 C 
ATOM     21  O   UNL     1      48.344   6.222  14.349  0.00  0.00    +0.000 OA
ATOM     22  H   UNL     1      47.671   5.236  16.491  0.00  0.00    +0.000 HD
ATOM     23  H   UNL     1      46.501   4.135  15.848  0.00  0.00    +0.000 HD
ENDBRANCH  13  20
ENDBRANCH   1  16
TORSDOF 4
ENDMDL
MODEL 6
REMARK VINA RESULT:    -6.558      1.882      2.554
REMARK INTER + INTRA:          -8.121
REMARK INTER:                  -7.797
REMARK INTRA:                  -0.324
REMARK UNBOUND:                -0.222
REMARK  Name = 
REMARK  4 active torsions:
REMARK  status: ('A' for Active; 'I' for Inactive)
REMARK    1  A    between atoms: C_2  and  C_4
REMARK    2  A    between atoms: C_7  and  C_8
REMARK    3  A    between atoms: C_8  and  C_9
REMARK    4  A    between atoms: C_14  and  O_15
REMARK                            x       y       z     vdW  Elec       q    Type
REMARK                         _______ _______ _______ _____ _____    ______ ____
ROOT
ATOM      1  C   UNL     1      44.844   5.557  10.356  0.00  0.00    +0.000 C 
ENDROOT
BRANCH   1   2
ATOM      2  C   UNL     1      45.296   4.433   9.459  0.00  0.00    +0.000 A 
ATOM      3  N   UNL     1      46.012   4.741   8.372  0.00  0.00    +0.000 NA
ATOM      4  C   UNL     1      46.290   3.733   7.555  0.00  0.00    +0.000 A 
ATOM      5  N   UNL     1      46.966   4.033   6.394  0.00  0.00    +0.000 N 
ATOM      6  N   UNL     1      45.964   2.469   7.770  0.00  0.00    +0.000 NA
ATOM      7  C   UNL     1      45.277   2.289   8.883  0.00  0.00    +0.000 A 
ATOM      8  N   UNL     1      44.901   3.197   9.768  0.00  0.00    +0.000 NA
ATOM      9  H   UNL     1      47.470   4.904   6.472  0.00  0.00    +0.000 HD
ATOM     10  H   UNL     1      47.445   3.234   6.007  0.00  0.00    +0.000 HD
BRANCH   7  11
ATOM     11  O   UNL     1      44.886   1.006   9.110  0.00  0.00    +0.000 OA
ATOM     12  H   UNL     1      43.925   1.139   9.155  0.00  0.00    +0.000 HD
ENDBRANCH   7  11
ENDBRANCH   1   2
BRANCH   1  16
ATOM     13  C   UNL     1      47.441   6.041  13.715  0.00  0.00    +0.000 A 
ATOM     14  C   UNL     1      47.661   6.825  12.582  0.00  0.00    +0.000 A 
ATOM     15  C   UNL     1      46.808   6.691  11.484  0.00  0.00    +0.000 A 
ATOM     16  C   UNL     1      45.762   5.770  11.541  0.00  0.00    +0.000 A 
ATOM     17  N   UNL     1      45.521   5.020  12.646  0.00  0.00    +0.000 NA
ATOM     18  C   UNL     1      46.370   5.160  13.697  0.00  0.00    +0.000 A 
BRANCH  13  20
ATOM     19  N   UNL     1      47.832   5.511  16.055  0.00  0.00    +0.000 N 
ATOM     20  C   UNL     1      48.312   6.080  14.907  0.00  0.00    +0.000 C 
ATOM     21  O   UNL     1      49.430   6.575  14.868  0.00  0.00    +0.000 OA
ATOM     22  H   UNL     1      48.474   5.470  16.838  0.00  0.00    +0.000 HD
ATOM     23  H   UNL     1      47.039   4.887  16.066  0.00  0.00    +0.000 HD
ENDBRANCH  13  20
ENDBRANCH   1  16
TORSDOF 4
ENDMDL
MODEL 7
REMARK VINA RESULT:    -6.401      3.438      4.819
REMARK INTER + INTRA:          -7.932
REMARK INTER:                  -7.572
REMARK INTRA:                  -0.360
REMARK UNBOUND:                -0.222
REMARK  Name = 
REMARK  4 active torsions:
REMARK  status: ('A' for Active; 'I' for Inactive)
REMARK    1  A    between atoms: C_2  and  C_4
REMARK    2  A    between atoms: C_7  and  C_8
REMARK    3  A    between atoms: C_8  and  C_9
REMARK    4  A    between atoms: C_14  and  O_15
REMARK                            x       y       z     vdW  Elec       q    Type
REMARK                         _______ _______ _______ _____ _____    ______ ____
ROOT
ATOM      1  C   UNL     1      44.462   5.926  12.952  0.00  0.00    +0.000 C 
ENDROOT
BRANCH   1   2
ATOM      2  C   UNL     1      44.247   4.787  11.986  0.00  0.00    +0.000 A 
ATOM      3  N   UNL     1      44.433   5.022  10.682  0.00  0.00    +0.000 NA
ATOM      4  C   UNL     1      44.124   4.026   9.863  0.00  0.00    +0.000 A 
ATOM      5  N   UNL     1      44.239   4.262   8.512  0.00  0.00    +0.000 N 
ATOM      6  N   UNL     1      43.710   2.828  10.246  0.00  0.00    +0.000 NA
ATOM      7  C   UNL     1      43.585   2.713  11.556  0.00  0.00    +0.000 A 
ATOM      8  N   UNL     1      43.822   3.625  12.483  0.00  0.00    +0.000 NA
ATOM      9  H   UNL     1      44.870   5.027   8.322  0.00  0.00    +0.000 HD
ATOM     10  H   UNL     1      44.338   3.414   7.976  0.00  0.00    +0.000 HD
BRANCH   7  11
ATOM     11  O   UNL     1      43.118   1.508  11.979  0.00  0.00    +0.000 OA
ATOM     12  H   UNL     1      42.300   1.799  12.414  0.00  0.00    +0.000 HD
ENDBRANCH   7  11
ENDBRANCH   1   2
BRANCH   1  16
ATOM     13  C   UNL     1      48.369   7.605  12.536  0.00  0.00    +0.000 A 
ATOM     14  C   UNL     1      47.263   8.412  12.267  0.00  0.00    +0.000 A 
ATOM     15  C   UNL     1      45.980   7.881  12.417  0.00  0.00    +0.000 A 
ATOM     16  C   UNL     1      45.832   6.555  12.823  0.00  0.00    +0.000 A 
ATOM     17  N   UNL     1      46.899   5.767  13.114  0.00  0.00    +0.000 NA
ATOM     18  C   UNL     1      48.137   6.302  12.949  0.00  0.00    +0.000 A 
BRANCH  13  20
ATOM     19  N   UNL     1      50.690   7.599  13.260  0.00  0.00    +0.000 N 
ATOM     20  C   UNL     1      49.764   8.060  12.366  0.00  0.00    +0.000 C 
ATOM     21  O   UNL     1      50.088   8.800  11.447  0.00  0.00    +0.000 OA
ATOM     22  H   UNL     1      51.654   7.851  13.078  0.00  0.00    +0.000 HD
ATOM     23  H   UNL     1      50.519   6.810  13.867  0.00  0.00    +0.000 HD
ENDBRANCH  13  20
ENDBRANCH   1  16
TORSDOF 4
ENDMDL
MODEL 8
REMARK VINA RESULT:    -6.321      3.471      5.124
REMARK INTER + INTRA:          -7.836
REMARK INTER:                  -7.618
REMARK INTRA:                  -0.217
REMARK UNBOUND:                -0.222
REMARK  Name = 
REMARK  4 active torsions:
REMARK  status: ('A' for Active; 'I' for Inactive)
REMARK    1  A    between atoms: C_2  and  C_4
REMARK    2  A    between atoms: C_7  and  C_8
REMARK    3  A    between atoms: C_8  and  C_9
REMARK    4  A    between atoms: C_14  and  O_15
REMARK                            x       y       z     vdW  Elec       q    Type
REMARK                         _______ _______ _______ _____ _____    ______ ____
ROOT
ATOM      1  C   UNL     1      46.077   5.085  13.196  0.00  0.00    +0.000 C 
ENDROOT
BRANCH   1   2
ATOM      2  C   UNL     1      45.269   4.311  12.184  0.00  0.00    +0.000 A 
ATOM      3  N   UNL     1      45.250   4.751  10.921  0.00  0.00    +0.000 NA
ATOM      4  C   UNL     1      44.438   4.106  10.094  0.00  0.00    +0.000 A 
ATOM      5  N   UNL     1      44.345   4.581   8.805  0.00  0.00    +0.000 N 
ATOM      6  N   UNL     1      43.710   3.048  10.415  0.00  0.00    +0.000 NA
ATOM      7  C   UNL     1      43.829   2.698  11.683  0.00  0.00    +0.000 A 
ATOM      8  N   UNL     1      44.567   3.265  12.622  0.00  0.00    +0.000 NA
ATOM      9  H   UNL     1      45.155   5.128   8.552  0.00  0.00    +0.000 HD
ATOM     10  H   UNL     1      44.018   3.881   8.157  0.00  0.00    +0.000 HD
BRANCH   7  11
ATOM     11  O   UNL     1      43.058   1.642  12.056  0.00  0.00    +0.000 OA
ATOM     12  H   UNL     1      42.180   2.013  11.872  0.00  0.00    +0.000 HD
ENDBRANCH   7  11
ENDBRANCH   1   2
BRANCH   1  16
ATOM     13  C   UNL     1      46.610   9.196  12.162  0.00  0.00    +0.000 A 
ATOM     14  C   UNL     1      47.709   8.340  12.085  0.00  0.00    +0.000 A 
ATOM     15  C   UNL     1      47.545   6.990  12.401  0.00  0.00    +0.000 A 
ATOM     16  C   UNL     1      46.289   6.529  12.797  0.00  0.00    +0.000 A 
ATOM     17  N   UNL     1      45.206   7.346  12.851  0.00  0.00    +0.000 NA
ATOM     18  C   UNL     1      45.393   8.657  12.549  0.00  0.00    +0.000 A 
BRANCH  13  20
ATOM     19  N   UNL     1      45.605  11.409  12.210  0.00  0.00    +0.000 N 
ATOM     20  C   UNL     1      46.693  10.646  11.889  0.00  0.00    +0.000 C 
ATOM     21  O   UNL     1      47.702  11.152  11.419  0.00  0.00    +0.000 OA
ATOM     22  H   UNL     1      45.710  12.411  12.097  0.00  0.00    +0.000 HD
ATOM     23  H   UNL     1      44.866  11.081  12.814  0.00  0.00    +0.000 HD
ENDBRANCH  13  20
ENDBRANCH   1  16
TORSDOF 4
ENDMDL
MODEL 9
REMARK VINA RESULT:    -6.269      4.156      5.783
REMARK INTER + INTRA:          -7.773
REMARK INTER:                  -7.656
REMARK INTRA:                  -0.118
REMARK UNBOUND:                -0.222
REMARK  Name = 
REMARK  4 active torsions:
REMARK  status: ('A' for Active; 'I' for Inactive)
REMARK    1  A    between atoms: C_2  and  C_4
REMARK    2  A    between atoms: C_7  and  C_8
REMARK    3  A    between atoms: C_8  and  C_9
REMARK    4  A    between atoms: C_14  and  O_15
REMARK                            x       y       z     vdW  Elec       q    Type
REMARK                         _______ _______ _______ _____ _____    ______ ____
ROOT
ATOM      1  C   UNL     1      46.012   4.815  13.844  0.00  0.00    +0.000 C 
ENDROOT
BRANCH   1   2
ATOM      2  C   UNL     1      44.889   4.508  12.886  0.00  0.00    +0.000 A 
ATOM      3  N   UNL     1      45.010   3.437  12.093  0.00  0.00    +0.000 NA
ATOM      4  C   UNL     1      44.052   3.272  11.191  0.00  0.00    +0.000 A 
ATOM      5  N   UNL     1      44.187   2.219  10.315  0.00  0.00    +0.000 N 
ATOM      6  N   UNL     1      42.984   4.044  11.066  0.00  0.00    +0.000 NA
ATOM      7  C   UNL     1      42.968   5.054  11.917  0.00  0.00    +0.000 A 
ATOM      8  N   UNL     1      43.864   5.360  12.840  0.00  0.00    +0.000 NA
ATOM      9  H   UNL     1      44.799   1.505  10.684  0.00  0.00    +0.000 HD
ATOM     10  H   UNL     1      43.307   1.935   9.912  0.00  0.00    +0.000 HD
BRANCH   7  11
ATOM     11  O   UNL     1      41.906   5.893  11.785  0.00  0.00    +0.000 OA
ATOM     12  H   UNL     1      41.252   5.266  11.435  0.00  0.00    +0.000 HD
ENDBRANCH   7  11
ENDBRANCH   1   2
BRANCH   1  16
ATOM     13  C   UNL     1      48.946   7.492  12.270  0.00  0.00    +0.000 A 
ATOM     14  C   UNL     1      47.796   7.247  11.520  0.00  0.00    +0.000 A 
ATOM     15  C   UNL     1      46.820   6.389  12.031  0.00  0.00    +0.000 A 
ATOM     16  C   UNL     1      47.021   5.789  13.274  0.00  0.00    +0.000 A 
ATOM     17  N   UNL     1      48.124   6.040  14.026  0.00  0.00    +0.000 NA
ATOM     18  C   UNL     1      49.064   6.869  13.503  0.00  0.00    +0.000 A 
BRANCH  13  20
ATOM     19  N   UNL     1      51.302   7.796  11.752  0.00  0.00    +0.000 N 
ATOM     20  C   UNL     1      50.053   8.349  11.797  0.00  0.00    +0.000 C 
ATOM     21  O   UNL     1      49.859   9.501  11.432  0.00  0.00    +0.000 OA
ATOM     22  H   UNL     1      52.033   8.369  11.345  0.00  0.00    +0.000 HD
ATOM     23  H   UNL     1      51.462   6.801  11.804  0.00  0.00    +0.000 HD
ENDBRANCH  13  20
ENDBRANCH   1  16
TORSDOF 4
ENDMDL
