MODEL 1
REMARK VINA RESULT:    -7.985      0.000      0.000
REMARK INTER + INTRA:         -11.570
REMARK INTER:                 -11.020
REMARK INTRA:                  -0.551
REMARK UNBOUND:                -0.551
REMARK  Name = 
REMARK  10 active torsions:
REMARK  status: ('A' for Active; 'I' for Inactive)
REMARK    1  A    between atoms: C_1  and  C_2
REMARK    2  A    between atoms: C_2  and  C_3
REMARK    3  A    between atoms: C_2  and  C_4
REMARK    4  A    between atoms: C_2  and  C_5
REMARK    5  A    between atoms: N_7  and  C_8
REMARK    6  A    between atoms: C_8  and  C_9
REMARK    7  A    between atoms: C_12  and  C_13
REMARK    8  A    between atoms: C_13  and  C_14
REMARK    9  A    between atoms: C_14  and  N_15
REMARK   10  A    between atoms: C_21  and  C_22
REMARK                            x       y       z     vdW  Elec       q    Type
REMARK                         _______ _______ _______ _____ _____    ______ ____
ROOT
ATOM      1  C   UNL     1      46.507   7.279  12.340  0.00  0.00    +0.000 A 
ATOM      2  C   UNL     1      45.603   6.974  11.333  0.00  0.00    +0.000 A 
ATOM      3  N   UNL     1      45.134   5.694  11.518  0.00  0.00    +0.000 N 
ATOM      4  C   UNL     1      45.746   5.134  12.612  0.00  0.00    +0.000 A 
ATOM      5  N   UNL     1      45.553   3.876  13.063  0.00  0.00    +0.000 NA
ATOM      6  C   UNL     1      46.262   3.596  14.188  0.00  0.00    +0.000 A 
ATOM      7  C   UNL     1      47.105   4.474  14.857  0.00  0.00    +0.000 A 
ATOM      8  C   UNL     1      47.251   5.768  14.357  0.00  0.00    +0.000 A 
ATOM      9  C   UNL     1      46.568   6.110  13.175  0.00  0.00    +0.000 A 
ENDROOT
BRANCH   7  10
ATOM     10  C   UNL     1      47.803   4.022  16.078  0.00  0.00    +0.000 C 
ATOM     11  N   UNL     1      47.106   3.225  16.949  0.00  0.00    +0.000 N 
ATOM     12  O   UNL     1      48.951   4.362  16.322  0.00  0.00    +0.000 OA
ATOM     13  H   UNL     1      46.103   3.092  16.901  0.00  0.00    +0.000 HD
ATOM     14  H   UNL     1      47.568   2.977  17.812  0.00  0.00    +0.000 HD
ENDBRANCH   7  10
BRANCH   1  16
ATOM     15  C   UNL     1      47.576   8.883  13.999  0.00  0.00    +0.000 C 
ATOM     16  C   UNL     1      47.298   8.573  12.512  0.00  0.00    +0.000 C 
ATOM     17  C   UNL     1      46.494   9.761  11.938  0.00  0.00    +0.000 C 
ATOM     18  C   UNL     1      48.662   8.481  11.798  0.00  0.00    +0.000 C 
ENDBRANCH   1  16
BRANCH   3  19
ATOM     19  C   UNL     1      44.144   5.041  10.674  0.00  0.00    +0.000 C 
BRANCH  19  20
ATOM     20  C   UNL     1      44.808   4.120   9.678  0.00  0.00    +0.000 A 
ATOM     21  C   UNL     1      45.589   4.641   8.647  0.00  0.00    +0.000 A 
ATOM     22  C   UNL     1      46.252   3.767   7.792  0.00  0.00    +0.000 A 
ATOM     23  C   UNL     1      46.112   2.390   7.959  0.00  0.00    +0.000 A 
ATOM     24  C   UNL     1      45.287   1.957   8.992  0.00  0.00    +0.000 A 
ATOM     25  N   UNL     1      44.640   2.784   9.849  0.00  0.00    +0.000 NA
BRANCH  23  26
ATOM     26  C   UNL     1      46.857   1.420   7.085  0.00  0.00    +0.000 C 
BRANCH  26  27
ATOM     27  C   UNL     1      48.244   1.948   6.698  0.00  0.00    +0.000 C 
BRANCH  27  28
ATOM     28  N   UNL     1      48.407   1.985   5.246  0.00  0.00    +0.000 NA
ATOM     29  H   UNL     1      48.861   1.129   4.926  0.00  0.00    +0.000 HD
ATOM     30  H   UNL     1      49.035   2.750   4.996  0.00  0.00    +0.000 HD
ENDBRANCH  27  28
ENDBRANCH  26  27
ENDBRANCH  23  26
ENDBRANCH  19  20
ENDBRANCH   3  19
TORSDOF 7
ENDMDL
MODEL 2
REMARK VINA RESULT:    -7.530      0.970      1.538
REMARK INTER + INTRA:         -10.942
REMARK INTER:                 -10.209
REMARK INTRA:                  -0.734
REMARK UNBOUND:                -0.551
REMARK  Name = 
REMARK  10 active torsions:
REMARK  status: ('A' for Active; 'I' for Inactive)
REMARK    1  A    between atoms: C_1  and  C_2
REMARK    2  A    between atoms: C_2  and  C_3
REMARK    3  A    between atoms: C_2  and  C_4
REMARK    4  A    between atoms: C_2  and  C_5
REMARK    5  A    between atoms: N_7  and  C_8
REMARK    6  A    between atoms: C_8  and  C_9
REMARK    7  A    between atoms: C_12  and  C_13
REMARK    8  A    between atoms: C_13  and  C_14
REMARK    9  A    between atoms: C_14  and  N_15
REMARK   10  A    between atoms: C_21  and  C_22
REMARK                            x       y       z     vdW  Elec       q    Type
REMARK                         _______ _______ _______ _____ _____    ______ ____
ROOT
ATOM      1  C   UNL     1      47.335   7.291  12.563  0.00  0.00    +0.000 A 
ATOM      2  C   UNL     1      46.427   7.136  11.527  0.00  0.00    +0.000 A 
ATOM      3  N   UNL     1      45.702   5.985  11.728  0.00  0.00    +0.000 N 
ATOM      4  C   UNL     1      46.146   5.355  12.863  0.00  0.00    +0.000 A 
ATOM      5  N   UNL     1      45.684   4.179  13.341  0.00  0.00    +0.000 NA
ATOM      6  C   UNL     1      46.279   3.804  14.504  0.00  0.00    +0.000 A 
ATOM      7  C   UNL     1      47.257   4.519  15.185  0.00  0.00    +0.000 A 
ATOM      8  C   UNL     1      47.680   5.738  14.654  0.00  0.00    +0.000 A 
ATOM      9  C   UNL     1      47.126   6.166  13.434  0.00  0.00    +0.000 A 
ENDROOT
BRANCH   7  10
ATOM     10  C   UNL     1      47.801   3.982  16.449  0.00  0.00    +0.000 C 
ATOM     11  N   UNL     1      47.055   4.156  17.586  0.00  0.00    +0.000 N 
ATOM     12  O   UNL     1      48.887   3.423  16.491  0.00  0.00    +0.000 OA
ATOM     13  H   UNL     1      46.265   4.786  17.642  0.00  0.00    +0.000 HD
ATOM     14  H   UNL     1      47.467   3.846  18.454  0.00  0.00    +0.000 HD
ENDBRANCH   7  10
BRANCH   1  16
ATOM     15  C   UNL     1      48.196   9.511  11.668  0.00  0.00    +0.000 C 
ATOM     16  C   UNL     1      48.365   8.405  12.733  0.00  0.00    +0.000 C 
ATOM     17  C   UNL     1      49.791   7.831  12.576  0.00  0.00    +0.000 C 
ATOM     18  C   UNL     1      48.228   9.072  14.116  0.00  0.00    +0.000 C 
ENDBRANCH   1  16
BRANCH   3  19
ATOM     19  C   UNL     1      44.633   5.514  10.859  0.00  0.00    +0.000 C 
BRANCH  19  20
ATOM     20  C   UNL     1      45.159   4.531   9.840  0.00  0.00    +0.000 A 
ATOM     21  C   UNL     1      44.918   3.166   9.987  0.00  0.00    +0.000 A 
ATOM     22  C   UNL     1      45.345   2.292   8.993  0.00  0.00    +0.000 A 
ATOM     23  C   UNL     1      46.025   2.783   7.880  0.00  0.00    +0.000 A 
ATOM     24  C   UNL     1      46.253   4.154   7.830  0.00  0.00    +0.000 A 
ATOM     25  N   UNL     1      45.837   5.032   8.775  0.00  0.00    +0.000 NA
BRANCH  23  26
ATOM     26  C   UNL     1      46.454   1.871   6.764  0.00  0.00    +0.000 C 
BRANCH  26  27
ATOM     27  C   UNL     1      47.247   2.620   5.686  0.00  0.00    +0.000 C 
BRANCH  27  28
ATOM     28  N   UNL     1      48.467   1.896   5.332  0.00  0.00    +0.000 NA
ATOM     29  H   UNL     1      49.115   1.903   6.119  0.00  0.00    +0.000 HD
ATOM     30  H   UNL     1      48.939   2.384   4.571  0.00  0.00    +0.000 HD
ENDBRANCH  27  28
ENDBRANCH  26  27
ENDBRANCH  23  26
ENDBRANCH  19  20
ENDBRANCH   3  19
TORSDOF 7
ENDMDL
MODEL 3
REMARK VINA RESULT:    -6.857      3.136      7.205
REMARK INTER + INTRA:         -10.013
REMARK INTER:                  -9.622
REMARK INTRA:                  -0.391
REMARK UNBOUND:                -0.551
REMARK  Name = 
REMARK  10 active torsions:
REMARK  status: ('A' for Active; 'I' for Inactive)
REMARK    1  A    between atoms: C_1  and  C_2
REMARK    2  A    between atoms: C_2  and  C_3
REMARK    3  A    between atoms: C_2  and  C_4
REMARK    4  A    between atoms: C_2  and  C_5
REMARK    5  A    between atoms: N_7  and  C_8
REMARK    6  A    between atoms: C_8  and  C_9
REMARK    7  A    between atoms: C_12  and  C_13
REMARK    8  A    between atoms: C_13  and  C_14
REMARK    9  A    between atoms: C_14  and  N_15
REMARK   10  A    between atoms: C_21  and  C_22
REMARK                            x       y       z     vdW  Elec       q    Type
REMARK                         _______ _______ _______ _____ _____    ______ ____
ROOT
ATOM      1  C   UNL     1      48.043   6.685  13.661  0.00  0.00    +0.000 A 
ATOM      2  C   UNL     1      48.218   6.140  14.924  0.00  0.00    +0.000 A 
ATOM      3  N   UNL     1      47.348   5.087  15.087  0.00  0.00    +0.000 N 
ATOM      4  C   UNL     1      46.573   4.954  13.963  0.00  0.00    +0.000 A 
ATOM      5  N   UNL     1      45.587   4.046  13.790  0.00  0.00    +0.000 NA
ATOM      6  C   UNL     1      45.006   4.114  12.564  0.00  0.00    +0.000 A 
ATOM      7  C   UNL     1      45.352   4.996  11.547  0.00  0.00    +0.000 A 
ATOM      8  C   UNL     1      46.392   5.898  11.775  0.00  0.00    +0.000 A 
ATOM      9  C   UNL     1      47.014   5.899  13.037  0.00  0.00    +0.000 A 
ENDROOT
BRANCH   7  10
ATOM     10  C   UNL     1      44.629   4.941  10.260  0.00  0.00    +0.000 C 
ATOM     11  N   UNL     1      45.365   5.089   9.113  0.00  0.00    +0.000 N 
ATOM     12  O   UNL     1      43.417   4.793  10.213  0.00  0.00    +0.000 OA
ATOM     13  H   UNL     1      46.321   5.420   9.104  0.00  0.00    +0.000 HD
ATOM     14  H   UNL     1      44.853   5.117   8.243  0.00  0.00    +0.000 HD
ENDBRANCH   7  10
BRANCH   1  16
ATOM     15  C   UNL     1      49.498   7.526  11.752  0.00  0.00    +0.000 C 
ATOM     16  C   UNL     1      48.769   7.889  13.064  0.00  0.00    +0.000 C 
ATOM     17  C   UNL     1      49.836   8.404  14.055  0.00  0.00    +0.000 C 
ATOM     18  C   UNL     1      47.776   9.023  12.741  0.00  0.00    +0.000 C 
ENDBRANCH   1  16
BRANCH   3  19
ATOM     19  C   UNL     1      47.268   4.252  16.277  0.00  0.00    +0.000 C 
BRANCH  19  20
ATOM     20  C   UNL     1      48.638   3.765  16.688  0.00  0.00    +0.000 A 
ATOM     21  C   UNL     1      49.524   4.621  17.340  0.00  0.00    +0.000 A 
ATOM     22  C   UNL     1      50.747   4.124  17.778  0.00  0.00    +0.000 A 
ATOM     23  C   UNL     1      51.081   2.792  17.542  0.00  0.00    +0.000 A 
ATOM     24  C   UNL     1      50.153   2.017  16.855  0.00  0.00    +0.000 A 
ATOM     25  N   UNL     1      48.948   2.469  16.428  0.00  0.00    +0.000 NA
BRANCH  23  26
ATOM     26  C   UNL     1      52.372   2.211  18.048  0.00  0.00    +0.000 C 
BRANCH  26  27
ATOM     27  C   UNL     1      52.673   0.847  17.414  0.00  0.00    +0.000 C 
BRANCH  27  28
ATOM     28  N   UNL     1      52.592  -0.224  18.406  0.00  0.00    +0.000 NA
ATOM     29  H   UNL     1      53.408  -0.830  18.330  0.00  0.00    +0.000 HD
ATOM     30  H   UNL     1      51.782  -0.810  18.203  0.00  0.00    +0.000 HD
ENDBRANCH  27  28
ENDBRANCH  26  27
ENDBRANCH  23  26
ENDBRANCH  19  20
ENDBRANCH   3  19
TORSDOF 7
ENDMDL
MODEL 4
REMARK VINA RESULT:    -6.199      3.862      8.131
REMARK INTER + INTRA:          -9.105
REMARK INTER:                  -8.574
REMARK INTRA:                  -0.531
REMARK UNBOUND:                -0.551
REMARK  Name = 
REMARK  10 active torsions:
REMARK  status: ('A' for Active; 'I' for Inactive)
REMARK    1  A    between atoms: C_1  and  C_2
REMARK    2  A    between atoms: C_2  and  C_3
REMARK    3  A    between atoms: C_2  and  C_4
REMARK    4  A    between atoms: C_2  and  C_5
REMARK    5  A    between atoms: N_7  and  C_8
REMARK    6  A    between atoms: C_8  and  C_9
REMARK    7  A    between atoms: C_12  and  C_13
REMARK    8  A    between atoms: C_13  and  C_14
REMARK    9  A    between atoms: C_14  and  N_15
REMARK   10  A    between atoms: C_21  and  C_22
REMARK                            x       y       z     vdW  Elec       q    Type
REMARK                         _______ _______ _______ _____ _____    ______ ____
ROOT
ATOM      1  C   UNL     1      45.532   5.628  12.386  0.00  0.00    +0.000 A 
ATOM      2  C   UNL     1      46.758   5.387  12.988  0.00  0.00    +0.000 A 
ATOM      3  N   UNL     1      47.418   6.581  13.165  0.00  0.00    +0.000 N 
ATOM      4  C   UNL     1      46.661   7.604  12.653  0.00  0.00    +0.000 A 
ATOM      5  N   UNL     1      47.016   8.907  12.622  0.00  0.00    +0.000 NA
ATOM      6  C   UNL     1      46.059   9.711  12.089  0.00  0.00    +0.000 A 
ATOM      7  C   UNL     1      44.818   9.297  11.619  0.00  0.00    +0.000 A 
ATOM      8  C   UNL     1      44.497   7.941  11.695  0.00  0.00    +0.000 A 
ATOM      9  C   UNL     1      45.460   7.052  12.207  0.00  0.00    +0.000 A 
ENDROOT
BRANCH   7  10
ATOM     10  C   UNL     1      43.878  10.297  11.075  0.00  0.00    +0.000 C 
ATOM     11  N   UNL     1      43.417  10.105   9.798  0.00  0.00    +0.000 N 
ATOM     12  O   UNL     1      43.537  11.275  11.723  0.00  0.00    +0.000 OA
ATOM     13  H   UNL     1      43.824   9.439   9.153  0.00  0.00    +0.000 HD
ATOM     14  H   UNL     1      42.827  10.828   9.411  0.00  0.00    +0.000 HD
ENDBRANCH   7  10
BRANCH   1  16
ATOM     15  C   UNL     1      43.190   4.727  12.800  0.00  0.00    +0.000 C 
ATOM     16  C   UNL     1      44.486   4.595  11.972  0.00  0.00    +0.000 C 
ATOM     17  C   UNL     1      45.035   3.169  12.202  0.00  0.00    +0.000 C 
ATOM     18  C   UNL     1      44.104   4.767  10.488  0.00  0.00    +0.000 C 
ENDBRANCH   1  16
BRANCH   3  19
ATOM     19  C   UNL     1      48.721   6.725  13.796  0.00  0.00    +0.000 C 
BRANCH  19  20
ATOM     20  C   UNL     1      48.624   6.516  15.289  0.00  0.00    +0.000 A 
ATOM     21  C   UNL     1      48.781   7.590  16.163  0.00  0.00    +0.000 A 
ATOM     22  C   UNL     1      48.607   7.384  17.528  0.00  0.00    +0.000 A 
ATOM     23  C   UNL     1      48.304   6.110  18.005  0.00  0.00    +0.000 A 
ATOM     24  C   UNL     1      48.199   5.089  17.068  0.00  0.00    +0.000 A 
ATOM     25  N   UNL     1      48.349   5.262  15.732  0.00  0.00    +0.000 NA
BRANCH  23  26
ATOM     26  C   UNL     1      48.059   5.866  19.469  0.00  0.00    +0.000 C 
BRANCH  26  27
ATOM     27  C   UNL     1      49.072   4.878  20.061  0.00  0.00    +0.000 C 
BRANCH  27  28
ATOM     28  N   UNL     1      48.420   3.631  20.459  0.00  0.00    +0.000 NA
ATOM     29  H   UNL     1      47.595   3.836  21.022  0.00  0.00    +0.000 HD
ATOM     30  H   UNL     1      49.050   3.099  21.060  0.00  0.00    +0.000 HD
ENDBRANCH  27  28
ENDBRANCH  26  27
ENDBRANCH  23  26
ENDBRANCH  19  20
ENDBRANCH   3  19
TORSDOF 7
ENDMDL
MODEL 5
REMARK VINA RESULT:    -6.080      3.111      7.882
REMARK INTER + INTRA:          -8.941
REMARK INTER:                  -8.375
REMARK INTRA:                  -0.566
REMARK UNBOUND:                -0.551
REMARK  Name = 
REMARK  10 active torsions:
REMARK  status: ('A' for Active; 'I' for Inactive)
REMARK    1  A    between atoms: C_1  and  C_2
REMARK    2  A    between atoms: C_2  and  C_3
REMARK    3  A    between atoms: C_2  and  C_4
REMARK    4  A    between atoms: C_2  and  C_5
REMARK    5  A    between atoms: N_7  and  C_8
REMARK    6  A    between atoms: C_8  and  C_9
REMARK    7  A    between atoms: C_12  and  C_13
REMARK    8  A    between atoms: C_13  and  C_14
REMARK    9  A    between atoms: C_14  and  N_15
REMARK   10  A    between atoms: C_21  and  C_22
REMARK                            x       y       z     vdW  Elec       q    Type
REMARK                         _______ _______ _______ _____ _____    ______ ____
ROOT
ATOM      1  C   UNL     1      47.526   6.605  13.699  0.00  0.00    +0.000 A 
ATOM      2  C   UNL     1      47.889   5.891  14.831  0.00  0.00    +0.000 A 
ATOM      3  N   UNL     1      47.309   4.645  14.786  0.00  0.00    +0.000 N 
ATOM      4  C   UNL     1      46.535   4.539  13.658  0.00  0.00    +0.000 A 
ATOM      5  N   UNL     1      45.790   3.466  13.312  0.00  0.00    +0.000 NA
ATOM      6  C   UNL     1      45.149   3.620  12.124  0.00  0.00    +0.000 A 
ATOM      7  C   UNL     1      45.222   4.736  11.299  0.00  0.00    +0.000 A 
ATOM      8  C   UNL     1      46.023   5.806  11.698  0.00  0.00    +0.000 A 
ATOM      9  C   UNL     1      46.687   5.722  12.935  0.00  0.00    +0.000 A 
ENDROOT
BRANCH   7  10
ATOM     10  C   UNL     1      44.471   4.749  10.027  0.00  0.00    +0.000 C 
ATOM     11  N   UNL     1      45.195   4.741   8.863  0.00  0.00    +0.000 N 
ATOM     12  O   UNL     1      43.250   4.790  10.006  0.00  0.00    +0.000 OA
ATOM     13  H   UNL     1      46.190   4.919   8.825  0.00  0.00    +0.000 HD
ATOM     14  H   UNL     1      44.674   4.818   8.001  0.00  0.00    +0.000 HD
ENDBRANCH   7  10
BRANCH   1  16
ATOM     15  C   UNL     1      48.707   8.716  14.485  0.00  0.00    +0.000 C 
ATOM     16  C   UNL     1      47.909   8.041  13.348  0.00  0.00    +0.000 C 
ATOM     17  C   UNL     1      46.635   8.884  13.119  0.00  0.00    +0.000 C 
ATOM     18  C   UNL     1      48.788   8.080  12.082  0.00  0.00    +0.000 C 
ENDBRANCH   1  16
BRANCH   3  19
ATOM     19  C   UNL     1      47.492   3.606  15.789  0.00  0.00    +0.000 C 
BRANCH  19  20
ATOM     20  C   UNL     1      48.236   4.141  16.990  0.00  0.00    +0.000 A 
ATOM     21  C   UNL     1      47.544   4.762  18.029  0.00  0.00    +0.000 A 
ATOM     22  C   UNL     1      48.244   5.173  19.158  0.00  0.00    +0.000 A 
ATOM     23  C   UNL     1      49.623   4.982  19.229  0.00  0.00    +0.000 A 
ATOM     24  C   UNL     1      50.238   4.384  18.135  0.00  0.00    +0.000 A 
ATOM     25  N   UNL     1      49.581   3.961  17.027  0.00  0.00    +0.000 NA
BRANCH  23  26
ATOM     26  C   UNL     1      50.400   5.368  20.457  0.00  0.00    +0.000 C 
BRANCH  26  27
ATOM     27  C   UNL     1      50.349   6.879  20.715  0.00  0.00    +0.000 C 
BRANCH  27  28
ATOM     28  N   UNL     1      50.978   7.621  19.624  0.00  0.00    +0.000 NA
ATOM     29  H   UNL     1      50.264   8.091  19.068  0.00  0.00    +0.000 HD
ATOM     30  H   UNL     1      51.442   6.965  18.995  0.00  0.00    +0.000 HD
ENDBRANCH  27  28
ENDBRANCH  26  27
ENDBRANCH  23  26
ENDBRANCH  19  20
ENDBRANCH   3  19
TORSDOF 7
ENDMDL
MODEL 6
REMARK VINA RESULT:    -5.968      3.376      5.770
REMARK INTER + INTRA:          -8.787
REMARK INTER:                  -8.168
REMARK INTRA:                  -0.619
REMARK UNBOUND:                -0.551
REMARK  Name = 
REMARK  10 active torsions:
REMARK  status: ('A' for Active; 'I' for Inactive)
REMARK    1  A    between atoms: C_1  and  C_2
REMARK    2  A    between atoms: C_2  and  C_3
REMARK    3  A    between atoms: C_2  and  C_4
REMARK    4  A    between atoms: C_2  and  C_5
REMARK    5  A    between atoms: N_7  and  C_8
REMARK    6  A    between atoms: C_8  and  C_9
REMARK    7  A    between atoms: C_12  and  C_13
REMARK    8  A    between atoms: C_13  and  C_14
REMARK    9  A    between atoms: C_14  and  N_15
REMARK   10  A    between atoms: C_21  and  C_22
REMARK                            x       y       z     vdW  Elec       q    Type
REMARK                         _______ _______ _______ _____ _____    ______ ____
ROOT
ATOM      1  C   UNL     1      46.298   5.818  12.795  0.00  0.00    +0.000 A 
ATOM      2  C   UNL     1      46.865   7.016  12.388  0.00  0.00    +0.000 A 
ATOM      3  N   UNL     1      47.827   7.393  13.296  0.00  0.00    +0.000 N 
ATOM      4  C   UNL     1      47.877   6.480  14.319  0.00  0.00    +0.000 A 
ATOM      5  N   UNL     1      48.680   6.554  15.402  0.00  0.00    +0.000 NA
ATOM      6  C   UNL     1      48.547   5.494  16.241  0.00  0.00    +0.000 A 
ATOM      7  C   UNL     1      47.699   4.409  16.053  0.00  0.00    +0.000 A 
ATOM      8  C   UNL     1      46.906   4.376  14.906  0.00  0.00    +0.000 A 
ATOM      9  C   UNL     1      46.974   5.461  14.013  0.00  0.00    +0.000 A 
ENDROOT
BRANCH   7  10
ATOM     10  C   UNL     1      47.674   3.325  17.055  0.00  0.00    +0.000 C 
ATOM     11  N   UNL     1      48.879   2.843  17.499  0.00  0.00    +0.000 N 
ATOM     12  O   UNL     1      46.623   2.852  17.461  0.00  0.00    +0.000 OA
ATOM     13  H   UNL     1      49.761   3.049  17.047  0.00  0.00    +0.000 HD
ATOM     14  H   UNL     1      48.851   2.058  18.133  0.00  0.00    +0.000 HD
ENDBRANCH   7  10
BRANCH   1  16
ATOM     15  C   UNL     1      45.416   3.524  12.138  0.00  0.00    +0.000 C 
ATOM     16  C   UNL     1      45.170   5.049  12.112  0.00  0.00    +0.000 C 
ATOM     17  C   UNL     1      45.068   5.471  10.629  0.00  0.00    +0.000 C 
ATOM     18  C   UNL     1      43.823   5.310  12.815  0.00  0.00    +0.000 C 
ENDBRANCH   1  16
BRANCH   3  19
ATOM     19  C   UNL     1      48.657   8.584  13.182  0.00  0.00    +0.000 C 
BRANCH  19  20
ATOM     20  C   UNL     1      49.980   8.259  12.530  0.00  0.00    +0.000 A 
ATOM     21  C   UNL     1      50.020   7.709  11.249  0.00  0.00    +0.000 A 
ATOM     22  C   UNL     1      51.252   7.494  10.642  0.00  0.00    +0.000 A 
ATOM     23  C   UNL     1      52.427   7.807  11.324  0.00  0.00    +0.000 A 
ATOM     24  C   UNL     1      52.297   8.319  12.610  0.00  0.00    +0.000 A 
ATOM     25  N   UNL     1      51.111   8.552  13.222  0.00  0.00    +0.000 NA
BRANCH  23  26
ATOM     26  C   UNL     1      53.773   7.635  10.675  0.00  0.00    +0.000 C 
BRANCH  26  27
ATOM     27  C   UNL     1      53.821   6.391   9.778  0.00  0.00    +0.000 C 
BRANCH  27  28
ATOM     28  N   UNL     1      53.903   5.170  10.577  0.00  0.00    +0.000 NA
ATOM     29  H   UNL     1      54.305   4.417  10.018  0.00  0.00    +0.000 HD
ATOM     30  H   UNL     1      52.962   4.867  10.827  0.00  0.00    +0.000 HD
ENDBRANCH  27  28
ENDBRANCH  26  27
ENDBRANCH  23  26
ENDBRANCH  19  20
ENDBRANCH   3  19
TORSDOF 7
ENDMDL
MODEL 7
REMARK VINA RESULT:    -5.956      3.424      5.264
REMARK INTER + INTRA:          -8.770
REMARK INTER:                  -8.079
REMARK INTRA:                  -0.691
REMARK UNBOUND:                -0.551
REMARK  Name = 
REMARK  10 active torsions:
REMARK  status: ('A' for Active; 'I' for Inactive)
REMARK    1  A    between atoms: C_1  and  C_2
REMARK    2  A    between atoms: C_2  and  C_3
REMARK    3  A    between atoms: C_2  and  C_4
REMARK    4  A    between atoms: C_2  and  C_5
REMARK    5  A    between atoms: N_7  and  C_8
REMARK    6  A    between atoms: C_8  and  C_9
REMARK    7  A    between atoms: C_12  and  C_13
REMARK    8  A    between atoms: C_13  and  C_14
REMARK    9  A    between atoms: C_14  and  N_15
REMARK   10  A    between atoms: C_21  and  C_22
REMARK                            x       y       z     vdW  Elec       q    Type
REMARK                         _______ _______ _______ _____ _____    ______ ____
ROOT
ATOM      1  C   UNL     1      48.845   8.769  16.463  0.00  0.00    +0.000 A 
ATOM      2  C   UNL     1      48.801   8.547  15.095  0.00  0.00    +0.000 A 
ATOM      3  N   UNL     1      48.667   7.199  14.859  0.00  0.00    +0.000 N 
ATOM      4  C   UNL     1      48.661   6.522  16.053  0.00  0.00    +0.000 A 
ATOM      5  N   UNL     1      48.583   5.181  16.197  0.00  0.00    +0.000 NA
ATOM      6  C   UNL     1      48.562   4.783  17.495  0.00  0.00    +0.000 A 
ATOM      7  C   UNL     1      48.602   5.620  18.604  0.00  0.00    +0.000 A 
ATOM      8  C   UNL     1      48.662   6.998  18.395  0.00  0.00    +0.000 A 
ATOM      9  C   UNL     1      48.720   7.473  17.071  0.00  0.00    +0.000 A 
ENDROOT
BRANCH   7  10
ATOM     10  C   UNL     1      48.562   5.033  19.959  0.00  0.00    +0.000 C 
ATOM     11  N   UNL     1      48.672   3.670  20.064  0.00  0.00    +0.000 N 
ATOM     12  O   UNL     1      48.412   5.728  20.953  0.00  0.00    +0.000 OA
ATOM     13  H   UNL     1      48.586   3.043  19.274  0.00  0.00    +0.000 HD
ATOM     14  H   UNL     1      48.576   3.274  20.987  0.00  0.00    +0.000 HD
ENDBRANCH   7  10
BRANCH   1  16
ATOM     15  C   UNL     1      47.858  10.393  18.154  0.00  0.00    +0.000 C 
ATOM     16  C   UNL     1      49.020  10.107  17.178  0.00  0.00    +0.000 C 
ATOM     17  C   UNL     1      49.047  11.256  16.146  0.00  0.00    +0.000 C 
ATOM     18  C   UNL     1      50.325  10.122  18.000  0.00  0.00    +0.000 C 
ENDBRANCH   1  16
BRANCH   3  19
ATOM     19  C   UNL     1      48.554   6.593  13.540  0.00  0.00    +0.000 C 
BRANCH  19  20
ATOM     20  C   UNL     1      47.143   6.117  13.284  0.00  0.00    +0.000 A 
ATOM     21  C   UNL     1      46.142   7.027  12.946  0.00  0.00    +0.000 A 
ATOM     22  C   UNL     1      44.872   6.553  12.638  0.00  0.00    +0.000 A 
ATOM     23  C   UNL     1      44.608   5.185  12.692  0.00  0.00    +0.000 A 
ATOM     24  C   UNL     1      45.655   4.351  13.071  0.00  0.00    +0.000 A 
ATOM     25  N   UNL     1      46.906   4.783  13.364  0.00  0.00    +0.000 NA
BRANCH  23  26
ATOM     26  C   UNL     1      43.260   4.636  12.314  0.00  0.00    +0.000 C 
BRANCH  26  27
ATOM     27  C   UNL     1      43.356   3.622  11.168  0.00  0.00    +0.000 C 
BRANCH  27  28
ATOM     28  N   UNL     1      43.028   2.274  11.629  0.00  0.00    +0.000 NA
ATOM     29  H   UNL     1      43.107   1.615  10.855  0.00  0.00    +0.000 HD
ATOM     30  H   UNL     1      42.053   2.248  11.927  0.00  0.00    +0.000 HD
ENDBRANCH  27  28
ENDBRANCH  26  27
ENDBRANCH  23  26
ENDBRANCH  19  20
ENDBRANCH   3  19
TORSDOF 7
ENDMDL
MODEL 8
REMARK VINA RESULT:    -5.750      3.530      6.507
REMARK INTER + INTRA:          -8.486
REMARK INTER:                  -7.811
REMARK INTRA:                  -0.675
REMARK UNBOUND:                -0.551
REMARK  Name = 
REMARK  10 active torsions:
REMARK  status: ('A' for Active; 'I' for Inactive)
REMARK    1  A    between atoms: C_1  and  C_2
REMARK    2  A    between atoms: C_2  and  C_3
REMARK    3  A    between atoms: C_2  and  C_4
REMARK    4  A    between atoms: C_2  and  C_5
REMARK    5  A    between atoms: N_7  and  C_8
REMARK    6  A    between atoms: C_8  and  C_9
REMARK    7  A    between atoms: C_12  and  C_13
REMARK    8  A    between atoms: C_13  and  C_14
REMARK    9  A    between atoms: C_14  and  N_15
REMARK   10  A    between atoms: C_21  and  C_22
REMARK                            x       y       z     vdW  Elec       q    Type
REMARK                         _______ _______ _______ _____ _____    ______ ____
ROOT
ATOM      1  C   UNL     1      48.043   5.382  15.535  0.00  0.00    +0.000 A 
ATOM      2  C   UNL     1      48.677   6.596  15.317  0.00  0.00    +0.000 A 
ATOM      3  N   UNL     1      48.264   7.112  14.111  0.00  0.00    +0.000 N 
ATOM      4  C   UNL     1      47.396   6.237  13.510  0.00  0.00    +0.000 A 
ATOM      5  N   UNL     1      46.823   6.404  12.297  0.00  0.00    +0.000 NA
ATOM      6  C   UNL     1      45.976   5.397  11.962  0.00  0.00    +0.000 A 
ATOM      7  C   UNL     1      45.678   4.289  12.747  0.00  0.00    +0.000 A 
ATOM      8  C   UNL     1      46.284   4.179  13.999  0.00  0.00    +0.000 A 
ATOM      9  C   UNL     1      47.197   5.174  14.391  0.00  0.00    +0.000 A 
ENDROOT
BRANCH   7  10
ATOM     10  C   UNL     1      44.724   3.278  12.245  0.00  0.00    +0.000 C 
ATOM     11  N   UNL     1      44.926   2.789  10.980  0.00  0.00    +0.000 N 
ATOM     12  O   UNL     1      43.775   2.905  12.918  0.00  0.00    +0.000 OA
ATOM     13  H   UNL     1      45.560   3.212  10.314  0.00  0.00    +0.000 HD
ATOM     14  H   UNL     1      44.231   2.149  10.622  0.00  0.00    +0.000 HD
ENDBRANCH   7  10
BRANCH   1  16
ATOM     15  C   UNL     1      48.158   2.959  16.302  0.00  0.00    +0.000 C 
ATOM     16  C   UNL     1      48.226   4.443  16.725  0.00  0.00    +0.000 C 
ATOM     17  C   UNL     1      47.100   4.677  17.757  0.00  0.00    +0.000 C 
ATOM     18  C   UNL     1      49.595   4.669  17.397  0.00  0.00    +0.000 C 
ENDBRANCH   1  16
BRANCH   3  19
ATOM     19  C   UNL     1      48.693   8.391  13.564  0.00  0.00    +0.000 C 
BRANCH  19  20
ATOM     20  C   UNL     1      49.999   8.248  12.817  0.00  0.00    +0.000 A 
ATOM     21  C   UNL     1      50.014   7.765  11.509  0.00  0.00    +0.000 A 
ATOM     22  C   UNL     1      51.220   7.719  10.818  0.00  0.00    +0.000 A 
ATOM     23  C   UNL     1      52.396   8.130  11.444  0.00  0.00    +0.000 A 
ATOM     24  C   UNL     1      52.295   8.565  12.760  0.00  0.00    +0.000 A 
ATOM     25  N   UNL     1      51.133   8.635  13.455  0.00  0.00    +0.000 NA
BRANCH  23  26
ATOM     26  C   UNL     1      53.706   8.141  10.707  0.00  0.00    +0.000 C 
BRANCH  26  27
ATOM     27  C   UNL     1      54.007   6.786  10.054  0.00  0.00    +0.000 C 
BRANCH  27  28
ATOM     28  N   UNL     1      54.241   5.756  11.065  0.00  0.00    +0.000 NA
ATOM     29  H   UNL     1      55.113   5.945  11.557  0.00  0.00    +0.000 HD
ATOM     30  H   UNL     1      54.364   4.854  10.604  0.00  0.00    +0.000 HD
ENDBRANCH  27  28
ENDBRANCH  26  27
ENDBRANCH  23  26
ENDBRANCH  19  20
ENDBRANCH   3  19
TORSDOF 7
ENDMDL
MODEL 9
REMARK VINA RESULT:    -5.464      4.203      6.933
REMARK INTER + INTRA:          -8.091
REMARK INTER:                  -7.306
REMARK INTRA:                  -0.785
REMARK UNBOUND:                -0.551
REMARK  Name = 
REMARK  10 active torsions:
REMARK  status: ('A' for Active; 'I' for Inactive)
REMARK    1  A    between atoms: C_1  and  C_2
REMARK    2  A    between atoms: C_2  and  C_3
REMARK    3  A    between atoms: C_2  and  C_4
REMARK    4  A    between atoms: C_2  and  C_5
REMARK    5  A    between atoms: N_7  and  C_8
REMARK    6  A    between atoms: C_8  and  C_9
REMARK    7  A    between atoms: C_12  and  C_13
REMARK    8  A    between atoms: C_13  and  C_14
REMARK    9  A    between atoms: C_14  and  N_15
REMARK   10  A    between atoms: C_21  and  C_22
REMARK                            x       y       z     vdW  Elec       q    Type
REMARK                         _______ _______ _______ _____ _____    ______ ____
ROOT
ATOM      1  C   UNL     1      48.925   7.446  18.550  0.00  0.00    +0.000 A 
ATOM      2  C   UNL     1      48.650   7.771  17.231  0.00  0.00    +0.000 A 
ATOM      3  N   UNL     1      49.487   7.059  16.405  0.00  0.00    +0.000 N 
ATOM      4  C   UNL     1      50.339   6.296  17.162  0.00  0.00    +0.000 A 
ATOM      5  N   UNL     1      51.320   5.499  16.682  0.00  0.00    +0.000 NA
ATOM      6  C   UNL     1      51.990   4.829  17.656  0.00  0.00    +0.000 A 
ATOM      7  C   UNL     1      51.733   4.904  19.020  0.00  0.00    +0.000 A 
ATOM      8  C   UNL     1      50.695   5.728  19.456  0.00  0.00    +0.000 A 
ATOM      9  C   UNL     1      49.983   6.474  18.498  0.00  0.00    +0.000 A 
ENDROOT
BRANCH   7  10
ATOM     10  C   UNL     1      52.546   4.104  19.957  0.00  0.00    +0.000 C 
ATOM     11  N   UNL     1      53.085   2.933  19.490  0.00  0.00    +0.000 N 
ATOM     12  O   UNL     1      52.718   4.454  21.115  0.00  0.00    +0.000 OA
ATOM     13  H   UNL     1      52.803   2.499  18.620  0.00  0.00    +0.000 HD
ATOM     14  H   UNL     1      53.582   2.361  20.157  0.00  0.00    +0.000 HD
ENDBRANCH   7  10
BRANCH   1  16
ATOM     15  C   UNL     1      47.210   9.092  19.454  0.00  0.00    +0.000 C 
ATOM     16  C   UNL     1      48.265   8.019  19.802  0.00  0.00    +0.000 C 
ATOM     17  C   UNL     1      49.329   8.695  20.695  0.00  0.00    +0.000 C 
ATOM     18  C   UNL     1      47.549   6.912  20.601  0.00  0.00    +0.000 C 
ENDBRANCH   1  16
BRANCH   3  19
ATOM     19  C   UNL     1      49.467   7.117  14.950  0.00  0.00    +0.000 C 
BRANCH  19  20
ATOM     20  C   UNL     1      48.215   6.473  14.402  0.00  0.00    +0.000 A 
ATOM     21  C   UNL     1      47.437   7.137  13.455  0.00  0.00    +0.000 A 
ATOM     22  C   UNL     1      46.335   6.489  12.908  0.00  0.00    +0.000 A 
ATOM     23  C   UNL     1      46.008   5.200  13.327  0.00  0.00    +0.000 A 
ATOM     24  C   UNL     1      46.818   4.625  14.300  0.00  0.00    +0.000 A 
ATOM     25  N   UNL     1      47.906   5.226  14.840  0.00  0.00    +0.000 NA
BRANCH  23  26
ATOM     26  C   UNL     1      44.854   4.453  12.718  0.00  0.00    +0.000 C 
BRANCH  26  27
ATOM     27  C   UNL     1      43.706   5.393  12.329  0.00  0.00    +0.000 C 
BRANCH  27  28
ATOM     28  N   UNL     1      42.659   5.395  13.349  0.00  0.00    +0.000 NA
ATOM     29  H   UNL     1      42.008   4.628  13.179  0.00  0.00    +0.000 HD
ATOM     30  H   UNL     1      42.113   6.253  13.269  0.00  0.00    +0.000 HD
ENDBRANCH  27  28
ENDBRANCH  26  27
ENDBRANCH  23  26
ENDBRANCH  19  20
ENDBRANCH   3  19
TORSDOF 7
ENDMDL
