MODEL 1
REMARK VINA RESULT:    -7.928      0.000      0.000
REMARK INTER + INTRA:         -11.385
REMARK INTER:                 -10.709
REMARK INTRA:                  -0.677
REMARK UNBOUND:                -0.677
REMARK  Name = 
REMARK  7 active torsions:
REMARK  status: ('A' for Active; 'I' for Inactive)
REMARK    1  A    between atoms: C_1  and  C_2
REMARK    2  A    between atoms: C_7  and  C_8
REMARK    3  A    between atoms: N_10  and  C_11
REMARK    4  A    between atoms: C_11  and  C_12
REMARK    5  A    between atoms: C_15  and  C_16
REMARK    6  A    between atoms: C_16  and  N_17
REMARK    7  A    between atoms: C_18  and  C_20
REMARK                            x       y       z     vdW  Elec       q    Type
REMARK                         _______ _______ _______ _____ _____    ______ ____
ROOT
ATOM      1  C   UNL     1      44.826   5.624  10.799  0.00  0.00    +0.000 A 
ATOM      2  C   UNL     1      44.135   6.308  11.809  0.00  0.00    +0.000 A 
ATOM      3  C   UNL     1      44.813   7.153  12.696  0.00  0.00    +0.000 A 
ATOM      4  C   UNL     1      46.196   7.347  12.584  0.00  0.00    +0.000 A 
ATOM      5  C   UNL     1      46.890   6.648  11.587  0.00  0.00    +0.000 A 
ATOM      6  C   UNL     1      46.212   5.804  10.699  0.00  0.00    +0.000 A 
ENDROOT
BRANCH   1   7
ATOM      7  C   UNL     1      44.088   4.746   9.818  0.00  0.00    +0.000 C 
BRANCH   7  10
ATOM      8  C   UNL     1      45.474   3.073   8.659  0.00  0.00    +0.000 C 
ATOM      9  O   UNL     1      45.249   2.222   9.513  0.00  0.00    +0.000 OA
ATOM     10  N   UNL     1      44.951   4.347   8.725  0.00  0.00    +0.000 N 
ATOM     11  H   UNL     1      44.925   4.918   7.893  0.00  0.00    +0.000 HD
BRANCH   8  18
ATOM     12  C   UNL     1      46.514   0.228   7.991  0.00  0.00    +0.000 C 
ATOM     13  C   UNL     1      46.772   1.444   7.153  0.00  0.00    +0.000 A 
ATOM     14  N   UNL     1      47.491   1.192   6.020  0.00  0.00    +0.000 NA
ATOM     15  C   UNL     1      47.712   2.209   5.161  0.00  0.00    +0.000 A 
ATOM     16  C   UNL     1      47.257   3.494   5.372  0.00  0.00    +0.000 A 
ATOM     17  C   UNL     1      46.536   3.750   6.536  0.00  0.00    +0.000 A 
ATOM     18  C   UNL     1      46.290   2.722   7.461  0.00  0.00    +0.000 A 
ENDBRANCH   8  18
ENDBRANCH   7  10
ENDBRANCH   1   7
BRANCH   4  19
ATOM     19  C   UNL     1      46.930   8.267  13.529  0.00  0.00    +0.000 C 
BRANCH  19  20
ATOM     20  N   UNL     1      47.384   7.570  14.707  0.00  0.00    +0.000 N 
ATOM     21  C   UNL     1      48.663   7.079  14.792  0.00  0.00    +0.000 C 
ATOM     22  O   UNL     1      49.488   7.260  13.899  0.00  0.00    +0.000 OA
ATOM     23  H   UNL     1      46.671   7.214  15.334  0.00  0.00    +0.000 HD
BRANCH  21  24
ATOM     24  C   UNL     1      49.021   6.374  16.030  0.00  0.00    +0.000 A 
ATOM     25  C   UNL     1      50.042   6.869  16.832  0.00  0.00    +0.000 A 
ATOM     26  S   UNL     1      50.298   5.962  18.254  0.00  0.00    +0.000 S 
ATOM     27  C   UNL     1      49.090   4.844  17.824  0.00  0.00    +0.000 A 
ATOM     28  N   UNL     1      48.812   3.775  18.617  0.00  0.00    +0.000 NA
ATOM     29  C   UNL     1      47.894   2.993  18.156  0.00  0.00    +0.000 A 
ATOM     30  N   UNL     1      47.226   3.186  16.974  0.00  0.00    +0.000 N 
ATOM     31  C   UNL     1      47.453   4.265  16.154  0.00  0.00    +0.000 A 
ATOM     32  O   UNL     1      46.809   4.429  15.123  0.00  0.00    +0.000 OA
ATOM     33  C   UNL     1      48.485   5.171  16.621  0.00  0.00    +0.000 A 
ATOM     34  H   UNL     1      46.512   2.539  16.673  0.00  0.00    +0.000 HD
ENDBRANCH  21  24
ENDBRANCH  19  20
ENDBRANCH   4  19
TORSDOF 6
ENDMDL
MODEL 2
REMARK VINA RESULT:    -7.880      3.255      8.894
REMARK INTER + INTRA:         -11.321
REMARK INTER:                 -10.140
REMARK INTRA:                  -1.181
REMARK UNBOUND:                -0.677
REMARK  Name = 
REMARK  7 active torsions:
REMARK  status: ('A' for Active; 'I' for Inactive)
REMARK    1  A    between atoms: C_1  and  C_2
REMARK    2  A    between atoms: C_7  and  C_8
REMARK    3  A    between atoms: N_10  and  C_11
REMARK    4  A    between atoms: C_11  and  C_12
REMARK    5  A    between atoms: C_15  and  C_16
REMARK    6  A    between atoms: C_16  and  N_17
REMARK    7  A    between atoms: C_18  and  C_20
REMARK                            x       y       z     vdW  Elec       q    Type
REMARK                         _______ _______ _______ _____ _____    ______ ____
ROOT
ATOM      1  C   UNL     1      50.082   7.253  15.513  0.00  0.00    +0.000 A 
ATOM      2  C   UNL     1      48.883   6.530  15.440  0.00  0.00    +0.000 A 
ATOM      3  C   UNL     1      48.018   6.684  14.348  0.00  0.00    +0.000 A 
ATOM      4  C   UNL     1      48.341   7.553  13.298  0.00  0.00    +0.000 A 
ATOM      5  C   UNL     1      49.530   8.291  13.381  0.00  0.00    +0.000 A 
ATOM      6  C   UNL     1      50.395   8.135  14.471  0.00  0.00    +0.000 A 
ENDROOT
BRANCH   1   7
ATOM      7  C   UNL     1      51.031   7.055  16.669  0.00  0.00    +0.000 C 
BRANCH   7  10
ATOM      8  C   UNL     1      51.041   4.874  17.811  0.00  0.00    +0.000 C 
ATOM      9  O   UNL     1      50.312   5.284  18.708  0.00  0.00    +0.000 OA
ATOM     10  N   UNL     1      51.454   5.674  16.766  0.00  0.00    +0.000 N 
ATOM     11  H   UNL     1      51.811   5.246  15.925  0.00  0.00    +0.000 HD
BRANCH   8  18
ATOM     12  C   UNL     1      49.267   2.515  16.856  0.00  0.00    +0.000 C 
ATOM     13  C   UNL     1      50.667   2.369  17.374  0.00  0.00    +0.000 A 
ATOM     14  N   UNL     1      51.129   1.084  17.360  0.00  0.00    +0.000 NA
ATOM     15  C   UNL     1      52.405   0.858  17.737  0.00  0.00    +0.000 A 
ATOM     16  C   UNL     1      53.265   1.858  18.146  0.00  0.00    +0.000 A 
ATOM     17  C   UNL     1      52.785   3.164  18.171  0.00  0.00    +0.000 A 
ATOM     18  C   UNL     1      51.460   3.443  17.795  0.00  0.00    +0.000 A 
ENDBRANCH   8  18
ENDBRANCH   7  10
ENDBRANCH   1   7
BRANCH   4  19
ATOM     19  C   UNL     1      47.420   7.713  12.113  0.00  0.00    +0.000 C 
BRANCH  19  20
ATOM     20  N   UNL     1      46.762   6.474  11.778  0.00  0.00    +0.000 N 
ATOM     21  C   UNL     1      45.392   6.385  11.744  0.00  0.00    +0.000 C 
ATOM     22  O   UNL     1      44.674   7.362  11.941  0.00  0.00    +0.000 OA
ATOM     23  H   UNL     1      47.315   5.626  11.845  0.00  0.00    +0.000 HD
BRANCH  21  24
ATOM     24  C   UNL     1      44.822   5.074  11.403  0.00  0.00    +0.000 A 
ATOM     25  C   UNL     1      44.060   4.390  12.342  0.00  0.00    +0.000 A 
ATOM     26  S   UNL     1      43.435   2.910  11.770  0.00  0.00    +0.000 S 
ATOM     27  C   UNL     1      44.203   3.103  10.266  0.00  0.00    +0.000 A 
ATOM     28  N   UNL     1      44.094   2.154   9.298  0.00  0.00    +0.000 NA
ATOM     29  C   UNL     1      44.752   2.415   8.218  0.00  0.00    +0.000 A 
ATOM     30  N   UNL     1      45.505   3.543   8.016  0.00  0.00    +0.000 N 
ATOM     31  C   UNL     1      45.622   4.541   8.954  0.00  0.00    +0.000 A 
ATOM     32  O   UNL     1      46.272   5.556   8.726  0.00  0.00    +0.000 OA
ATOM     33  C   UNL     1      44.911   4.291  10.193  0.00  0.00    +0.000 A 
ATOM     34  H   UNL     1      45.991   3.691   7.144  0.00  0.00    +0.000 HD
ENDBRANCH  21  24
ENDBRANCH  19  20
ENDBRANCH   4  19
TORSDOF 6
ENDMDL
MODEL 3
REMARK VINA RESULT:    -7.705      1.924      2.537
REMARK INTER + INTRA:         -11.085
REMARK INTER:                 -10.262
REMARK INTRA:                  -0.822
REMARK UNBOUND:                -0.677
REMARK  Name = 
REMARK  7 active torsions:
REMARK  status: ('A' for Active; 'I' for Inactive)
REMARK    1  A    between atoms: C_1  and  C_2
REMARK    2  A    between atoms: C_7  and  C_8
REMARK    3  A    between atoms: N_10  and  C_11
REMARK    4  A    between atoms: C_11  and  C_12
REMARK    5  A    between atoms: C_15  and  C_16
REMARK    6  A    between atoms: C_16  and  N_17
REMARK    7  A    between atoms: C_18  and  C_20
REMARK                            x       y       z     vdW  Elec       q    Type
REMARK                         _______ _______ _______ _____ _____    ______ ____
ROOT
ATOM      1  C   UNL     1      44.646   4.763  12.069  0.00  0.00    +0.000 A 
ATOM      2  C   UNL     1      44.020   5.917  11.577  0.00  0.00    +0.000 A 
ATOM      3  C   UNL     1      44.525   7.189  11.876  0.00  0.00    +0.000 A 
ATOM      4  C   UNL     1      45.676   7.335  12.661  0.00  0.00    +0.000 A 
ATOM      5  C   UNL     1      46.290   6.182  13.169  0.00  0.00    +0.000 A 
ATOM      6  C   UNL     1      45.787   4.911  12.868  0.00  0.00    +0.000 A 
ENDROOT
BRANCH   1   7
ATOM      7  C   UNL     1      44.126   3.392  11.712  0.00  0.00    +0.000 C 
BRANCH   7  10
ATOM      8  C   UNL     1      44.801   3.038   9.371  0.00  0.00    +0.000 C 
ATOM      9  O   UNL     1      43.948   3.814   8.955  0.00  0.00    +0.000 OA
ATOM     10  N   UNL     1      44.962   2.761  10.712  0.00  0.00    +0.000 N 
ATOM     11  H   UNL     1      45.826   2.350  11.034  0.00  0.00    +0.000 HD
BRANCH   8  18
ATOM     12  C   UNL     1      46.752   4.584   7.519  0.00  0.00    +0.000 C 
ATOM     13  C   UNL     1      46.633   3.091   7.568  0.00  0.00    +0.000 A 
ATOM     14  N   UNL     1      47.499   2.440   6.736  0.00  0.00    +0.000 NA
ATOM     15  C   UNL     1      47.521   1.091   6.762  0.00  0.00    +0.000 A 
ATOM     16  C   UNL     1      46.707   0.333   7.579  0.00  0.00    +0.000 A 
ATOM     17  C   UNL     1      45.815   1.000   8.415  0.00  0.00    +0.000 A 
ATOM     18  C   UNL     1      45.753   2.404   8.414  0.00  0.00    +0.000 A 
ENDBRANCH   8  18
ENDBRANCH   7  10
ENDBRANCH   1   7
BRANCH   4  19
ATOM     19  C   UNL     1      46.232   8.703  12.975  0.00  0.00    +0.000 C 
BRANCH  19  20
ATOM     20  N   UNL     1      46.808   8.754  14.296  0.00  0.00    +0.000 N 
ATOM     21  C   UNL     1      48.169   8.757  14.477  0.00  0.00    +0.000 C 
ATOM     22  O   UNL     1      48.949   8.774  13.528  0.00  0.00    +0.000 OA
ATOM     23  H   UNL     1      46.203   8.506  15.072  0.00  0.00    +0.000 HD
BRANCH  21  24
ATOM     24  C   UNL     1      48.653   8.798  15.864  0.00  0.00    +0.000 A 
ATOM     25  C   UNL     1      48.834  10.023  16.493  0.00  0.00    +0.000 A 
ATOM     26  S   UNL     1      49.353   9.893  18.112  0.00  0.00    +0.000 S 
ATOM     27  C   UNL     1      49.407   8.196  18.016  0.00  0.00    +0.000 A 
ATOM     28  N   UNL     1      49.805   7.447  19.079  0.00  0.00    +0.000 NA
ATOM     29  C   UNL     1      49.826   6.175  18.859  0.00  0.00    +0.000 A 
ATOM     30  N   UNL     1      49.480   5.583  17.671  0.00  0.00    +0.000 N 
ATOM     31  C   UNL     1      49.044   6.296  16.580  0.00  0.00    +0.000 A 
ATOM     32  O   UNL     1      48.703   5.733  15.545  0.00  0.00    +0.000 OA
ATOM     33  C   UNL     1      49.013   7.734  16.771  0.00  0.00    +0.000 A 
ATOM     34  H   UNL     1      49.511   4.580  17.565  0.00  0.00    +0.000 HD
ENDBRANCH  21  24
ENDBRANCH  19  20
ENDBRANCH   4  19
TORSDOF 6
ENDMDL
MODEL 4
REMARK VINA RESULT:    -7.491      3.703      8.585
REMARK INTER + INTRA:         -10.796
REMARK INTER:                  -9.800
REMARK INTRA:                  -0.995
REMARK UNBOUND:                -0.677
REMARK  Name = 
REMARK  7 active torsions:
REMARK  status: ('A' for Active; 'I' for Inactive)
REMARK    1  A    between atoms: C_1  and  C_2
REMARK    2  A    between atoms: C_7  and  C_8
REMARK    3  A    between atoms: N_10  and  C_11
REMARK    4  A    between atoms: C_11  and  C_12
REMARK    5  A    between atoms: C_15  and  C_16
REMARK    6  A    between atoms: C_16  and  N_17
REMARK    7  A    between atoms: C_18  and  C_20
REMARK                            x       y       z     vdW  Elec       q    Type
REMARK                         _______ _______ _______ _____ _____    ______ ____
ROOT
ATOM      1  C   UNL     1      49.765   7.324  15.939  0.00  0.00    +0.000 A 
ATOM      2  C   UNL     1      50.053   8.528  15.282  0.00  0.00    +0.000 A 
ATOM      3  C   UNL     1      49.473   8.826  14.042  0.00  0.00    +0.000 A 
ATOM      4  C   UNL     1      48.580   7.932  13.438  0.00  0.00    +0.000 A 
ATOM      5  C   UNL     1      48.307   6.719  14.085  0.00  0.00    +0.000 A 
ATOM      6  C   UNL     1      48.885   6.422  15.325  0.00  0.00    +0.000 A 
ENDROOT
BRANCH   1   7
ATOM      7  C   UNL     1      50.358   7.023  17.293  0.00  0.00    +0.000 C 
BRANCH   7  10
ATOM      8  C   UNL     1      50.481   4.675  18.024  0.00  0.00    +0.000 C 
ATOM      9  O   UNL     1      49.459   4.778  18.694  0.00  0.00    +0.000 OA
ATOM     10  N   UNL     1      51.005   5.727  17.303  0.00  0.00    +0.000 N 
ATOM     11  H   UNL     1      51.666   5.542  16.563  0.00  0.00    +0.000 HD
BRANCH   8  18
ATOM     12  C   UNL     1      49.302   2.167  16.628  0.00  0.00    +0.000 C 
ATOM     13  C   UNL     1      50.642   2.214  17.298  0.00  0.00    +0.000 A 
ATOM     14  N   UNL     1      51.342   1.044  17.216  0.00  0.00    +0.000 NA
ATOM     15  C   UNL     1      52.591   1.007  17.725  0.00  0.00    +0.000 A 
ATOM     16  C   UNL     1      53.196   2.089  18.333  0.00  0.00    +0.000 A 
ATOM     17  C   UNL     1      52.473   3.275  18.428  0.00  0.00    +0.000 A 
ATOM     18  C   UNL     1      51.166   3.354  17.919  0.00  0.00    +0.000 A 
ENDBRANCH   8  18
ENDBRANCH   7  10
ENDBRANCH   1   7
BRANCH   4  19
ATOM     19  C   UNL     1      47.942   8.253  12.108  0.00  0.00    +0.000 C 
BRANCH  19  20
ATOM     20  N   UNL     1      47.344   7.086  11.508  0.00  0.00    +0.000 N 
ATOM     21  C   UNL     1      45.983   6.981  11.362  0.00  0.00    +0.000 C 
ATOM     22  O   UNL     1      45.224   7.893  11.681  0.00  0.00    +0.000 OA
ATOM     23  H   UNL     1      47.916   6.249  11.459  0.00  0.00    +0.000 HD
BRANCH  21  24
ATOM     24  C   UNL     1      45.476   5.746  10.749  0.00  0.00    +0.000 A 
ATOM     25  C   UNL     1      45.705   5.503   9.401  0.00  0.00    +0.000 A 
ATOM     26  S   UNL     1      45.093   4.005   8.860  0.00  0.00    +0.000 S 
ATOM     27  C   UNL     1      44.451   3.651  10.395  0.00  0.00    +0.000 A 
ATOM     28  N   UNL     1      43.762   2.500  10.616  0.00  0.00    +0.000 NA
ATOM     29  C   UNL     1      43.306   2.373  11.817  0.00  0.00    +0.000 A 
ATOM     30  N   UNL     1      43.482   3.292  12.819  0.00  0.00    +0.000 N 
ATOM     31  C   UNL     1      44.194   4.455  12.650  0.00  0.00    +0.000 A 
ATOM     32  O   UNL     1      44.367   5.237  13.579  0.00  0.00    +0.000 OA
ATOM     33  C   UNL     1      44.719   4.653  11.313  0.00  0.00    +0.000 A 
ATOM     34  H   UNL     1      43.106   3.129  13.741  0.00  0.00    +0.000 HD
ENDBRANCH  21  24
ENDBRANCH  19  20
ENDBRANCH   4  19
TORSDOF 6
ENDMDL
MODEL 5
REMARK VINA RESULT:    -7.140      5.114      7.571
REMARK INTER + INTRA:         -10.321
REMARK INTER:                  -9.359
REMARK INTRA:                  -0.962
REMARK UNBOUND:                -0.677
REMARK  Name = 
REMARK  7 active torsions:
REMARK  status: ('A' for Active; 'I' for Inactive)
REMARK    1  A    between atoms: C_1  and  C_2
REMARK    2  A    between atoms: C_7  and  C_8
REMARK    3  A    between atoms: N_10  and  C_11
REMARK    4  A    between atoms: C_11  and  C_12
REMARK    5  A    between atoms: C_15  and  C_16
REMARK    6  A    between atoms: C_16  and  N_17
REMARK    7  A    between atoms: C_18  and  C_20
REMARK                            x       y       z     vdW  Elec       q    Type
REMARK                         _______ _______ _______ _____ _____    ______ ____
ROOT
ATOM      1  C   UNL     1      50.400   8.922  11.383  0.00  0.00    +0.000 A 
ATOM      2  C   UNL     1      49.461   9.958  11.480  0.00  0.00    +0.000 A 
ATOM      3  C   UNL     1      48.163   9.708  11.944  0.00  0.00    +0.000 A 
ATOM      4  C   UNL     1      47.780   8.419  12.335  0.00  0.00    +0.000 A 
ATOM      5  C   UNL     1      48.712   7.379  12.219  0.00  0.00    +0.000 A 
ATOM      6  C   UNL     1      50.010   7.629  11.758  0.00  0.00    +0.000 A 
ENDROOT
BRANCH   1   7
ATOM      7  C   UNL     1      51.810   9.200  10.923  0.00  0.00    +0.000 C 
BRANCH   7  10
ATOM      8  C   UNL     1      52.879   8.125   8.982  0.00  0.00    +0.000 C 
ATOM      9  O   UNL     1      52.858   9.164   8.332  0.00  0.00    +0.000 OA
ATOM     10  N   UNL     1      52.382   8.042  10.266  0.00  0.00    +0.000 N 
ATOM     11  H   UNL     1      52.659   7.273  10.857  0.00  0.00    +0.000 HD
BRANCH   8  18
ATOM     12  C   UNL     1      55.702   7.078   9.732  0.00  0.00    +0.000 C 
ATOM     13  C   UNL     1      54.794   6.428   8.732  0.00  0.00    +0.000 A 
ATOM     14  N   UNL     1      55.303   5.286   8.185  0.00  0.00    +0.000 NA
ATOM     15  C   UNL     1      54.531   4.585   7.328  0.00  0.00    +0.000 A 
ATOM     16  C   UNL     1      53.255   4.969   6.968  0.00  0.00    +0.000 A 
ATOM     17  C   UNL     1      52.745   6.142   7.518  0.00  0.00    +0.000 A 
ATOM     18  C   UNL     1      53.519   6.906   8.408  0.00  0.00    +0.000 A 
ENDBRANCH   8  18
ENDBRANCH   7  10
ENDBRANCH   1   7
BRANCH   4  19
ATOM     19  C   UNL     1      46.386   8.146  12.848  0.00  0.00    +0.000 C 
BRANCH  19  20
ATOM     20  N   UNL     1      45.952   6.809  12.528  0.00  0.00    +0.000 N 
ATOM     21  C   UNL     1      44.882   6.591  11.695  0.00  0.00    +0.000 C 
ATOM     22  O   UNL     1      44.289   7.515  11.145  0.00  0.00    +0.000 OA
ATOM     23  H   UNL     1      46.267   6.064  13.140  0.00  0.00    +0.000 HD
BRANCH  21  24
ATOM     24  C   UNL     1      44.514   5.191  11.443  0.00  0.00    +0.000 A 
ATOM     25  C   UNL     1      43.776   4.492  12.390  0.00  0.00    +0.000 A 
ATOM     26  S   UNL     1      43.393   2.898  11.921  0.00  0.00    +0.000 S 
ATOM     27  C   UNL     1      44.246   3.064  10.459  0.00  0.00    +0.000 A 
ATOM     28  N   UNL     1      44.336   2.030   9.580  0.00  0.00    +0.000 NA
ATOM     29  C   UNL     1      45.036   2.284   8.526  0.00  0.00    +0.000 A 
ATOM     30  N   UNL     1      45.652   3.483   8.269  0.00  0.00    +0.000 N 
ATOM     31  C   UNL     1      45.565   4.563   9.113  0.00  0.00    +0.000 A 
ATOM     32  O   UNL     1      46.094   5.635   8.834  0.00  0.00    +0.000 OA
ATOM     33  C   UNL     1      44.798   4.327  10.321  0.00  0.00    +0.000 A 
ATOM     34  H   UNL     1      46.180   3.620   7.420  0.00  0.00    +0.000 HD
ENDBRANCH  21  24
ENDBRANCH  19  20
ENDBRANCH   4  19
TORSDOF 6
ENDMDL
MODEL 6
REMARK VINA RESULT:    -7.078      3.402      4.314
REMARK INTER + INTRA:         -10.238
REMARK INTER:                  -9.261
REMARK INTRA:                  -0.977
REMARK UNBOUND:                -0.677
REMARK  Name = 
REMARK  7 active torsions:
REMARK  status: ('A' for Active; 'I' for Inactive)
REMARK    1  A    between atoms: C_1  and  C_2
REMARK    2  A    between atoms: C_7  and  C_8
REMARK    3  A    between atoms: N_10  and  C_11
REMARK    4  A    between atoms: C_11  and  C_12
REMARK    5  A    between atoms: C_15  and  C_16
REMARK    6  A    between atoms: C_16  and  N_17
REMARK    7  A    between atoms: C_18  and  C_20
REMARK                            x       y       z     vdW  Elec       q    Type
REMARK                         _______ _______ _______ _____ _____    ______ ____
ROOT
ATOM      1  C   UNL     1      44.643   4.781  12.140  0.00  0.00    +0.000 A 
ATOM      2  C   UNL     1      43.842   5.870  11.769  0.00  0.00    +0.000 A 
ATOM      3  C   UNL     1      44.262   7.184  12.014  0.00  0.00    +0.000 A 
ATOM      4  C   UNL     1      45.499   7.438  12.621  0.00  0.00    +0.000 A 
ATOM      5  C   UNL     1      46.290   6.349  13.009  0.00  0.00    +0.000 A 
ATOM      6  C   UNL     1      45.872   5.036  12.762  0.00  0.00    +0.000 A 
ENDROOT
BRANCH   1   7
ATOM      7  C   UNL     1      44.208   3.367  11.838  0.00  0.00    +0.000 C 
BRANCH   7  10
ATOM      8  C   UNL     1      44.803   3.042   9.471  0.00  0.00    +0.000 C 
ATOM      9  O   UNL     1      43.895   3.773   9.090  0.00  0.00    +0.000 OA
ATOM     10  N   UNL     1      45.034   2.778  10.805  0.00  0.00    +0.000 N 
ATOM     11  H   UNL     1      45.930   2.411  11.091  0.00  0.00    +0.000 HD
BRANCH   8  18
ATOM     12  C   UNL     1      46.679   4.680   7.620  0.00  0.00    +0.000 C 
ATOM     13  C   UNL     1      46.592   3.183   7.630  0.00  0.00    +0.000 A 
ATOM     14  N   UNL     1      47.452   2.575   6.762  0.00  0.00    +0.000 NA
ATOM     15  C   UNL     1      47.503   1.226   6.749  0.00  0.00    +0.000 A 
ATOM     16  C   UNL     1      46.724   0.429   7.563  0.00  0.00    +0.000 A 
ATOM     17  C   UNL     1      45.838   1.054   8.437  0.00  0.00    +0.000 A 
ATOM     18  C   UNL     1      45.747   2.455   8.476  0.00  0.00    +0.000 A 
ENDBRANCH   8  18
ENDBRANCH   7  10
ENDBRANCH   1   7
BRANCH   4  19
ATOM     19  C   UNL     1      45.962   8.852  12.875  0.00  0.00    +0.000 C 
BRANCH  19  20
ATOM     20  N   UNL     1      47.393   8.976  12.746  0.00  0.00    +0.000 N 
ATOM     21  C   UNL     1      48.201   9.062  13.853  0.00  0.00    +0.000 C 
ATOM     22  O   UNL     1      47.749   8.980  14.993  0.00  0.00    +0.000 OA
ATOM     23  H   UNL     1      47.750   9.275  11.845  0.00  0.00    +0.000 HD
BRANCH  21  24
ATOM     24  C   UNL     1      49.644   9.197  13.611  0.00  0.00    +0.000 A 
ATOM     25  C   UNL     1      50.402  10.028  14.425  0.00  0.00    +0.000 A 
ATOM     26  S   UNL     1      52.064  10.034  14.041  0.00  0.00    +0.000 S 
ATOM     27  C   UNL     1      51.823   8.968  12.738  0.00  0.00    +0.000 A 
ATOM     28  N   UNL     1      52.862   8.576  11.953  0.00  0.00    +0.000 NA
ATOM     29  C   UNL     1      52.532   7.790  10.984  0.00  0.00    +0.000 A 
ATOM     30  N   UNL     1      51.256   7.356  10.731  0.00  0.00    +0.000 N 
ATOM     31  C   UNL     1      50.180   7.702  11.513  0.00  0.00    +0.000 A 
ATOM     32  O   UNL     1      49.057   7.264  11.284  0.00  0.00    +0.000 OA
ATOM     33  C   UNL     1      50.495   8.596  12.611  0.00  0.00    +0.000 A 
ATOM     34  H   UNL     1      51.065   6.734   9.960  0.00  0.00    +0.000 HD
ENDBRANCH  21  24
ENDBRANCH  19  20
ENDBRANCH   4  19
TORSDOF 6
ENDMDL
MODEL 7
REMARK VINA RESULT:    -6.794      3.816      8.956
REMARK INTER + INTRA:          -9.854
REMARK INTER:                  -9.347
REMARK INTRA:                  -0.507
REMARK UNBOUND:                -0.677
REMARK  Name = 
REMARK  7 active torsions:
REMARK  status: ('A' for Active; 'I' for Inactive)
REMARK    1  A    between atoms: C_1  and  C_2
REMARK    2  A    between atoms: C_7  and  C_8
REMARK    3  A    between atoms: N_10  and  C_11
REMARK    4  A    between atoms: C_11  and  C_12
REMARK    5  A    between atoms: C_15  and  C_16
REMARK    6  A    between atoms: C_16  and  N_17
REMARK    7  A    between atoms: C_18  and  C_20
REMARK                            x       y       z     vdW  Elec       q    Type
REMARK                         _______ _______ _______ _____ _____    ______ ____
ROOT
ATOM      1  C   UNL     1      49.359   5.264  17.473  0.00  0.00    +0.000 A 
ATOM      2  C   UNL     1      48.184   4.924  16.787  0.00  0.00    +0.000 A 
ATOM      3  C   UNL     1      47.868   5.527  15.563  0.00  0.00    +0.000 A 
ATOM      4  C   UNL     1      48.728   6.472  14.989  0.00  0.00    +0.000 A 
ATOM      5  C   UNL     1      49.893   6.827  15.683  0.00  0.00    +0.000 A 
ATOM      6  C   UNL     1      50.209   6.223  16.906  0.00  0.00    +0.000 A 
ENDROOT
BRANCH   1   7
ATOM      7  C   UNL     1      49.718   4.584  18.771  0.00  0.00    +0.000 C 
BRANCH   7  10
ATOM      8  C   UNL     1      51.188   2.866  17.797  0.00  0.00    +0.000 C 
ATOM      9  O   UNL     1      50.295   2.440  17.073  0.00  0.00    +0.000 OA
ATOM     10  N   UNL     1      50.999   3.915  18.672  0.00  0.00    +0.000 N 
ATOM     11  H   UNL     1      51.800   4.408  19.037  0.00  0.00    +0.000 HD
BRANCH   8  18
ATOM     12  C   UNL     1      53.818   4.510  17.730  0.00  0.00    +0.000 C 
ATOM     13  C   UNL     1      53.751   3.014  17.664  0.00  0.00    +0.000 A 
ATOM     14  N   UNL     1      54.974   2.408  17.605  0.00  0.00    +0.000 NA
ATOM     15  C   UNL     1      55.023   1.060  17.617  0.00  0.00    +0.000 A 
ATOM     16  C   UNL     1      53.900   0.259  17.677  0.00  0.00    +0.000 A 
ATOM     17  C   UNL     1      52.655   0.881  17.722  0.00  0.00    +0.000 A 
ATOM     18  C   UNL     1      52.558   2.283  17.703  0.00  0.00    +0.000 A 
ENDBRANCH   8  18
ENDBRANCH   7  10
ENDBRANCH   1   7
BRANCH   4  19
ATOM     19  C   UNL     1      48.400   7.116  13.663  0.00  0.00    +0.000 C 
BRANCH  19  20
ATOM     20  N   UNL     1      47.640   6.231  12.815  0.00  0.00    +0.000 N 
ATOM     21  C   UNL     1      46.587   6.698  12.067  0.00  0.00    +0.000 C 
ATOM     22  O   UNL     1      46.285   7.888  12.043  0.00  0.00    +0.000 OA
ATOM     23  H   UNL     1      47.718   5.237  12.998  0.00  0.00    +0.000 HD
BRANCH  21  24
ATOM     24  C   UNL     1      45.870   5.712  11.245  0.00  0.00    +0.000 A 
ATOM     25  C   UNL     1      45.972   5.766   9.861  0.00  0.00    +0.000 A 
ATOM     26  S   UNL     1      45.120   4.524   9.062  0.00  0.00    +0.000 S 
ATOM     27  C   UNL     1      44.540   3.899  10.534  0.00  0.00    +0.000 A 
ATOM     28  N   UNL     1      43.711   2.821  10.558  0.00  0.00    +0.000 NA
ATOM     29  C   UNL     1      43.325   2.472  11.739  0.00  0.00    +0.000 A 
ATOM     30  N   UNL     1      43.695   3.101  12.899  0.00  0.00    +0.000 N 
ATOM     31  C   UNL     1      44.551   4.176  12.926  0.00  0.00    +0.000 A 
ATOM     32  O   UNL     1      44.895   4.691  13.985  0.00  0.00    +0.000 OA
ATOM     33  C   UNL     1      45.007   4.617  11.622  0.00  0.00    +0.000 A 
ATOM     34  H   UNL     1      43.362   2.773  13.794  0.00  0.00    +0.000 HD
ENDBRANCH  21  24
ENDBRANCH  19  20
ENDBRANCH   4  19
TORSDOF 6
ENDMDL
MODEL 8
REMARK VINA RESULT:    -6.363      4.394      9.983
REMARK INTER + INTRA:          -9.272
REMARK INTER:                  -8.284
REMARK INTRA:                  -0.988
REMARK UNBOUND:                -0.677
REMARK  Name = 
REMARK  7 active torsions:
REMARK  status: ('A' for Active; 'I' for Inactive)
REMARK    1  A    between atoms: C_1  and  C_2
REMARK    2  A    between atoms: C_7  and  C_8
REMARK    3  A    between atoms: N_10  and  C_11
REMARK    4  A    between atoms: C_11  and  C_12
REMARK    5  A    between atoms: C_15  and  C_16
REMARK    6  A    between atoms: C_16  and  N_17
REMARK    7  A    between atoms: C_18  and  C_20
REMARK                            x       y       z     vdW  Elec       q    Type
REMARK                         _______ _______ _______ _____ _____    ______ ____
ROOT
ATOM      1  C   UNL     1      50.242   5.236  19.233  0.00  0.00    +0.000 A 
ATOM      2  C   UNL     1      48.896   5.605  19.368  0.00  0.00    +0.000 A 
ATOM      3  C   UNL     1      47.912   5.037  18.548  0.00  0.00    +0.000 A 
ATOM      4  C   UNL     1      48.249   4.076  17.586  0.00  0.00    +0.000 A 
ATOM      5  C   UNL     1      49.597   3.722  17.438  0.00  0.00    +0.000 A 
ATOM      6  C   UNL     1      50.581   4.288  18.259  0.00  0.00    +0.000 A 
ENDROOT
BRANCH   1   7
ATOM      7  C   UNL     1      51.295   5.817  20.145  0.00  0.00    +0.000 C 
BRANCH   7  10
ATOM      8  C   UNL     1      52.348   7.638  18.866  0.00  0.00    +0.000 C 
ATOM      9  O   UNL     1      51.376   8.370  19.012  0.00  0.00    +0.000 OA
ATOM     10  N   UNL     1      52.400   6.361  19.383  0.00  0.00    +0.000 N 
ATOM     11  H   UNL     1      53.293   5.902  19.484  0.00  0.00    +0.000 HD
BRANCH   8  18
ATOM     12  C   UNL     1      53.201   6.832  15.994  0.00  0.00    +0.000 C 
ATOM     13  C   UNL     1      53.958   7.787  16.867  0.00  0.00    +0.000 A 
ATOM     14  N   UNL     1      55.067   8.318  16.273  0.00  0.00    +0.000 NA
ATOM     15  C   UNL     1      55.775   9.246  16.951  0.00  0.00    +0.000 A 
ATOM     16  C   UNL     1      55.443   9.679  18.218  0.00  0.00    +0.000 A 
ATOM     17  C   UNL     1      54.320   9.123  18.826  0.00  0.00    +0.000 A 
ATOM     18  C   UNL     1      53.559   8.148  18.159  0.00  0.00    +0.000 A 
ENDBRANCH   8  18
ENDBRANCH   7  10
ENDBRANCH   1   7
BRANCH   4  19
ATOM     19  C   UNL     1      47.192   3.452  16.709  0.00  0.00    +0.000 C 
BRANCH  19  20
ATOM     20  N   UNL     1      46.656   4.399  15.763  0.00  0.00    +0.000 N 
ATOM     21  C   UNL     1      46.765   4.189  14.410  0.00  0.00    +0.000 C 
ATOM     22  O   UNL     1      47.269   3.168  13.950  0.00  0.00    +0.000 OA
ATOM     23  H   UNL     1      46.456   5.331  16.108  0.00  0.00    +0.000 HD
BRANCH  21  24
ATOM     24  C   UNL     1      46.196   5.221  13.532  0.00  0.00    +0.000 A 
ATOM     25  C   UNL     1      46.925   6.372  13.261  0.00  0.00    +0.000 A 
ATOM     26  S   UNL     1      46.143   7.443  12.189  0.00  0.00    +0.000 S 
ATOM     27  C   UNL     1      44.777   6.433  12.089  0.00  0.00    +0.000 A 
ATOM     28  N   UNL     1      43.701   6.784  11.336  0.00  0.00    +0.000 NA
ATOM     29  C   UNL     1      42.725   5.940  11.374  0.00  0.00    +0.000 A 
ATOM     30  N   UNL     1      42.730   4.774  12.094  0.00  0.00    +0.000 N 
ATOM     31  C   UNL     1      43.804   4.364  12.847  0.00  0.00    +0.000 A 
ATOM     32  O   UNL     1      43.792   3.295  13.447  0.00  0.00    +0.000 OA
ATOM     33  C   UNL     1      44.926   5.284  12.848  0.00  0.00    +0.000 A 
ATOM     34  H   UNL     1      41.935   4.152  12.076  0.00  0.00    +0.000 HD
ENDBRANCH  21  24
ENDBRANCH  19  20
ENDBRANCH   4  19
TORSDOF 6
ENDMDL
MODEL 9
REMARK VINA RESULT:    -6.111      5.777      7.378
REMARK INTER + INTRA:          -8.931
REMARK INTER:                  -8.285
REMARK INTRA:                  -0.647
REMARK UNBOUND:                -0.677
REMARK  Name = 
REMARK  7 active torsions:
REMARK  status: ('A' for Active; 'I' for Inactive)
REMARK    1  A    between atoms: C_1  and  C_2
REMARK    2  A    between atoms: C_7  and  C_8
REMARK    3  A    between atoms: N_10  and  C_11
REMARK    4  A    between atoms: C_11  and  C_12
REMARK    5  A    between atoms: C_15  and  C_16
REMARK    6  A    between atoms: C_16  and  N_17
REMARK    7  A    between atoms: C_18  and  C_20
REMARK                            x       y       z     vdW  Elec       q    Type
REMARK                         _______ _______ _______ _____ _____    ______ ____
ROOT
ATOM      1  C   UNL     1      52.022   9.411  10.178  0.00  0.00    +0.000 A 
ATOM      2  C   UNL     1      51.271  10.160  11.094  0.00  0.00    +0.000 A 
ATOM      3  C   UNL     1      50.444   9.526  12.030  0.00  0.00    +0.000 A 
ATOM      4  C   UNL     1      50.361   8.129  12.082  0.00  0.00    +0.000 A 
ATOM      5  C   UNL     1      51.097   7.380  11.153  0.00  0.00    +0.000 A 
ATOM      6  C   UNL     1      51.926   8.013  10.219  0.00  0.00    +0.000 A 
ENDROOT
BRANCH   1   7
ATOM      7  C   UNL     1      52.945  10.093   9.197  0.00  0.00    +0.000 C 
BRANCH   7  10
ATOM      8  C   UNL     1      53.096   9.150   6.928  0.00  0.00    +0.000 C 
ATOM      9  O   UNL     1      52.267   9.941   6.490  0.00  0.00    +0.000 OA
ATOM     10  N   UNL     1      53.491   9.144   8.249  0.00  0.00    +0.000 N 
ATOM     11  H   UNL     1      54.351   8.684   8.508  0.00  0.00    +0.000 HD
BRANCH   8  18
ATOM     12  C   UNL     1      52.999   6.061   7.200  0.00  0.00    +0.000 C 
ATOM     13  C   UNL     1      53.733   6.795   6.118  0.00  0.00    +0.000 A 
ATOM     14  N   UNL     1      54.346   5.976   5.213  0.00  0.00    +0.000 NA
ATOM     15  C   UNL     1      54.971   6.540   4.159  0.00  0.00    +0.000 A 
ATOM     16  C   UNL     1      55.032   7.904   3.952  0.00  0.00    +0.000 A 
ATOM     17  C   UNL     1      54.418   8.735   4.885  0.00  0.00    +0.000 A 
ATOM     18  C   UNL     1      53.763   8.190   6.002  0.00  0.00    +0.000 A 
ENDBRANCH   8  18
ENDBRANCH   7  10
ENDBRANCH   1   7
BRANCH   4  19
ATOM     19  C   UNL     1      49.482   7.440  13.097  0.00  0.00    +0.000 C 
BRANCH  19  20
ATOM     20  N   UNL     1      48.174   7.154  12.563  0.00  0.00    +0.000 N 
ATOM     21  C   UNL     1      47.292   6.347  13.240  0.00  0.00    +0.000 C 
ATOM     22  O   UNL     1      47.555   5.884  14.347  0.00  0.00    +0.000 OA
ATOM     23  H   UNL     1      48.033   7.325  11.573  0.00  0.00    +0.000 HD
BRANCH  21  24
ATOM     24  C   UNL     1      45.990   6.109  12.602  0.00  0.00    +0.000 A 
ATOM     25  C   UNL     1      45.264   7.180  12.098  0.00  0.00    +0.000 A 
ATOM     26  S   UNL     1      43.800   6.727  11.350  0.00  0.00    +0.000 S 
ATOM     27  C   UNL     1      44.056   5.086  11.720  0.00  0.00    +0.000 A 
ATOM     28  N   UNL     1      43.142   4.141  11.374  0.00  0.00    +0.000 NA
ATOM     29  C   UNL     1      43.449   2.942  11.741  0.00  0.00    +0.000 A 
ATOM     30  N   UNL     1      44.590   2.602  12.421  0.00  0.00    +0.000 N 
ATOM     31  C   UNL     1      45.554   3.519  12.768  0.00  0.00    +0.000 A 
ATOM     32  O   UNL     1      46.584   3.175  13.340  0.00  0.00    +0.000 OA
ATOM     33  C   UNL     1      45.253   4.885  12.387  0.00  0.00    +0.000 A 
ATOM     34  H   UNL     1      44.775   1.643  12.674  0.00  0.00    +0.000 HD
ENDBRANCH  21  24
ENDBRANCH  19  20
ENDBRANCH   4  19
TORSDOF 6
ENDMDL
