MODEL 1
REMARK VINA RESULT:    -8.650      0.000      0.000
REMARK INTER + INTRA:         -11.370
REMARK INTER:                 -11.179
REMARK INTRA:                  -0.192
REMARK UNBOUND:                -0.192
REMARK  Name = 
REMARK  6 active torsions:
REMARK  status: ('A' for Active; 'I' for Inactive)
REMARK    1  A    between atoms: C_1  and  C_2
REMARK    2  A    between atoms: C_2  and  N_3
REMARK    3  A    between atoms: C_2  and  C_16
REMARK    4  A    between atoms: C_4  and  C_6
REMARK    5  A    between atoms: C_19  and  O_20
REMARK    6  A    between atoms: O_20  and  C_21
REMARK                            x       y       z     vdW  Elec       q    Type
REMARK                         _______ _______ _______ _____ _____    ______ ____
ROOT
ATOM      1  C   UNL     1      46.286   8.594  11.778  0.00  0.00    +0.000 C 
ATOM      2  C   UNL     1      45.602   7.431  12.504  0.00  0.00    +0.000 C 
ENDROOT
BRANCH   2   3
ATOM      3  C   UNL     1      45.349   6.236  11.614  0.00  0.00    +0.000 A 
ATOM      4  C   UNL     1      44.676   5.104  12.097  0.00  0.00    +0.000 A 
ATOM      5  C   UNL     1      44.438   4.020  11.251  0.00  0.00    +0.000 A 
ATOM      6  C   UNL     1      44.886   4.105   9.945  0.00  0.00    +0.000 A 
ATOM      7  N   UNL     1      45.624   5.138   9.477  0.00  0.00    +0.000 NA
ATOM      8  C   UNL     1      45.825   6.177  10.310  0.00  0.00    +0.000 A 
BRANCH   6   9
ATOM      9  O   UNL     1      44.522   3.091   9.068  0.00  0.00    +0.000 OA
BRANCH   9  10
ATOM     10  C   UNL     1      45.492   2.680   8.175  0.00  0.00    +0.000 A 
ATOM     11  C   UNL     1      46.036   1.409   8.360  0.00  0.00    +0.000 A 
ATOM     12  C   UNL     1      47.049   0.958   7.510  0.00  0.00    +0.000 A 
ATOM     13  C   UNL     1      47.511   1.770   6.472  0.00  0.00    +0.000 A 
ATOM     14  C   UNL     1      46.939   3.022   6.261  0.00  0.00    +0.000 A 
ATOM     15  C   UNL     1      45.913   3.464   7.094  0.00  0.00    +0.000 A 
ENDBRANCH   9  10
ENDBRANCH   6   9
ENDBRANCH   2   3
BRANCH   2  16
ATOM     16  N   UNL     1      46.385   6.992  13.642  0.00  0.00    +0.000 N 
ATOM     17  C   UNL     1      47.715   6.690  13.571  0.00  0.00    +0.000 C 
ATOM     18  O   UNL     1      48.359   6.773  12.530  0.00  0.00    +0.000 OA
ATOM     19  H   UNL     1      45.870   6.767  14.486  0.00  0.00    +0.000 HD
BRANCH  17  20
ATOM     20  C   UNL     1      48.349   6.331  14.848  0.00  0.00    +0.000 A 
ATOM     21  C   UNL     1      49.375   7.120  15.351  0.00  0.00    +0.000 A 
ATOM     22  S   UNL     1      49.964   6.589  16.861  0.00  0.00    +0.000 S 
ATOM     23  C   UNL     1      48.904   5.257  16.869  0.00  0.00    +0.000 A 
ATOM     24  N   UNL     1      48.917   4.361  17.891  0.00  0.00    +0.000 NA
ATOM     25  C   UNL     1      48.083   3.382  17.754  0.00  0.00    +0.000 A 
ATOM     26  N   UNL     1      47.233   3.226  16.692  0.00  0.00    +0.000 N 
ATOM     27  C   UNL     1      47.147   4.136  15.664  0.00  0.00    +0.000 A 
ATOM     28  O   UNL     1      46.310   4.017  14.773  0.00  0.00    +0.000 OA
ATOM     29  C   UNL     1      48.090   5.238  15.751  0.00  0.00    +0.000 A 
ATOM     30  H   UNL     1      46.586   2.451  16.660  0.00  0.00    +0.000 HD
ENDBRANCH  17  20
ENDBRANCH   2  16
TORSDOF 5
ENDMDL
MODEL 2
REMARK VINA RESULT:    -8.093      1.626      2.144
REMARK INTER + INTRA:         -10.651
REMARK INTER:                  -9.450
REMARK INTRA:                  -1.201
REMARK UNBOUND:                -0.192
REMARK  Name = 
REMARK  6 active torsions:
REMARK  status: ('A' for Active; 'I' for Inactive)
REMARK    1  A    between atoms: C_1  and  C_2
REMARK    2  A    between atoms: C_2  and  N_3
REMARK    3  A    between atoms: C_2  and  C_16
REMARK    4  A    between atoms: C_4  and  C_6
REMARK    5  A    between atoms: C_19  and  O_20
REMARK    6  A    between atoms: O_20  and  C_21
REMARK                            x       y       z     vdW  Elec       q    Type
REMARK                         _______ _______ _______ _____ _____    ______ ____
ROOT
ATOM      1  C   UNL     1      48.403   8.907  12.570  0.00  0.00    +0.000 C 
ATOM      2  C   UNL     1      47.543   8.039  13.495  0.00  0.00    +0.000 C 
ENDROOT
BRANCH   2   3
ATOM      3  C   UNL     1      46.576   7.147  12.751  0.00  0.00    +0.000 A 
ATOM      4  C   UNL     1      45.424   7.672  12.149  0.00  0.00    +0.000 A 
ATOM      5  C   UNL     1      44.556   6.831  11.452  0.00  0.00    +0.000 A 
ATOM      6  C   UNL     1      44.871   5.485  11.383  0.00  0.00    +0.000 A 
ATOM      7  N   UNL     1      45.920   4.932  12.035  0.00  0.00    +0.000 NA
ATOM      8  C   UNL     1      46.749   5.769  12.687  0.00  0.00    +0.000 A 
BRANCH   6   9
ATOM      9  O   UNL     1      44.087   4.677  10.570  0.00  0.00    +0.000 OA
BRANCH   9  10
ATOM     10  C   UNL     1      44.758   3.934   9.619  0.00  0.00    +0.000 A 
ATOM     11  C   UNL     1      44.652   2.546   9.697  0.00  0.00    +0.000 A 
ATOM     12  C   UNL     1      45.343   1.743   8.786  0.00  0.00    +0.000 A 
ATOM     13  C   UNL     1      46.131   2.328   7.792  0.00  0.00    +0.000 A 
ATOM     14  C   UNL     1      46.204   3.714   7.686  0.00  0.00    +0.000 A 
ATOM     15  C   UNL     1      45.497   4.514   8.580  0.00  0.00    +0.000 A 
ENDBRANCH   9  10
ENDBRANCH   6   9
ENDBRANCH   2   3
BRANCH   2  16
ATOM     16  N   UNL     1      48.368   7.206  14.346  0.00  0.00    +0.000 N 
ATOM     17  C   UNL     1      48.736   7.553  15.614  0.00  0.00    +0.000 C 
ATOM     18  O   UNL     1      48.388   8.605  16.140  0.00  0.00    +0.000 OA
ATOM     19  H   UNL     1      48.801   6.400  13.907  0.00  0.00    +0.000 HD
BRANCH  17  20
ATOM     20  C   UNL     1      49.517   6.542  16.343  0.00  0.00    +0.000 A 
ATOM     21  C   UNL     1      50.782   6.864  16.819  0.00  0.00    +0.000 A 
ATOM     22  S   UNL     1      51.526   5.595  17.681  0.00  0.00    +0.000 S 
ATOM     23  C   UNL     1      50.207   4.556  17.402  0.00  0.00    +0.000 A 
ATOM     24  N   UNL     1      50.217   3.275  17.858  0.00  0.00    +0.000 NA
ATOM     25  C   UNL     1      49.166   2.589  17.549  0.00  0.00    +0.000 A 
ATOM     26  N   UNL     1      48.103   3.072  16.833  0.00  0.00    +0.000 N 
ATOM     27  C   UNL     1      48.025   4.375  16.400  0.00  0.00    +0.000 A 
ATOM     28  O   UNL     1      47.019   4.804  15.841  0.00  0.00    +0.000 OA
ATOM     29  C   UNL     1      49.199   5.180  16.690  0.00  0.00    +0.000 A 
ATOM     30  H   UNL     1      47.299   2.489  16.648  0.00  0.00    +0.000 HD
ENDBRANCH  17  20
ENDBRANCH   2  16
TORSDOF 5
ENDMDL
MODEL 3
REMARK VINA RESULT:    -7.812      3.006      3.998
REMARK INTER + INTRA:         -10.287
REMARK INTER:                  -9.235
REMARK INTRA:                  -1.052
REMARK UNBOUND:                -0.192
REMARK  Name = 
REMARK  6 active torsions:
REMARK  status: ('A' for Active; 'I' for Inactive)
REMARK    1  A    between atoms: C_1  and  C_2
REMARK    2  A    between atoms: C_2  and  N_3
REMARK    3  A    between atoms: C_2  and  C_16
REMARK    4  A    between atoms: C_4  and  C_6
REMARK    5  A    between atoms: C_19  and  O_20
REMARK    6  A    between atoms: O_20  and  C_21
REMARK                            x       y       z     vdW  Elec       q    Type
REMARK                         _______ _______ _______ _____ _____    ______ ____
ROOT
ATOM      1  C   UNL     1      47.540   3.986  16.312  0.00  0.00    +0.000 C 
ATOM      2  C   UNL     1      47.876   4.922  15.147  0.00  0.00    +0.000 C 
ENDROOT
BRANCH   2   3
ATOM      3  C   UNL     1      46.904   4.815  13.994  0.00  0.00    +0.000 A 
ATOM      4  C   UNL     1      46.514   5.950  13.269  0.00  0.00    +0.000 A 
ATOM      5  C   UNL     1      45.629   5.823  12.197  0.00  0.00    +0.000 A 
ATOM      6  C   UNL     1      45.161   4.558  11.887  0.00  0.00    +0.000 A 
ATOM      7  N   UNL     1      45.439   3.460  12.627  0.00  0.00    +0.000 NA
ATOM      8  C   UNL     1      46.307   3.608  13.646  0.00  0.00    +0.000 A 
BRANCH   6   9
ATOM      9  O   UNL     1      44.399   4.414  10.736  0.00  0.00    +0.000 OA
BRANCH   9  10
ATOM     10  C   UNL     1      45.035   3.846   9.650  0.00  0.00    +0.000 A 
ATOM     11  C   UNL     1      44.989   2.457   9.534  0.00  0.00    +0.000 A 
ATOM     12  C   UNL     1      45.650   1.826   8.477  0.00  0.00    +0.000 A 
ATOM     13  C   UNL     1      46.348   2.583   7.533  0.00  0.00    +0.000 A 
ATOM     14  C   UNL     1      46.360   3.972   7.624  0.00  0.00    +0.000 A 
ATOM     15  C   UNL     1      45.681   4.602   8.664  0.00  0.00    +0.000 A 
ENDBRANCH   9  10
ENDBRANCH   6   9
ENDBRANCH   2   3
BRANCH   2  16
ATOM     16  N   UNL     1      47.915   6.304  15.581  0.00  0.00    +0.000 N 
ATOM     17  C   UNL     1      49.071   7.004  15.768  0.00  0.00    +0.000 C 
ATOM     18  O   UNL     1      50.180   6.516  15.573  0.00  0.00    +0.000 OA
ATOM     19  H   UNL     1      47.037   6.704  15.895  0.00  0.00    +0.000 HD
BRANCH  17  20
ATOM     20  C   UNL     1      48.901   8.416  16.143  0.00  0.00    +0.000 A 
ATOM     21  C   UNL     1      49.361   9.413  15.292  0.00  0.00    +0.000 A 
ATOM     22  S   UNL     1      49.041  10.989  15.856  0.00  0.00    +0.000 S 
ATOM     23  C   UNL     1      48.324  10.395  17.281  0.00  0.00    +0.000 A 
ATOM     24  N   UNL     1      47.854  11.243  18.234  0.00  0.00    +0.000 NA
ATOM     25  C   UNL     1      47.364  10.657  19.277  0.00  0.00    +0.000 A 
ATOM     26  N   UNL     1      47.295   9.299  19.447  0.00  0.00    +0.000 N 
ATOM     27  C   UNL     1      47.708   8.405  18.488  0.00  0.00    +0.000 A 
ATOM     28  O   UNL     1      47.547   7.195  18.631  0.00  0.00    +0.000 OA
ATOM     29  C   UNL     1      48.301   9.012  17.309  0.00  0.00    +0.000 A 
ATOM     30  H   UNL     1      46.875   8.906  20.277  0.00  0.00    +0.000 HD
ENDBRANCH  17  20
ENDBRANCH   2  16
TORSDOF 5
ENDMDL
MODEL 4
REMARK VINA RESULT:    -7.762      2.098      2.948
REMARK INTER + INTRA:         -10.222
REMARK INTER:                  -9.335
REMARK INTRA:                  -0.887
REMARK UNBOUND:                -0.192
REMARK  Name = 
REMARK  6 active torsions:
REMARK  status: ('A' for Active; 'I' for Inactive)
REMARK    1  A    between atoms: C_1  and  C_2
REMARK    2  A    between atoms: C_2  and  N_3
REMARK    3  A    between atoms: C_2  and  C_16
REMARK    4  A    between atoms: C_4  and  C_6
REMARK    5  A    between atoms: C_19  and  O_20
REMARK    6  A    between atoms: O_20  and  C_21
REMARK                            x       y       z     vdW  Elec       q    Type
REMARK                         _______ _______ _______ _____ _____    ______ ____
ROOT
ATOM      1  C   UNL     1      49.515   7.547  13.045  0.00  0.00    +0.000 C 
ATOM      2  C   UNL     1      48.104   7.797  13.588  0.00  0.00    +0.000 C 
ENDROOT
BRANCH   2   3
ATOM      3  C   UNL     1      47.037   7.001  12.872  0.00  0.00    +0.000 A 
ATOM      4  C   UNL     1      46.071   7.635  12.079  0.00  0.00    +0.000 A 
ATOM      5  C   UNL     1      45.107   6.877  11.413  0.00  0.00    +0.000 A 
ATOM      6  C   UNL     1      45.142   5.502  11.567  0.00  0.00    +0.000 A 
ATOM      7  N   UNL     1      45.997   4.868  12.403  0.00  0.00    +0.000 NA
ATOM      8  C   UNL     1      46.925   5.623  13.020  0.00  0.00    +0.000 A 
BRANCH   6   9
ATOM      9  O   UNL     1      44.276   4.741  10.793  0.00  0.00    +0.000 OA
BRANCH   9  10
ATOM     10  C   UNL     1      44.858   3.972   9.804  0.00  0.00    +0.000 A 
ATOM     11  C   UNL     1      45.545   4.641   8.792  0.00  0.00    +0.000 A 
ATOM     12  C   UNL     1      46.118   3.915   7.744  0.00  0.00    +0.000 A 
ATOM     13  C   UNL     1      46.014   2.522   7.715  0.00  0.00    +0.000 A 
ATOM     14  C   UNL     1      45.365   1.850   8.748  0.00  0.00    +0.000 A 
ATOM     15  C   UNL     1      44.813   2.572   9.803  0.00  0.00    +0.000 A 
ENDBRANCH   9  10
ENDBRANCH   6   9
ENDBRANCH   2   3
BRANCH   2  16
ATOM     16  N   UNL     1      48.026   7.492  15.003  0.00  0.00    +0.000 N 
ATOM     17  C   UNL     1      48.694   8.195  15.964  0.00  0.00    +0.000 C 
ATOM     18  O   UNL     1      49.413   9.155  15.704  0.00  0.00    +0.000 OA
ATOM     19  H   UNL     1      47.566   6.623  15.253  0.00  0.00    +0.000 HD
BRANCH  17  20
ATOM     20  C   UNL     1      48.431   7.776  17.349  0.00  0.00    +0.000 A 
ATOM     21  C   UNL     1      47.950   8.700  18.267  0.00  0.00    +0.000 A 
ATOM     22  S   UNL     1      47.656   8.036  19.809  0.00  0.00    +0.000 S 
ATOM     23  C   UNL     1      48.212   6.505  19.319  0.00  0.00    +0.000 A 
ATOM     24  N   UNL     1      48.255   5.463  20.192  0.00  0.00    +0.000 NA
ATOM     25  C   UNL     1      48.728   4.368  19.695  0.00  0.00    +0.000 A 
ATOM     26  N   UNL     1      49.152   4.218  18.401  0.00  0.00    +0.000 N 
ATOM     27  C   UNL     1      49.076   5.227  17.470  0.00  0.00    +0.000 A 
ATOM     28  O   UNL     1      49.377   5.035  16.294  0.00  0.00    +0.000 OA
ATOM     29  C   UNL     1      48.585   6.493  17.987  0.00  0.00    +0.000 A 
ATOM     30  H   UNL     1      49.487   3.325  18.069  0.00  0.00    +0.000 HD
ENDBRANCH  17  20
ENDBRANCH   2  16
TORSDOF 5
ENDMDL
MODEL 5
REMARK VINA RESULT:    -7.746      3.289      5.491
REMARK INTER + INTRA:         -10.201
REMARK INTER:                  -9.069
REMARK INTRA:                  -1.132
REMARK UNBOUND:                -0.192
REMARK  Name = 
REMARK  6 active torsions:
REMARK  status: ('A' for Active; 'I' for Inactive)
REMARK    1  A    between atoms: C_1  and  C_2
REMARK    2  A    between atoms: C_2  and  N_3
REMARK    3  A    between atoms: C_2  and  C_16
REMARK    4  A    between atoms: C_4  and  C_6
REMARK    5  A    between atoms: C_19  and  O_20
REMARK    6  A    between atoms: O_20  and  C_21
REMARK                            x       y       z     vdW  Elec       q    Type
REMARK                         _______ _______ _______ _____ _____    ______ ____
ROOT
ATOM      1  C   UNL     1      49.614   7.847  16.215  0.00  0.00    +0.000 C 
ATOM      2  C   UNL     1      49.119   6.502  16.758  0.00  0.00    +0.000 C 
ENDROOT
BRANCH   2   3
ATOM      3  C   UNL     1      48.267   5.736  15.772  0.00  0.00    +0.000 A 
ATOM      4  C   UNL     1      48.116   6.178  14.451  0.00  0.00    +0.000 A 
ATOM      5  C   UNL     1      47.339   5.444  13.554  0.00  0.00    +0.000 A 
ATOM      6  C   UNL     1      46.734   4.287  14.014  0.00  0.00    +0.000 A 
ATOM      7  N   UNL     1      46.779   3.888  15.306  0.00  0.00    +0.000 NA
ATOM      8  C   UNL     1      47.548   4.606  16.145  0.00  0.00    +0.000 A 
BRANCH   6   9
ATOM      9  O   UNL     1      46.083   3.484  13.087  0.00  0.00    +0.000 OA
BRANCH   9  10
ATOM     10  C   UNL     1      45.012   4.056  12.430  0.00  0.00    +0.000 A 
ATOM     11  C   UNL     1      43.979   4.570  13.213  0.00  0.00    +0.000 A 
ATOM     12  C   UNL     1      42.851   5.124  12.600  0.00  0.00    +0.000 A 
ATOM     13  C   UNL     1      42.761   5.172  11.208  0.00  0.00    +0.000 A 
ATOM     14  C   UNL     1      43.810   4.697  10.425  0.00  0.00    +0.000 A 
ATOM     15  C   UNL     1      44.944   4.166  11.035  0.00  0.00    +0.000 A 
ENDBRANCH   9  10
ENDBRANCH   6   9
ENDBRANCH   2   3
BRANCH   2  16
ATOM     16  N   UNL     1      50.229   5.658  17.152  0.00  0.00    +0.000 N 
ATOM     17  C   UNL     1      50.557   5.399  18.452  0.00  0.00    +0.000 C 
ATOM     18  O   UNL     1      49.926   5.860  19.398  0.00  0.00    +0.000 OA
ATOM     19  H   UNL     1      50.866   5.375  16.414  0.00  0.00    +0.000 HD
BRANCH  17  20
ATOM     20  C   UNL     1      51.673   4.462  18.647  0.00  0.00    +0.000 A 
ATOM     21  C   UNL     1      52.778   4.855  19.391  0.00  0.00    +0.000 A 
ATOM     22  S   UNL     1      53.955   3.633  19.558  0.00  0.00    +0.000 S 
ATOM     23  C   UNL     1      53.053   2.554  18.599  0.00  0.00    +0.000 A 
ATOM     24  N   UNL     1      53.522   1.310  18.316  0.00  0.00    +0.000 NA
ATOM     25  C   UNL     1      52.750   0.608  17.553  0.00  0.00    +0.000 A 
ATOM     26  N   UNL     1      51.548   1.037  17.055  0.00  0.00    +0.000 N 
ATOM     27  C   UNL     1      51.009   2.265  17.359  0.00  0.00    +0.000 A 
ATOM     28  O   UNL     1      49.888   2.584  16.973  0.00  0.00    +0.000 OA
ATOM     29  C   UNL     1      51.855   3.109  18.185  0.00  0.00    +0.000 A 
ATOM     30  H   UNL     1      50.980   0.426  16.484  0.00  0.00    +0.000 HD
ENDBRANCH  17  20
ENDBRANCH   2  16
TORSDOF 5
ENDMDL
MODEL 6
REMARK VINA RESULT:    -7.627      2.785      3.742
REMARK INTER + INTRA:         -10.049
REMARK INTER:                  -9.425
REMARK INTRA:                  -0.623
REMARK UNBOUND:                -0.192
REMARK  Name = 
REMARK  6 active torsions:
REMARK  status: ('A' for Active; 'I' for Inactive)
REMARK    1  A    between atoms: C_1  and  C_2
REMARK    2  A    between atoms: C_2  and  N_3
REMARK    3  A    between atoms: C_2  and  C_16
REMARK    4  A    between atoms: C_4  and  C_6
REMARK    5  A    between atoms: C_19  and  O_20
REMARK    6  A    between atoms: O_20  and  C_21
REMARK                            x       y       z     vdW  Elec       q    Type
REMARK                         _______ _______ _______ _____ _____    ______ ____
ROOT
ATOM      1  C   UNL     1      45.058   8.354  12.768  0.00  0.00    +0.000 C 
ATOM      2  C   UNL     1      46.033   7.175  12.845  0.00  0.00    +0.000 C 
ENDROOT
BRANCH   2   3
ATOM      3  C   UNL     1      45.699   6.058  11.883  0.00  0.00    +0.000 A 
ATOM      4  C   UNL     1      45.327   4.789  12.349  0.00  0.00    +0.000 A 
ATOM      5  C   UNL     1      45.006   3.779  11.441  0.00  0.00    +0.000 A 
ATOM      6  C   UNL     1      45.071   4.074  10.091  0.00  0.00    +0.000 A 
ATOM      7  N   UNL     1      45.522   5.255   9.608  0.00  0.00    +0.000 NA
ATOM      8  C   UNL     1      45.810   6.216  10.506  0.00  0.00    +0.000 A 
BRANCH   6   9
ATOM      9  O   UNL     1      44.614   3.117   9.196  0.00  0.00    +0.000 OA
BRANCH   9  10
ATOM     10  C   UNL     1      45.523   2.678   8.253  0.00  0.00    +0.000 A 
ATOM     11  C   UNL     1      46.023   1.384   8.399  0.00  0.00    +0.000 A 
ATOM     12  C   UNL     1      46.977   0.903   7.497  0.00  0.00    +0.000 A 
ATOM     13  C   UNL     1      47.422   1.710   6.447  0.00  0.00    +0.000 A 
ATOM     14  C   UNL     1      46.891   2.986   6.276  0.00  0.00    +0.000 A 
ATOM     15  C   UNL     1      45.924   3.458   7.161  0.00  0.00    +0.000 A 
ENDBRANCH   9  10
ENDBRANCH   6   9
ENDBRANCH   2   3
BRANCH   2  16
ATOM     16  N   UNL     1      47.393   7.604  12.589  0.00  0.00    +0.000 N 
ATOM     17  C   UNL     1      48.487   7.030  13.169  0.00  0.00    +0.000 C 
ATOM     18  O   UNL     1      48.405   6.092  13.956  0.00  0.00    +0.000 OA
ATOM     19  H   UNL     1      47.504   8.465  12.065  0.00  0.00    +0.000 HD
BRANCH  17  20
ATOM     20  C   UNL     1      49.787   7.560  12.728  0.00  0.00    +0.000 A 
ATOM     21  C   UNL     1      50.108   7.553  11.377  0.00  0.00    +0.000 A 
ATOM     22  S   UNL     1      51.628   8.245  11.036  0.00  0.00    +0.000 S 
ATOM     23  C   UNL     1      51.932   8.530  12.687  0.00  0.00    +0.000 A 
ATOM     24  N   UNL     1      53.102   9.087  13.097  0.00  0.00    +0.000 NA
ATOM     25  C   UNL     1      53.212   9.218  14.378  0.00  0.00    +0.000 A 
ATOM     26  N   UNL     1      52.253   8.849  15.284  0.00  0.00    +0.000 N 
ATOM     27  C   UNL     1      51.034   8.334  14.912  0.00  0.00    +0.000 A 
ATOM     28  O   UNL     1      50.159   8.100  15.742  0.00  0.00    +0.000 OA
ATOM     29  C   UNL     1      50.873   8.132  13.483  0.00  0.00    +0.000 A 
ATOM     30  H   UNL     1      52.393   9.004  16.272  0.00  0.00    +0.000 HD
ENDBRANCH  17  20
ENDBRANCH   2  16
TORSDOF 5
ENDMDL
MODEL 7
REMARK VINA RESULT:    -7.350      2.583      4.275
REMARK INTER + INTRA:          -9.690
REMARK INTER:                  -8.602
REMARK INTRA:                  -1.089
REMARK UNBOUND:                -0.192
REMARK  Name = 
REMARK  6 active torsions:
REMARK  status: ('A' for Active; 'I' for Inactive)
REMARK    1  A    between atoms: C_1  and  C_2
REMARK    2  A    between atoms: C_2  and  N_3
REMARK    3  A    between atoms: C_2  and  C_16
REMARK    4  A    between atoms: C_4  and  C_6
REMARK    5  A    between atoms: C_19  and  O_20
REMARK    6  A    between atoms: O_20  and  C_21
REMARK                            x       y       z     vdW  Elec       q    Type
REMARK                         _______ _______ _______ _____ _____    ______ ____
ROOT
ATOM      1  C   UNL     1      47.127   3.865  16.427  0.00  0.00    +0.000 C 
ATOM      2  C   UNL     1      47.680   4.694  15.263  0.00  0.00    +0.000 C 
ENDROOT
BRANCH   2   3
ATOM      3  C   UNL     1      46.776   4.702  14.051  0.00  0.00    +0.000 A 
ATOM      4  C   UNL     1      46.853   5.727  13.099  0.00  0.00    +0.000 A 
ATOM      5  C   UNL     1      46.020   5.703  11.979  0.00  0.00    +0.000 A 
ATOM      6  C   UNL     1      45.132   4.650  11.852  0.00  0.00    +0.000 A 
ATOM      7  N   UNL     1      44.964   3.700  12.801  0.00  0.00    +0.000 NA
ATOM      8  C   UNL     1      45.791   3.739  13.863  0.00  0.00    +0.000 A 
BRANCH   6   9
ATOM      9  O   UNL     1      44.410   4.550  10.671  0.00  0.00    +0.000 OA
BRANCH   9  10
ATOM     10  C   UNL     1      45.030   3.889   9.629  0.00  0.00    +0.000 A 
ATOM     11  C   UNL     1      44.994   2.495   9.643  0.00  0.00    +0.000 A 
ATOM     12  C   UNL     1      45.641   1.774   8.636  0.00  0.00    +0.000 A 
ATOM     13  C   UNL     1      46.314   2.445   7.612  0.00  0.00    +0.000 A 
ATOM     14  C   UNL     1      46.315   3.837   7.575  0.00  0.00    +0.000 A 
ATOM     15  C   UNL     1      45.651   4.556   8.566  0.00  0.00    +0.000 A 
ENDBRANCH   9  10
ENDBRANCH   6   9
ENDBRANCH   2   3
BRANCH   2  16
ATOM     16  N   UNL     1      47.914   6.067  15.664  0.00  0.00    +0.000 N 
ATOM     17  C   UNL     1      49.078   6.499  16.231  0.00  0.00    +0.000 C 
ATOM     18  O   UNL     1      50.030   5.753  16.441  0.00  0.00    +0.000 OA
ATOM     19  H   UNL     1      47.111   6.686  15.647  0.00  0.00    +0.000 HD
BRANCH  17  20
ATOM     20  C   UNL     1      49.150   7.942  16.503  0.00  0.00    +0.000 A 
ATOM     21  C   UNL     1      49.150   8.394  17.817  0.00  0.00    +0.000 A 
ATOM     22  S   UNL     1      49.286  10.088  17.952  0.00  0.00    +0.000 S 
ATOM     23  C   UNL     1      49.296  10.280  16.261  0.00  0.00    +0.000 A 
ATOM     24  N   UNL     1      49.363  11.515  15.697  0.00  0.00    +0.000 NA
ATOM     25  C   UNL     1      49.330  11.516  14.405  0.00  0.00    +0.000 A 
ATOM     26  N   UNL     1      49.246  10.392  13.627  0.00  0.00    +0.000 N 
ATOM     27  C   UNL     1      49.232   9.120  14.152  0.00  0.00    +0.000 A 
ATOM     28  O   UNL     1      49.250   8.130  13.426  0.00  0.00    +0.000 OA
ATOM     29  C   UNL     1      49.230   9.065  15.603  0.00  0.00    +0.000 A 
ATOM     30  H   UNL     1      49.252  10.462  12.620  0.00  0.00    +0.000 HD
ENDBRANCH  17  20
ENDBRANCH   2  16
TORSDOF 5
ENDMDL
MODEL 8
REMARK VINA RESULT:    -7.299      3.577      7.727
REMARK INTER + INTRA:          -9.624
REMARK INTER:                  -8.687
REMARK INTRA:                  -0.936
REMARK UNBOUND:                -0.192
REMARK  Name = 
REMARK  6 active torsions:
REMARK  status: ('A' for Active; 'I' for Inactive)
REMARK    1  A    between atoms: C_1  and  C_2
REMARK    2  A    between atoms: C_2  and  N_3
REMARK    3  A    between atoms: C_2  and  C_16
REMARK    4  A    between atoms: C_4  and  C_6
REMARK    5  A    between atoms: C_19  and  O_20
REMARK    6  A    between atoms: O_20  and  C_21
REMARK                            x       y       z     vdW  Elec       q    Type
REMARK                         _______ _______ _______ _____ _____    ______ ____
ROOT
ATOM      1  C   UNL     1      48.001   9.423  14.669  0.00  0.00    +0.000 C 
ATOM      2  C   UNL     1      48.202   7.981  14.192  0.00  0.00    +0.000 C 
ENDROOT
BRANCH   2   3
ATOM      3  C   UNL     1      48.726   7.061  15.272  0.00  0.00    +0.000 A 
ATOM      4  C   UNL     1      49.772   7.461  16.116  0.00  0.00    +0.000 A 
ATOM      5  C   UNL     1      50.227   6.601  17.118  0.00  0.00    +0.000 A 
ATOM      6  C   UNL     1      49.618   5.364  17.238  0.00  0.00    +0.000 A 
ATOM      7  N   UNL     1      48.678   4.911  16.377  0.00  0.00    +0.000 NA
ATOM      8  C   UNL     1      48.247   5.766  15.431  0.00  0.00    +0.000 A 
BRANCH   6   9
ATOM      9  O   UNL     1      49.972   4.572  18.321  0.00  0.00    +0.000 OA
BRANCH   9  10
ATOM     10  C   UNL     1      50.935   3.611  18.086  0.00  0.00    +0.000 A 
ATOM     11  C   UNL     1      50.523   2.424  17.481  0.00  0.00    +0.000 A 
ATOM     12  C   UNL     1      51.448   1.401  17.257  0.00  0.00    +0.000 A 
ATOM     13  C   UNL     1      52.784   1.568  17.628  0.00  0.00    +0.000 A 
ATOM     14  C   UNL     1      53.205   2.768  18.194  0.00  0.00    +0.000 A 
ATOM     15  C   UNL     1      52.288   3.797  18.396  0.00  0.00    +0.000 A 
ENDBRANCH   9  10
ENDBRANCH   6   9
ENDBRANCH   2   3
BRANCH   2  16
ATOM     16  N   UNL     1      46.967   7.422  13.680  0.00  0.00    +0.000 N 
ATOM     17  C   UNL     1      46.828   6.936  12.412  0.00  0.00    +0.000 C 
ATOM     18  O   UNL     1      47.748   6.927  11.601  0.00  0.00    +0.000 OA
ATOM     19  H   UNL     1      46.143   7.541  14.259  0.00  0.00    +0.000 HD
BRANCH  17  20
ATOM     20  C   UNL     1      45.516   6.346  12.103  0.00  0.00    +0.000 A 
ATOM     21  C   UNL     1      44.504   7.150  11.594  0.00  0.00    +0.000 A 
ATOM     22  S   UNL     1      43.069   6.297  11.248  0.00  0.00    +0.000 S 
ATOM     23  C   UNL     1      43.732   4.836  11.815  0.00  0.00    +0.000 A 
ATOM     24  N   UNL     1      42.998   3.692  11.826  0.00  0.00    +0.000 NA
ATOM     25  C   UNL     1      43.615   2.665  12.310  0.00  0.00    +0.000 A 
ATOM     26  N   UNL     1      44.903   2.678  12.776  0.00  0.00    +0.000 N 
ATOM     27  C   UNL     1      45.700   3.798  12.734  0.00  0.00    +0.000 A 
ATOM     28  O   UNL     1      46.880   3.754  13.073  0.00  0.00    +0.000 OA
ATOM     29  C   UNL     1      45.042   4.991  12.231  0.00  0.00    +0.000 A 
ATOM     30  H   UNL     1      45.335   1.832  13.118  0.00  0.00    +0.000 HD
ENDBRANCH  17  20
ENDBRANCH   2  16
TORSDOF 5
ENDMDL
MODEL 9
REMARK VINA RESULT:    -6.941      2.590      3.361
REMARK INTER + INTRA:          -9.161
REMARK INTER:                  -9.133
REMARK INTRA:                  -0.028
REMARK UNBOUND:                -0.192
REMARK  Name = 
REMARK  6 active torsions:
REMARK  status: ('A' for Active; 'I' for Inactive)
REMARK    1  A    between atoms: C_1  and  C_2
REMARK    2  A    between atoms: C_2  and  N_3
REMARK    3  A    between atoms: C_2  and  C_16
REMARK    4  A    between atoms: C_4  and  C_6
REMARK    5  A    between atoms: C_19  and  O_20
REMARK    6  A    between atoms: O_20  and  C_21
REMARK                            x       y       z     vdW  Elec       q    Type
REMARK                         _______ _______ _______ _____ _____    ______ ____
ROOT
ATOM      1  C   UNL     1      49.347   8.224  13.438  0.00  0.00    +0.000 C 
ATOM      2  C   UNL     1      47.915   8.098  13.967  0.00  0.00    +0.000 C 
ENDROOT
BRANCH   2   3
ATOM      3  C   UNL     1      47.021   7.259  13.082  0.00  0.00    +0.000 A 
ATOM      4  C   UNL     1      47.088   5.859  13.107  0.00  0.00    +0.000 A 
ATOM      5  C   UNL     1      46.240   5.106  12.294  0.00  0.00    +0.000 A 
ATOM      6  C   UNL     1      45.352   5.783  11.477  0.00  0.00    +0.000 A 
ATOM      7  N   UNL     1      45.332   7.131  11.356  0.00  0.00    +0.000 NA
ATOM      8  C   UNL     1      46.149   7.833  12.164  0.00  0.00    +0.000 A 
BRANCH   6   9
ATOM      9  O   UNL     1      44.414   5.035  10.779  0.00  0.00    +0.000 OA
BRANCH   9  10
ATOM     10  C   UNL     1      44.909   4.187   9.808  0.00  0.00    +0.000 A 
ATOM     11  C   UNL     1      44.637   2.826   9.946  0.00  0.00    +0.000 A 
ATOM     12  C   UNL     1      45.148   1.918   9.014  0.00  0.00    +0.000 A 
ATOM     13  C   UNL     1      45.921   2.370   7.943  0.00  0.00    +0.000 A 
ATOM     14  C   UNL     1      46.158   3.733   7.781  0.00  0.00    +0.000 A 
ATOM     15  C   UNL     1      45.630   4.640   8.697  0.00  0.00    +0.000 A 
ENDBRANCH   9  10
ENDBRANCH   6   9
ENDBRANCH   2   3
BRANCH   2  16
ATOM     16  N   UNL     1      47.898   7.528  15.300  0.00  0.00    +0.000 N 
ATOM     17  C   UNL     1      48.939   6.824  15.832  0.00  0.00    +0.000 C 
ATOM     18  O   UNL     1      49.984   6.621  15.220  0.00  0.00    +0.000 OA
ATOM     19  H   UNL     1      47.008   7.541  15.786  0.00  0.00    +0.000 HD
BRANCH  17  20
ATOM     20  C   UNL     1      48.759   6.387  17.225  0.00  0.00    +0.000 A 
ATOM     21  C   UNL     1      49.038   5.071  17.573  0.00  0.00    +0.000 A 
ATOM     22  S   UNL     1      48.822   4.748  19.233  0.00  0.00    +0.000 S 
ATOM     23  C   UNL     1      48.298   6.340  19.533  0.00  0.00    +0.000 A 
ATOM     24  N   UNL     1      47.919   6.728  20.780  0.00  0.00    +0.000 NA
ATOM     25  C   UNL     1      47.514   7.953  20.858  0.00  0.00    +0.000 A 
ATOM     26  N   UNL     1      47.465   8.826  19.804  0.00  0.00    +0.000 N 
ATOM     27  C   UNL     1      47.889   8.494  18.539  0.00  0.00    +0.000 A 
ATOM     28  O   UNL     1      47.920   9.327  17.636  0.00  0.00    +0.000 OA
ATOM     29  C   UNL     1      48.320   7.115  18.388  0.00  0.00    +0.000 A 
ATOM     30  H   UNL     1      47.163   9.780  19.940  0.00  0.00    +0.000 HD
ENDBRANCH  17  20
ENDBRANCH   2  16
TORSDOF 5
ENDMDL
