MODEL 1
REMARK VINA RESULT:    -8.094      0.000      0.000
REMARK INTER + INTRA:         -13.182
REMARK INTER:                 -11.880
REMARK INTRA:                  -1.302
REMARK UNBOUND:                -1.302
REMARK  Name = 
REMARK  9 active torsions:
REMARK  status: ('A' for Active; 'I' for Inactive)
REMARK    1  A    between atoms: C_1  and  O_2
REMARK    2  A    between atoms: O_2  and  C_3
REMARK    3  A    between atoms: C_5  and  C_6
REMARK    4  A    between atoms: C_6  and  N_7
REMARK    5  A    between atoms: N_7  and  C_8
REMARK    6  A    between atoms: C_8  and  C_9
REMARK    7  A    between atoms: C_17  and  C_18
REMARK    8  A    between atoms: C_18  and  N_19
REMARK    9  A    between atoms: C_20  and  C_22
REMARK                            x       y       z     vdW  Elec       q    Type
REMARK                         _______ _______ _______ _____ _____    ______ ____
ROOT
ATOM      1  C   UNL     1      45.275   7.877  12.196  0.00  0.00    +0.000 A 
ATOM      2  C   UNL     1      44.329   7.096  11.518  0.00  0.00    +0.000 A 
ATOM      3  C   UNL     1      44.567   5.740  11.253  0.00  0.00    +0.000 A 
ATOM      4  C   UNL     1      45.783   5.176  11.660  0.00  0.00    +0.000 A 
ATOM      5  C   UNL     1      46.727   5.943  12.343  0.00  0.00    +0.000 A 
ATOM      6  C   UNL     1      46.488   7.302  12.612  0.00  0.00    +0.000 A 
ENDROOT
BRANCH   1   8
ATOM      7  C   UNL     1      44.827  10.070  11.382  0.00  0.00    +0.000 C 
ATOM      8  O   UNL     1      45.121   9.209  12.473  0.00  0.00    +0.000 OA
ENDBRANCH   1   8
BRANCH   3   9
ATOM      9  C   UNL     1      43.521   4.893  10.562  0.00  0.00    +0.000 C 
BRANCH   9  10
ATOM     10  N   UNL     1      44.158   3.744   9.918  0.00  0.00    +0.000 NA
ATOM     11  H   UNL     1      43.517   2.953   9.960  0.00  0.00    +0.000 HD
BRANCH  10  12
ATOM     12  C   UNL     1      44.516   4.016   8.531  0.00  0.00    +0.000 C 
BRANCH  12  13
ATOM     13  C   UNL     1      45.587   3.074   8.075  0.00  0.00    +0.000 A 
ATOM     14  C   UNL     1      46.623   3.464   7.248  0.00  0.00    +0.000 A 
ATOM     15  N   UNL     1      47.588   2.628   6.811  0.00  0.00    +0.000 NA
ATOM     16  C   UNL     1      47.497   1.360   7.235  0.00  0.00    +0.000 A 
ATOM     17  N   UNL     1      46.549   0.863   8.040  0.00  0.00    +0.000 NA
ATOM     18  C   UNL     1      45.606   1.742   8.446  0.00  0.00    +0.000 A 
ENDBRANCH  12  13
ENDBRANCH  10  12
ENDBRANCH   9  10
ENDBRANCH   3   9
BRANCH   6  19
ATOM     19  C   UNL     1      47.498   8.093  13.408  0.00  0.00    +0.000 C 
BRANCH  19  20
ATOM     20  N   UNL     1      47.673   7.542  14.734  0.00  0.00    +0.000 N 
ATOM     21  C   UNL     1      48.868   6.994  15.124  0.00  0.00    +0.000 C 
ATOM     22  O   UNL     1      49.832   6.934  14.363  0.00  0.00    +0.000 OA
ATOM     23  H   UNL     1      47.009   7.841  15.440  0.00  0.00    +0.000 HD
BRANCH  21  24
ATOM     24  C   UNL     1      48.919   6.393  16.466  0.00  0.00    +0.000 A 
ATOM     25  C   UNL     1      49.641   7.012  17.479  0.00  0.00    +0.000 A 
ATOM     26  S   UNL     1      49.836   6.039  18.868  0.00  0.00    +0.000 S 
ATOM     27  C   UNL     1      48.912   4.786  18.182  0.00  0.00    +0.000 A 
ATOM     28  N   UNL     1      48.761   3.591  18.813  0.00  0.00    +0.000 NA
ATOM     29  C   UNL     1      47.995   2.755  18.193  0.00  0.00    +0.000 A 
ATOM     30  N   UNL     1      47.328   3.025  17.025  0.00  0.00    +0.000 N 
ATOM     31  C   UNL     1      47.419   4.233  16.379  0.00  0.00    +0.000 A 
ATOM     32  O   UNL     1      46.714   4.496  15.410  0.00  0.00    +0.000 OA
ATOM     33  C   UNL     1      48.366   5.158  16.966  0.00  0.00    +0.000 A 
ATOM     34  H   UNL     1      46.679   2.359  16.635  0.00  0.00    +0.000 HD
ENDBRANCH  21  24
ENDBRANCH  19  20
ENDBRANCH   6  19
TORSDOF 8
ENDMDL
MODEL 2
REMARK VINA RESULT:    -7.918      1.724      2.531
REMARK INTER + INTRA:         -12.923
REMARK INTER:                 -11.560
REMARK INTRA:                  -1.362
REMARK UNBOUND:                -1.302
REMARK  Name = 
REMARK  9 active torsions:
REMARK  status: ('A' for Active; 'I' for Inactive)
REMARK    1  A    between atoms: C_1  and  O_2
REMARK    2  A    between atoms: O_2  and  C_3
REMARK    3  A    between atoms: C_5  and  C_6
REMARK    4  A    between atoms: C_6  and  N_7
REMARK    5  A    between atoms: N_7  and  C_8
REMARK    6  A    between atoms: C_8  and  C_9
REMARK    7  A    between atoms: C_17  and  C_18
REMARK    8  A    between atoms: C_18  and  N_19
REMARK    9  A    between atoms: C_20  and  C_22
REMARK                            x       y       z     vdW  Elec       q    Type
REMARK                         _______ _______ _______ _____ _____    ______ ____
ROOT
ATOM      1  C   UNL     1      46.622   5.076  13.031  0.00  0.00    +0.000 A 
ATOM      2  C   UNL     1      45.523   4.426  12.453  0.00  0.00    +0.000 A 
ATOM      3  C   UNL     1      44.587   5.134  11.685  0.00  0.00    +0.000 A 
ATOM      4  C   UNL     1      44.755   6.515  11.520  0.00  0.00    +0.000 A 
ATOM      5  C   UNL     1      45.851   7.169  12.085  0.00  0.00    +0.000 A 
ATOM      6  C   UNL     1      46.791   6.460  12.852  0.00  0.00    +0.000 A 
ENDROOT
BRANCH   1   8
ATOM      7  C   UNL     1      47.111   3.808  14.988  0.00  0.00    +0.000 C 
ATOM      8  O   UNL     1      47.565   4.456  13.807  0.00  0.00    +0.000 OA
ENDBRANCH   1   8
BRANCH   3   9
ATOM      9  C   UNL     1      43.429   4.418  11.025  0.00  0.00    +0.000 C 
BRANCH   9  10
ATOM     10  N   UNL     1      43.935   3.412  10.092  0.00  0.00    +0.000 NA
ATOM     11  H   UNL     1      43.162   2.805   9.819  0.00  0.00    +0.000 HD
BRANCH  10  12
ATOM     12  C   UNL     1      44.535   4.010   8.905  0.00  0.00    +0.000 C 
BRANCH  12  13
ATOM     13  C   UNL     1      45.521   3.068   8.288  0.00  0.00    +0.000 A 
ATOM     14  C   UNL     1      46.423   3.460   7.317  0.00  0.00    +0.000 A 
ATOM     15  N   UNL     1      47.308   2.623   6.735  0.00  0.00    +0.000 NA
ATOM     16  C   UNL     1      47.276   1.353   7.161  0.00  0.00    +0.000 A 
ATOM     17  N   UNL     1      46.457   0.854   8.096  0.00  0.00    +0.000 NA
ATOM     18  C   UNL     1      45.589   1.733   8.643  0.00  0.00    +0.000 A 
ENDBRANCH  12  13
ENDBRANCH  10  12
ENDBRANCH   9  10
ENDBRANCH   3   9
BRANCH   6  19
ATOM     19  C   UNL     1      48.001   7.179  13.400  0.00  0.00    +0.000 C 
BRANCH  19  20
ATOM     20  N   UNL     1      47.948   7.277  14.841  0.00  0.00    +0.000 N 
ATOM     21  C   UNL     1      49.062   7.057  15.611  0.00  0.00    +0.000 C 
ATOM     22  O   UNL     1      50.144   6.754  15.111  0.00  0.00    +0.000 OA
ATOM     23  H   UNL     1      47.168   7.796  15.232  0.00  0.00    +0.000 HD
BRANCH  21  24
ATOM     24  C   UNL     1      48.884   7.107  17.070  0.00  0.00    +0.000 A 
ATOM     25  C   UNL     1      48.294   8.217  17.662  0.00  0.00    +0.000 A 
ATOM     26  S   UNL     1      48.436   8.238  19.363  0.00  0.00    +0.000 S 
ATOM     27  C   UNL     1      49.238   6.737  19.365  0.00  0.00    +0.000 A 
ATOM     28  N   UNL     1      49.740   6.204  20.511  0.00  0.00    +0.000 NA
ATOM     29  C   UNL     1      50.280   5.039  20.364  0.00  0.00    +0.000 A 
ATOM     30  N   UNL     1      50.319   4.339  19.185  0.00  0.00    +0.000 N 
ATOM     31  C   UNL     1      49.786   4.823  18.015  0.00  0.00    +0.000 A 
ATOM     32  O   UNL     1      49.717   4.128  17.006  0.00  0.00    +0.000 OA
ATOM     33  C   UNL     1      49.284   6.179  18.100  0.00  0.00    +0.000 A 
ATOM     34  H   UNL     1      50.681   3.398  19.153  0.00  0.00    +0.000 HD
ENDBRANCH  21  24
ENDBRANCH  19  20
ENDBRANCH   6  19
TORSDOF 8
ENDMDL
MODEL 3
REMARK VINA RESULT:    -7.901      2.118      3.648
REMARK INTER + INTRA:         -12.898
REMARK INTER:                 -11.323
REMARK INTRA:                  -1.574
REMARK UNBOUND:                -1.302
REMARK  Name = 
REMARK  9 active torsions:
REMARK  status: ('A' for Active; 'I' for Inactive)
REMARK    1  A    between atoms: C_1  and  O_2
REMARK    2  A    between atoms: O_2  and  C_3
REMARK    3  A    between atoms: C_5  and  C_6
REMARK    4  A    between atoms: C_6  and  N_7
REMARK    5  A    between atoms: N_7  and  C_8
REMARK    6  A    between atoms: C_8  and  C_9
REMARK    7  A    between atoms: C_17  and  C_18
REMARK    8  A    between atoms: C_18  and  N_19
REMARK    9  A    between atoms: C_20  and  C_22
REMARK                            x       y       z     vdW  Elec       q    Type
REMARK                         _______ _______ _______ _____ _____    ______ ____
ROOT
ATOM      1  C   UNL     1      46.745   5.085  13.125  0.00  0.00    +0.000 A 
ATOM      2  C   UNL     1      45.616   4.516  12.520  0.00  0.00    +0.000 A 
ATOM      3  C   UNL     1      44.829   5.252  11.623  0.00  0.00    +0.000 A 
ATOM      4  C   UNL     1      45.177   6.582  11.353  0.00  0.00    +0.000 A 
ATOM      5  C   UNL     1      46.304   7.154  11.945  0.00  0.00    +0.000 A 
ATOM      6  C   UNL     1      47.096   6.416  12.841  0.00  0.00    +0.000 A 
ENDROOT
BRANCH   1   8
ATOM      7  C   UNL     1      46.980   4.101  15.282  0.00  0.00    +0.000 C 
ATOM      8  O   UNL     1      47.549   4.436  14.024  0.00  0.00    +0.000 OA
ENDBRANCH   1   8
BRANCH   3   9
ATOM      9  C   UNL     1      43.639   4.617  10.938  0.00  0.00    +0.000 C 
BRANCH   9  10
ATOM     10  N   UNL     1      44.088   3.529  10.070  0.00  0.00    +0.000 NA
ATOM     11  H   UNL     1      43.312   2.883   9.932  0.00  0.00    +0.000 HD
BRANCH  10  12
ATOM     12  C   UNL     1      44.565   4.011   8.780  0.00  0.00    +0.000 C 
BRANCH  12  13
ATOM     13  C   UNL     1      45.591   3.075   8.220  0.00  0.00    +0.000 A 
ATOM     14  C   UNL     1      46.570   3.483   7.334  0.00  0.00    +0.000 A 
ATOM     15  N   UNL     1      47.493   2.653   6.804  0.00  0.00    +0.000 NA
ATOM     16  C   UNL     1      47.419   1.373   7.194  0.00  0.00    +0.000 A 
ATOM     17  N   UNL     1      46.524   0.859   8.048  0.00  0.00    +0.000 NA
ATOM     18  C   UNL     1      45.622   1.732   8.546  0.00  0.00    +0.000 A 
ENDBRANCH  12  13
ENDBRANCH  10  12
ENDBRANCH   9  10
ENDBRANCH   3   9
BRANCH   6  19
ATOM     19  C   UNL     1      48.345   7.038  13.418  0.00  0.00    +0.000 C 
BRANCH  19  20
ATOM     20  N   UNL     1      48.133   7.481  14.778  0.00  0.00    +0.000 N 
ATOM     21  C   UNL     1      48.963   7.079  15.794  0.00  0.00    +0.000 C 
ATOM     22  O   UNL     1      49.908   6.319  15.596  0.00  0.00    +0.000 OA
ATOM     23  H   UNL     1      47.561   8.310  14.902  0.00  0.00    +0.000 HD
BRANCH  21  24
ATOM     24  C   UNL     1      48.617   7.525  17.153  0.00  0.00    +0.000 A 
ATOM     25  C   UNL     1      48.519   6.600  18.185  0.00  0.00    +0.000 A 
ATOM     26  S   UNL     1      47.826   7.239  19.608  0.00  0.00    +0.000 S 
ATOM     27  C   UNL     1      47.690   8.784  18.909  0.00  0.00    +0.000 A 
ATOM     28  N   UNL     1      47.074   9.805  19.563  0.00  0.00    +0.000 NA
ATOM     29  C   UNL     1      47.088  10.930  18.926  0.00  0.00    +0.000 A 
ATOM     30  N   UNL     1      47.704  11.135  17.718  0.00  0.00    +0.000 N 
ATOM     31  C   UNL     1      48.372  10.143  17.045  0.00  0.00    +0.000 A 
ATOM     32  O   UNL     1      49.024  10.381  16.033  0.00  0.00    +0.000 OA
ATOM     33  C   UNL     1      48.275   8.833  17.656  0.00  0.00    +0.000 A 
ATOM     34  H   UNL     1      47.750  12.058  17.312  0.00  0.00    +0.000 HD
ENDBRANCH  21  24
ENDBRANCH  19  20
ENDBRANCH   6  19
TORSDOF 8
ENDMDL
MODEL 4
REMARK VINA RESULT:    -7.256      1.991      2.544
REMARK INTER + INTRA:         -11.952
REMARK INTER:                 -10.975
REMARK INTRA:                  -0.977
REMARK UNBOUND:                -1.302
REMARK  Name = 
REMARK  9 active torsions:
REMARK  status: ('A' for Active; 'I' for Inactive)
REMARK    1  A    between atoms: C_1  and  O_2
REMARK    2  A    between atoms: O_2  and  C_3
REMARK    3  A    between atoms: C_5  and  C_6
REMARK    4  A    between atoms: C_6  and  N_7
REMARK    5  A    between atoms: N_7  and  C_8
REMARK    6  A    between atoms: C_8  and  C_9
REMARK    7  A    between atoms: C_17  and  C_18
REMARK    8  A    between atoms: C_18  and  N_19
REMARK    9  A    between atoms: C_20  and  C_22
REMARK                            x       y       z     vdW  Elec       q    Type
REMARK                         _______ _______ _______ _____ _____    ______ ____
ROOT
ATOM      1  C   UNL     1      46.068   6.399  12.105  0.00  0.00    +0.000 A 
ATOM      2  C   UNL     1      45.119   5.617  11.432  0.00  0.00    +0.000 A 
ATOM      3  C   UNL     1      44.943   4.262  11.750  0.00  0.00    +0.000 A 
ATOM      4  C   UNL     1      45.749   3.692  12.744  0.00  0.00    +0.000 A 
ATOM      5  C   UNL     1      46.690   4.465  13.425  0.00  0.00    +0.000 A 
ATOM      6  C   UNL     1      46.865   5.823  13.109  0.00  0.00    +0.000 A 
ENDROOT
BRANCH   1   8
ATOM      7  C   UNL     1      45.472   8.676  12.472  0.00  0.00    +0.000 C 
ATOM      8  O   UNL     1      46.309   7.720  11.836  0.00  0.00    +0.000 OA
ENDBRANCH   1   8
BRANCH   3   9
ATOM      9  C   UNL     1      43.885   3.436  11.052  0.00  0.00    +0.000 C 
BRANCH   9  10
ATOM     10  N   UNL     1      44.482   2.214  10.515  0.00  0.00    +0.000 NA
ATOM     11  H   UNL     1      44.106   1.417  11.026  0.00  0.00    +0.000 HD
BRANCH  10  12
ATOM     12  C   UNL     1      44.225   2.053   9.089  0.00  0.00    +0.000 C 
BRANCH  12  13
ATOM     13  C   UNL     1      45.451   2.383   8.296  0.00  0.00    +0.000 A 
ATOM     14  C   UNL     1      45.722   3.656   7.834  0.00  0.00    +0.000 A 
ATOM     15  N   UNL     1      46.812   3.973   7.103  0.00  0.00    +0.000 NA
ATOM     16  C   UNL     1      47.652   2.961   6.842  0.00  0.00    +0.000 A 
ATOM     17  N   UNL     1      47.504   1.690   7.238  0.00  0.00    +0.000 NA
ATOM     18  C   UNL     1      46.394   1.429   7.964  0.00  0.00    +0.000 A 
ENDBRANCH  12  13
ENDBRANCH  10  12
ENDBRANCH   9  10
ENDBRANCH   3   9
BRANCH   6  19
ATOM     19  C   UNL     1      47.845   6.652  13.904  0.00  0.00    +0.000 C 
BRANCH  19  20
ATOM     20  N   UNL     1      47.857   6.264  15.296  0.00  0.00    +0.000 N 
ATOM     21  C   UNL     1      49.009   6.314  16.039  0.00  0.00    +0.000 C 
ATOM     22  O   UNL     1      50.078   6.675  15.552  0.00  0.00    +0.000 OA
ATOM     23  H   UNL     1      46.960   6.249  15.770  0.00  0.00    +0.000 HD
BRANCH  21  24
ATOM     24  C   UNL     1      48.930   5.826  17.425  0.00  0.00    +0.000 A 
ATOM     25  C   UNL     1      49.163   4.486  17.705  0.00  0.00    +0.000 A 
ATOM     26  S   UNL     1      48.743   4.039  19.298  0.00  0.00    +0.000 S 
ATOM     27  C   UNL     1      48.291   5.635  19.679  0.00  0.00    +0.000 A 
ATOM     28  N   UNL     1      47.733   5.945  20.881  0.00  0.00    +0.000 NA
ATOM     29  C   UNL     1      47.486   7.203  21.043  0.00  0.00    +0.000 A 
ATOM     30  N   UNL     1      47.791   8.183  20.134  0.00  0.00    +0.000 N 
ATOM     31  C   UNL     1      48.393   7.918  18.928  0.00  0.00    +0.000 A 
ATOM     32  O   UNL     1      48.773   8.820  18.189  0.00  0.00    +0.000 OA
ATOM     33  C   UNL     1      48.573   6.509  18.645  0.00  0.00    +0.000 A 
ATOM     34  H   UNL     1      47.648   9.157  20.355  0.00  0.00    +0.000 HD
ENDBRANCH  21  24
ENDBRANCH  19  20
ENDBRANCH   6  19
TORSDOF 8
ENDMDL
MODEL 5
REMARK VINA RESULT:    -7.174      1.961      2.246
REMARK INTER + INTRA:         -11.831
REMARK INTER:                 -10.751
REMARK INTRA:                  -1.080
REMARK UNBOUND:                -1.302
REMARK  Name = 
REMARK  9 active torsions:
REMARK  status: ('A' for Active; 'I' for Inactive)
REMARK    1  A    between atoms: C_1  and  O_2
REMARK    2  A    between atoms: O_2  and  C_3
REMARK    3  A    between atoms: C_5  and  C_6
REMARK    4  A    between atoms: C_6  and  N_7
REMARK    5  A    between atoms: N_7  and  C_8
REMARK    6  A    between atoms: C_8  and  C_9
REMARK    7  A    between atoms: C_17  and  C_18
REMARK    8  A    between atoms: C_18  and  N_19
REMARK    9  A    between atoms: C_20  and  C_22
REMARK                            x       y       z     vdW  Elec       q    Type
REMARK                         _______ _______ _______ _____ _____    ______ ____
ROOT
ATOM      1  C   UNL     1      46.470   6.939  12.523  0.00  0.00    +0.000 A 
ATOM      2  C   UNL     1      45.517   6.075  11.968  0.00  0.00    +0.000 A 
ATOM      3  C   UNL     1      45.357   4.769  12.451  0.00  0.00    +0.000 A 
ATOM      4  C   UNL     1      46.185   4.328  13.492  0.00  0.00    +0.000 A 
ATOM      5  C   UNL     1      47.132   5.183  14.056  0.00  0.00    +0.000 A 
ATOM      6  C   UNL     1      47.290   6.495  13.575  0.00  0.00    +0.000 A 
ENDROOT
BRANCH   1   8
ATOM      7  C   UNL     1      45.777   9.218  12.512  0.00  0.00    +0.000 C 
ATOM      8  O   UNL     1      46.696   8.219  12.092  0.00  0.00    +0.000 OA
ENDBRANCH   1   8
BRANCH   3   9
ATOM      9  C   UNL     1      44.294   3.857  11.879  0.00  0.00    +0.000 C 
BRANCH   9  10
ATOM     10  N   UNL     1      44.922   2.736  11.182  0.00  0.00    +0.000 NA
ATOM     11  H   UNL     1      44.827   1.901  11.760  0.00  0.00    +0.000 HD
BRANCH  10  12
ATOM     12  C   UNL     1      44.332   2.498   9.870  0.00  0.00    +0.000 C 
BRANCH  12  13
ATOM     13  C   UNL     1      45.354   2.698   8.794  0.00  0.00    +0.000 A 
ATOM     14  C   UNL     1      46.132   1.669   8.302  0.00  0.00    +0.000 A 
ATOM     15  N   UNL     1      47.071   1.831   7.345  0.00  0.00    +0.000 NA
ATOM     16  C   UNL     1      47.214   3.077   6.874  0.00  0.00    +0.000 A 
ATOM     17  N   UNL     1      46.518   4.153   7.264  0.00  0.00    +0.000 NA
ATOM     18  C   UNL     1      45.594   3.935   8.226  0.00  0.00    +0.000 A 
ENDBRANCH  12  13
ENDBRANCH  10  12
ENDBRANCH   9  10
ENDBRANCH   3   9
BRANCH   6  19
ATOM     19  C   UNL     1      48.277   7.420  14.245  0.00  0.00    +0.000 C 
BRANCH  19  20
ATOM     20  N   UNL     1      49.266   6.680  14.997  0.00  0.00    +0.000 N 
ATOM     21  C   UNL     1      49.349   6.789  16.362  0.00  0.00    +0.000 C 
ATOM     22  O   UNL     1      48.601   7.527  16.999  0.00  0.00    +0.000 OA
ATOM     23  H   UNL     1      49.677   5.874  14.536  0.00  0.00    +0.000 HD
BRANCH  21  24
ATOM     24  C   UNL     1      50.438   6.053  17.024  0.00  0.00    +0.000 A 
ATOM     25  C   UNL     1      51.619   6.706  17.353  0.00  0.00    +0.000 A 
ATOM     26  S   UNL     1      52.869   5.648  17.836  0.00  0.00    +0.000 S 
ATOM     27  C   UNL     1      51.853   4.293  17.676  0.00  0.00    +0.000 A 
ATOM     28  N   UNL     1      52.327   3.029  17.845  0.00  0.00    +0.000 NA
ATOM     29  C   UNL     1      51.429   2.106  17.737  0.00  0.00    +0.000 A 
ATOM     30  N   UNL     1      50.094   2.336  17.527  0.00  0.00    +0.000 N 
ATOM     31  C   UNL     1      49.568   3.598  17.394  0.00  0.00    +0.000 A 
ATOM     32  O   UNL     1      48.357   3.785  17.336  0.00  0.00    +0.000 OA
ATOM     33  C   UNL     1      50.553   4.659  17.378  0.00  0.00    +0.000 A 
ATOM     34  H   UNL     1      49.430   1.576  17.535  0.00  0.00    +0.000 HD
ENDBRANCH  21  24
ENDBRANCH  19  20
ENDBRANCH   6  19
TORSDOF 8
ENDMDL
MODEL 6
REMARK VINA RESULT:    -6.873      2.631      8.005
REMARK INTER + INTRA:         -11.390
REMARK INTER:                 -10.190
REMARK INTRA:                  -1.200
REMARK UNBOUND:                -1.302
REMARK  Name = 
REMARK  9 active torsions:
REMARK  status: ('A' for Active; 'I' for Inactive)
REMARK    1  A    between atoms: C_1  and  O_2
REMARK    2  A    between atoms: O_2  and  C_3
REMARK    3  A    between atoms: C_5  and  C_6
REMARK    4  A    between atoms: C_6  and  N_7
REMARK    5  A    between atoms: N_7  and  C_8
REMARK    6  A    between atoms: C_8  and  C_9
REMARK    7  A    between atoms: C_17  and  C_18
REMARK    8  A    between atoms: C_18  and  N_19
REMARK    9  A    between atoms: C_20  and  C_22
REMARK                            x       y       z     vdW  Elec       q    Type
REMARK                         _______ _______ _______ _____ _____    ______ ____
ROOT
ATOM      1  C   UNL     1      48.345   6.656  13.968  0.00  0.00    +0.000 A 
ATOM      2  C   UNL     1      48.567   6.805  15.343  0.00  0.00    +0.000 A 
ATOM      3  C   UNL     1      48.739   8.074  15.914  0.00  0.00    +0.000 A 
ATOM      4  C   UNL     1      48.704   9.200  15.081  0.00  0.00    +0.000 A 
ATOM      5  C   UNL     1      48.476   9.062  13.712  0.00  0.00    +0.000 A 
ATOM      6  C   UNL     1      48.301   7.790  13.138  0.00  0.00    +0.000 A 
ENDROOT
BRANCH   1   8
ATOM      7  C   UNL     1      47.253   4.540  13.898  0.00  0.00    +0.000 C 
ATOM      8  O   UNL     1      48.188   5.451  13.337  0.00  0.00    +0.000 OA
ENDBRANCH   1   8
BRANCH   3   9
ATOM      9  C   UNL     1      48.931   8.230  17.407  0.00  0.00    +0.000 C 
BRANCH   9  10
ATOM     10  N   UNL     1      49.688   7.095  17.932  0.00  0.00    +0.000 NA
ATOM     11  H   UNL     1      50.518   7.449  18.405  0.00  0.00    +0.000 HD
BRANCH  10  12
ATOM     12  C   UNL     1      48.902   6.285  18.856  0.00  0.00    +0.000 C 
BRANCH  12  13
ATOM     13  C   UNL     1      48.490   5.002  18.204  0.00  0.00    +0.000 A 
ATOM     14  C   UNL     1      47.171   4.684  17.946  0.00  0.00    +0.000 A 
ATOM     15  N   UNL     1      46.776   3.526  17.376  0.00  0.00    +0.000 NA
ATOM     16  C   UNL     1      47.757   2.670  17.056  0.00  0.00    +0.000 A 
ATOM     17  N   UNL     1      49.068   2.864  17.250  0.00  0.00    +0.000 NA
ATOM     18  C   UNL     1      49.407   4.039  17.825  0.00  0.00    +0.000 A 
ENDBRANCH  12  13
ENDBRANCH  10  12
ENDBRANCH   9  10
ENDBRANCH   3   9
BRANCH   6  19
ATOM     19  C   UNL     1      47.992   7.673  11.665  0.00  0.00    +0.000 C 
BRANCH  19  20
ATOM     20  N   UNL     1      47.011   6.641  11.413  0.00  0.00    +0.000 N 
ATOM     21  C   UNL     1      45.669   6.926  11.391  0.00  0.00    +0.000 C 
ATOM     22  O   UNL     1      45.244   8.061  11.597  0.00  0.00    +0.000 OA
ATOM     23  H   UNL     1      47.347   5.795  10.965  0.00  0.00    +0.000 HD
BRANCH  21  24
ATOM     24  C   UNL     1      44.751   5.792  11.201  0.00  0.00    +0.000 A 
ATOM     25  C   UNL     1      43.685   5.606  12.073  0.00  0.00    +0.000 A 
ATOM     26  S   UNL     1      42.910   4.096  11.888  0.00  0.00    +0.000 S 
ATOM     27  C   UNL     1      43.935   3.671  10.599  0.00  0.00    +0.000 A 
ATOM     28  N   UNL     1      43.880   2.437  10.028  0.00  0.00    +0.000 NA
ATOM     29  C   UNL     1      44.687   2.276   9.031  0.00  0.00    +0.000 A 
ATOM     30  N   UNL     1      45.507   3.252   8.524  0.00  0.00    +0.000 N 
ATOM     31  C   UNL     1      45.562   4.522   9.044  0.00  0.00    +0.000 A 
ATOM     32  O   UNL     1      46.203   5.412   8.496  0.00  0.00    +0.000 OA
ATOM     33  C   UNL     1      44.771   4.714  10.242  0.00  0.00    +0.000 A 
ATOM     34  H   UNL     1      46.053   3.088   7.692  0.00  0.00    +0.000 HD
ENDBRANCH  21  24
ENDBRANCH  19  20
ENDBRANCH   6  19
TORSDOF 8
ENDMDL
MODEL 7
REMARK VINA RESULT:    -6.844      4.605      9.002
REMARK INTER + INTRA:         -11.346
REMARK INTER:                 -10.082
REMARK INTRA:                  -1.265
REMARK UNBOUND:                -1.302
REMARK  Name = 
REMARK  9 active torsions:
REMARK  status: ('A' for Active; 'I' for Inactive)
REMARK    1  A    between atoms: C_1  and  O_2
REMARK    2  A    between atoms: O_2  and  C_3
REMARK    3  A    between atoms: C_5  and  C_6
REMARK    4  A    between atoms: C_6  and  N_7
REMARK    5  A    between atoms: N_7  and  C_8
REMARK    6  A    between atoms: C_8  and  C_9
REMARK    7  A    between atoms: C_17  and  C_18
REMARK    8  A    between atoms: C_18  and  N_19
REMARK    9  A    between atoms: C_20  and  C_22
REMARK                            x       y       z     vdW  Elec       q    Type
REMARK                         _______ _______ _______ _____ _____    ______ ____
ROOT
ATOM      1  C   UNL     1      50.722   4.675  17.656  0.00  0.00    +0.000 A 
ATOM      2  C   UNL     1      51.553   3.547  17.711  0.00  0.00    +0.000 A 
ATOM      3  C   UNL     1      51.046   2.264  17.460  0.00  0.00    +0.000 A 
ATOM      4  C   UNL     1      49.683   2.120  17.172  0.00  0.00    +0.000 A 
ATOM      5  C   UNL     1      48.850   3.238  17.107  0.00  0.00    +0.000 A 
ATOM      6  C   UNL     1      49.357   4.525  17.355  0.00  0.00    +0.000 A 
ENDROOT
BRANCH   1   8
ATOM      7  C   UNL     1      52.096   6.512  17.016  0.00  0.00    +0.000 C 
ATOM      8  O   UNL     1      51.140   5.954  17.907  0.00  0.00    +0.000 OA
ENDBRANCH   1   8
BRANCH   3   9
ATOM      9  C   UNL     1      51.959   1.057  17.475  0.00  0.00    +0.000 C 
BRANCH   9  10
ATOM     10  N   UNL     1      52.943   1.191  18.548  0.00  0.00    +0.000 NA
ATOM     11  H   UNL     1      52.695   0.546  19.298  0.00  0.00    +0.000 HD
BRANCH  10  12
ATOM     12  C   UNL     1      54.300   0.917  18.091  0.00  0.00    +0.000 C 
BRANCH  12  13
ATOM     13  C   UNL     1      54.489  -0.551  17.865  0.00  0.00    +0.000 A 
ATOM     14  C   UNL     1      54.922  -1.072  16.661  0.00  0.00    +0.000 A 
ATOM     15  N   UNL     1      55.082  -2.392  16.430  0.00  0.00    +0.000 NA
ATOM     16  C   UNL     1      54.799  -3.202  17.460  0.00  0.00    +0.000 A 
ATOM     17  N   UNL     1      54.379  -2.820  18.673  0.00  0.00    +0.000 NA
ATOM     18  C   UNL     1      54.233  -1.488  18.849  0.00  0.00    +0.000 A 
ENDBRANCH  12  13
ENDBRANCH  10  12
ENDBRANCH   9  10
ENDBRANCH   3   9
BRANCH   6  19
ATOM     19  C   UNL     1      48.449   5.723  17.216  0.00  0.00    +0.000 C 
BRANCH  19  20
ATOM     20  N   UNL     1      47.702   5.677  15.979  0.00  0.00    +0.000 N 
ATOM     21  C   UNL     1      48.221   6.185  14.815  0.00  0.00    +0.000 C 
ATOM     22  O   UNL     1      49.331   6.712  14.778  0.00  0.00    +0.000 OA
ATOM     23  H   UNL     1      46.941   5.007  15.933  0.00  0.00    +0.000 HD
BRANCH  21  24
ATOM     24  C   UNL     1      47.350   6.157  13.630  0.00  0.00    +0.000 A 
ATOM     25  C   UNL     1      47.156   7.311  12.882  0.00  0.00    +0.000 A 
ATOM     26  S   UNL     1      45.900   7.175  11.733  0.00  0.00    +0.000 S 
ATOM     27  C   UNL     1      45.618   5.553  12.160  0.00  0.00    +0.000 A 
ATOM     28  N   UNL     1      44.588   4.848  11.619  0.00  0.00    +0.000 NA
ATOM     29  C   UNL     1      44.527   3.615  12.005  0.00  0.00    +0.000 A 
ATOM     30  N   UNL     1      45.431   3.013  12.842  0.00  0.00    +0.000 N 
ATOM     31  C   UNL     1      46.508   3.677  13.375  0.00  0.00    +0.000 A 
ATOM     32  O   UNL     1      47.373   3.087  14.014  0.00  0.00    +0.000 OA
ATOM     33  C   UNL     1      46.548   5.094  13.076  0.00  0.00    +0.000 A 
ATOM     34  H   UNL     1      45.375   2.025  13.038  0.00  0.00    +0.000 HD
ENDBRANCH  21  24
ENDBRANCH  19  20
ENDBRANCH   6  19
TORSDOF 8
ENDMDL
MODEL 8
REMARK VINA RESULT:    -6.822      4.285      9.026
REMARK INTER + INTRA:         -11.314
REMARK INTER:                 -10.165
REMARK INTRA:                  -1.150
REMARK UNBOUND:                -1.302
REMARK  Name = 
REMARK  9 active torsions:
REMARK  status: ('A' for Active; 'I' for Inactive)
REMARK    1  A    between atoms: C_1  and  O_2
REMARK    2  A    between atoms: O_2  and  C_3
REMARK    3  A    between atoms: C_5  and  C_6
REMARK    4  A    between atoms: C_6  and  N_7
REMARK    5  A    between atoms: N_7  and  C_8
REMARK    6  A    between atoms: C_8  and  C_9
REMARK    7  A    between atoms: C_17  and  C_18
REMARK    8  A    between atoms: C_18  and  N_19
REMARK    9  A    between atoms: C_20  and  C_22
REMARK                            x       y       z     vdW  Elec       q    Type
REMARK                         _______ _______ _______ _____ _____    ______ ____
ROOT
ATOM      1  C   UNL     1      49.228   4.662  17.928  0.00  0.00    +0.000 A 
ATOM      2  C   UNL     1      50.609   4.646  18.166  0.00  0.00    +0.000 A 
ATOM      3  C   UNL     1      51.379   3.508  17.885  0.00  0.00    +0.000 A 
ATOM      4  C   UNL     1      50.740   2.370  17.377  0.00  0.00    +0.000 A 
ATOM      5  C   UNL     1      49.367   2.378  17.129  0.00  0.00    +0.000 A 
ATOM      6  C   UNL     1      48.595   3.519  17.407  0.00  0.00    +0.000 A 
ENDROOT
BRANCH   1   8
ATOM      7  C   UNL     1      48.751   6.972  17.601  0.00  0.00    +0.000 C 
ATOM      8  O   UNL     1      48.410   5.727  18.194  0.00  0.00    +0.000 OA
ENDBRANCH   1   8
BRANCH   3   9
ATOM      9  C   UNL     1      52.876   3.515  18.102  0.00  0.00    +0.000 C 
BRANCH   9  10
ATOM     10  N   UNL     1      53.233   2.550  19.140  0.00  0.00    +0.000 NA
ATOM     11  H   UNL     1      52.631   1.734  19.045  0.00  0.00    +0.000 HD
BRANCH  10  12
ATOM     12  C   UNL     1      54.631   2.144  19.061  0.00  0.00    +0.000 C 
BRANCH  12  13
ATOM     13  C   UNL     1      54.796   1.030  18.074  0.00  0.00    +0.000 A 
ATOM     14  C   UNL     1      55.265   1.231  16.791  0.00  0.00    +0.000 A 
ATOM     15  N   UNL     1      55.404   0.245  15.880  0.00  0.00    +0.000 NA
ATOM     16  C   UNL     1      55.061  -0.983  16.294  0.00  0.00    +0.000 A 
ATOM     17  N   UNL     1      54.601  -1.306  17.510  0.00  0.00    +0.000 NA
ATOM     18  C   UNL     1      54.479  -0.281  18.381  0.00  0.00    +0.000 A 
ENDBRANCH  12  13
ENDBRANCH  10  12
ENDBRANCH   9  10
ENDBRANCH   3   9
BRANCH   6  19
ATOM     19  C   UNL     1      47.123   3.524  17.070  0.00  0.00    +0.000 C 
BRANCH  19  20
ATOM     20  N   UNL     1      46.838   4.416  15.968  0.00  0.00    +0.000 N 
ATOM     21  C   UNL     1      47.044   4.029  14.668  0.00  0.00    +0.000 C 
ATOM     22  O   UNL     1      47.491   2.919  14.387  0.00  0.00    +0.000 OA
ATOM     23  H   UNL     1      46.214   5.193  16.163  0.00  0.00    +0.000 HD
BRANCH  21  24
ATOM     24  C   UNL     1      46.794   5.037  13.626  0.00  0.00    +0.000 A 
ATOM     25  C   UNL     1      47.725   6.041  13.391  0.00  0.00    +0.000 A 
ATOM     26  S   UNL     1      47.147   7.279  12.368  0.00  0.00    +0.000 S 
ATOM     27  C   UNL     1      45.658   6.483  12.161  0.00  0.00    +0.000 A 
ATOM     28  N   UNL     1      44.639   7.056  11.465  0.00  0.00    +0.000 NA
ATOM     29  C   UNL     1      43.588   6.313  11.354  0.00  0.00    +0.000 A 
ATOM     30  N   UNL     1      43.482   5.032  11.832  0.00  0.00    +0.000 N 
ATOM     31  C   UNL     1      44.501   4.402  12.502  0.00  0.00    +0.000 A 
ATOM     32  O   UNL     1      44.431   3.215  12.805  0.00  0.00    +0.000 OA
ATOM     33  C   UNL     1      45.654   5.238  12.765  0.00  0.00    +0.000 A 
ATOM     34  H   UNL     1      42.663   4.474  11.639  0.00  0.00    +0.000 HD
ENDBRANCH  21  24
ENDBRANCH  19  20
ENDBRANCH   6  19
TORSDOF 8
ENDMDL
MODEL 9
REMARK VINA RESULT:    -6.665      3.459      5.123
REMARK INTER + INTRA:         -11.085
REMARK INTER:                  -9.911
REMARK INTRA:                  -1.174
REMARK UNBOUND:                -1.302
REMARK  Name = 
REMARK  9 active torsions:
REMARK  status: ('A' for Active; 'I' for Inactive)
REMARK    1  A    between atoms: C_1  and  O_2
REMARK    2  A    between atoms: O_2  and  C_3
REMARK    3  A    between atoms: C_5  and  C_6
REMARK    4  A    between atoms: C_6  and  N_7
REMARK    5  A    between atoms: N_7  and  C_8
REMARK    6  A    between atoms: C_8  and  C_9
REMARK    7  A    between atoms: C_17  and  C_18
REMARK    8  A    between atoms: C_18  and  N_19
REMARK    9  A    between atoms: C_20  and  C_22
REMARK                            x       y       z     vdW  Elec       q    Type
REMARK                         _______ _______ _______ _____ _____    ______ ____
ROOT
ATOM      1  C   UNL     1      46.726   5.198  13.329  0.00  0.00    +0.000 A 
ATOM      2  C   UNL     1      45.897   4.288  12.659  0.00  0.00    +0.000 A 
ATOM      3  C   UNL     1      44.960   4.725  11.712  0.00  0.00    +0.000 A 
ATOM      4  C   UNL     1      44.848   6.099  11.456  0.00  0.00    +0.000 A 
ATOM      5  C   UNL     1      45.675   7.011  12.112  0.00  0.00    +0.000 A 
ATOM      6  C   UNL     1      46.616   6.574  13.060  0.00  0.00    +0.000 A 
ENDROOT
BRANCH   1   8
ATOM      7  C   UNL     1      47.155   4.311  15.497  0.00  0.00    +0.000 C 
ATOM      8  O   UNL     1      47.648   4.849  14.278  0.00  0.00    +0.000 OA
ENDBRANCH   1   8
BRANCH   3   9
ATOM      9  C   UNL     1      44.102   3.733  10.959  0.00  0.00    +0.000 C 
BRANCH   9  10
ATOM     10  N   UNL     1      44.916   2.596  10.530  0.00  0.00    +0.000 NA
ATOM     11  H   UNL     1      44.812   1.847  11.213  0.00  0.00    +0.000 HD
BRANCH  10  12
ATOM     12  C   UNL     1      44.539   2.114   9.207  0.00  0.00    +0.000 C 
BRANCH  12  13
ATOM     13  C   UNL     1      45.709   2.182   8.274  0.00  0.00    +0.000 A 
ATOM     14  C   UNL     1      46.477   1.078   7.957  0.00  0.00    +0.000 A 
ATOM     15  N   UNL     1      47.545   1.120   7.133  0.00  0.00    +0.000 NA
ATOM     16  C   UNL     1      47.834   2.321   6.614  0.00  0.00    +0.000 A 
ATOM     17  N   UNL     1      47.165   3.460   6.839  0.00  0.00    +0.000 NA
ATOM     18  C   UNL     1      46.106   3.361   7.673  0.00  0.00    +0.000 A 
ENDBRANCH  12  13
ENDBRANCH  10  12
ENDBRANCH   9  10
ENDBRANCH   3   9
BRANCH   6  19
ATOM     19  C   UNL     1      47.542   7.576  13.708  0.00  0.00    +0.000 C 
BRANCH  19  20
ATOM     20  N   UNL     1      48.842   7.578  13.076  0.00  0.00    +0.000 N 
ATOM     21  C   UNL     1      49.631   8.700  13.078  0.00  0.00    +0.000 C 
ATOM     22  O   UNL     1      49.262   9.750  13.600  0.00  0.00    +0.000 OA
ATOM     23  H   UNL     1      49.267   6.671  12.909  0.00  0.00    +0.000 HD
BRANCH  21  24
ATOM     24  C   UNL     1      50.903   8.621  12.342  0.00  0.00    +0.000 A 
ATOM     25  C   UNL     1      50.904   8.596  10.953  0.00  0.00    +0.000 A 
ATOM     26  S   UNL     1      52.423   8.206  10.280  0.00  0.00    +0.000 S 
ATOM     27  C   UNL     1      53.139   8.117  11.821  0.00  0.00    +0.000 A 
ATOM     28  N   UNL     1      54.431   7.719  11.979  0.00  0.00    +0.000 NA
ATOM     29  C   UNL     1      54.849   7.745  13.202  0.00  0.00    +0.000 A 
ATOM     30  N   UNL     1      54.108   8.179  14.272  0.00  0.00    +0.000 N 
ATOM     31  C   UNL     1      52.816   8.628  14.149  0.00  0.00    +0.000 A 
ATOM     32  O   UNL     1      52.220   9.131  15.095  0.00  0.00    +0.000 OA
ATOM     33  C   UNL     1      52.259   8.497  12.818  0.00  0.00    +0.000 A 
ATOM     34  H   UNL     1      54.520   8.253  15.190  0.00  0.00    +0.000 HD
ENDBRANCH  21  24
ENDBRANCH  19  20
ENDBRANCH   6  19
TORSDOF 8
ENDMDL
