MODEL 1
REMARK VINA RESULT:    -8.295      0.000      0.000
REMARK INTER + INTRA:         -13.475
REMARK INTER:                 -12.175
REMARK INTRA:                  -1.300
REMARK UNBOUND:                -1.300
REMARK  Name = 
REMARK  9 active torsions:
REMARK  status: ('A' for Active; 'I' for Inactive)
REMARK    1  A    between atoms: C_1  and  O_2
REMARK    2  A    between atoms: O_2  and  C_3
REMARK    3  A    between atoms: C_10  and  C_11
REMARK    4  A    between atoms: N_13  and  C_14
REMARK    5  A    between atoms: C_14  and  C_15
REMARK    6  A    between atoms: C_18  and  C_19
REMARK    7  A    between atoms: C_19  and  O_20
REMARK    8  A    between atoms: O_20  and  C_21
REMARK    9  A    between atoms: C_21  and  C_22
REMARK                            x       y       z     vdW  Elec       q    Type
REMARK                         _______ _______ _______ _____ _____    ______ ____
ROOT
ATOM      1  C   UNL     1      47.974   6.738  13.218  0.00  0.00    +0.000 C 
ENDROOT
BRANCH   1   2
ATOM      2  C   UNL     1      46.788   5.985  12.678  0.00  0.00    +0.000 A 
ATOM      3  C   UNL     1      46.243   6.305  11.427  0.00  0.00    +0.000 A 
ATOM      4  C   UNL     1      45.186   5.555  10.901  0.00  0.00    +0.000 A 
ATOM      5  C   UNL     1      44.648   4.476  11.616  0.00  0.00    +0.000 A 
ATOM      6  C   UNL     1      45.159   4.192  12.889  0.00  0.00    +0.000 A 
ATOM      7  C   UNL     1      46.214   4.941  13.416  0.00  0.00    +0.000 A 
BRANCH   5   8
ATOM      8  C   UNL     1      43.548   3.633  11.020  0.00  0.00    +0.000 C 
BRANCH   8   9
ATOM      9  O   UNL     1      43.867   3.362   9.659  0.00  0.00    +0.000 OA
BRANCH   9  10
ATOM     10  C   UNL     1      44.590   2.140   9.510  0.00  0.00    +0.000 C 
BRANCH  10  11
ATOM     11  C   UNL     1      45.624   2.267   8.418  0.00  0.00    +0.000 A 
ATOM     12  C   UNL     1      46.427   1.178   8.046  0.00  0.00    +0.000 A 
ATOM     13  C   UNL     1      47.356   1.296   7.010  0.00  0.00    +0.000 A 
ATOM     14  C   UNL     1      47.486   2.501   6.325  0.00  0.00    +0.000 A 
ATOM     15  C   UNL     1      46.685   3.587   6.671  0.00  0.00    +0.000 A 
ATOM     16  C   UNL     1      45.755   3.471   7.709  0.00  0.00    +0.000 A 
ENDBRANCH  10  11
ENDBRANCH   9  10
ENDBRANCH   8   9
ENDBRANCH   5   8
ENDBRANCH   1   2
BRANCH   1  19
ATOM     17  C   UNL     1      49.129   6.930  15.364  0.00  0.00    +0.000 C 
ATOM     18  O   UNL     1      50.216   6.976  14.793  0.00  0.00    +0.000 OA
ATOM     19  N   UNL     1      47.964   6.801  14.657  0.00  0.00    +0.000 N 
ATOM     20  H   UNL     1      47.075   6.722  15.133  0.00  0.00    +0.000 HD
BRANCH  17  28
ATOM     21  C   UNL     1      48.920   4.590  17.896  0.00  0.00    +0.000 A 
ATOM     22  N   UNL     1      48.766   3.920  19.058  0.00  0.00    +0.000 NA
ATOM     23  C   UNL     1      48.647   4.626  20.185  0.00  0.00    +0.000 A 
ATOM     24  N   UNL     1      48.668   5.950  20.304  0.00  0.00    +0.000 NA
ATOM     25  C   UNL     1      48.809   6.580  19.126  0.00  0.00    +0.000 A 
ATOM     26  S   UNL     1      48.860   8.277  19.094  0.00  0.00    +0.000 S 
ATOM     27  C   UNL     1      49.018   8.288  17.405  0.00  0.00    +0.000 A 
ATOM     28  C   UNL     1      49.035   7.021  16.831  0.00  0.00    +0.000 A 
ATOM     29  C   UNL     1      48.930   5.997  17.868  0.00  0.00    +0.000 A 
BRANCH  21  31
ATOM     30  C   UNL     1      47.912   3.197  16.295  0.00  0.00    +0.000 C 
ATOM     31  O   UNL     1      49.095   3.858  16.738  0.00  0.00    +0.000 OA
ENDBRANCH  21  31
ENDBRANCH  17  28
ENDBRANCH   1  19
TORSDOF 8
ENDMDL
MODEL 2
REMARK VINA RESULT:    -7.477      1.350      2.492
REMARK INTER + INTRA:         -12.275
REMARK INTER:                 -11.249
REMARK INTRA:                  -1.025
REMARK UNBOUND:                -1.300
REMARK  Name = 
REMARK  9 active torsions:
REMARK  status: ('A' for Active; 'I' for Inactive)
REMARK    1  A    between atoms: C_1  and  O_2
REMARK    2  A    between atoms: O_2  and  C_3
REMARK    3  A    between atoms: C_10  and  C_11
REMARK    4  A    between atoms: N_13  and  C_14
REMARK    5  A    between atoms: C_14  and  C_15
REMARK    6  A    between atoms: C_18  and  C_19
REMARK    7  A    between atoms: C_19  and  O_20
REMARK    8  A    between atoms: O_20  and  C_21
REMARK    9  A    between atoms: C_21  and  C_22
REMARK                            x       y       z     vdW  Elec       q    Type
REMARK                         _______ _______ _______ _____ _____    ______ ____
ROOT
ATOM      1  C   UNL     1      47.761   6.422  13.753  0.00  0.00    +0.000 C 
ENDROOT
BRANCH   1   2
ATOM      2  C   UNL     1      46.609   5.719  13.087  0.00  0.00    +0.000 A 
ATOM      3  C   UNL     1      45.825   6.375  12.129  0.00  0.00    +0.000 A 
ATOM      4  C   UNL     1      44.800   5.694  11.463  0.00  0.00    +0.000 A 
ATOM      5  C   UNL     1      44.534   4.347  11.747  0.00  0.00    +0.000 A 
ATOM      6  C   UNL     1      45.286   3.709  12.743  0.00  0.00    +0.000 A 
ATOM      7  C   UNL     1      46.308   4.389  13.409  0.00  0.00    +0.000 A 
BRANCH   5   8
ATOM      8  C   UNL     1      43.469   3.598  10.985  0.00  0.00    +0.000 C 
BRANCH   8   9
ATOM      9  O   UNL     1      43.915   3.404   9.647  0.00  0.00    +0.000 OA
BRANCH   9  10
ATOM     10  C   UNL     1      44.645   2.187   9.496  0.00  0.00    +0.000 C 
BRANCH  10  11
ATOM     11  C   UNL     1      45.647   2.307   8.373  0.00  0.00    +0.000 A 
ATOM     12  C   UNL     1      45.852   3.525   7.708  0.00  0.00    +0.000 A 
ATOM     13  C   UNL     1      46.808   3.633   6.695  0.00  0.00    +0.000 A 
ATOM     14  C   UNL     1      47.578   2.528   6.343  0.00  0.00    +0.000 A 
ATOM     15  C   UNL     1      47.398   1.316   7.005  0.00  0.00    +0.000 A 
ATOM     16  C   UNL     1      46.442   1.206   8.018  0.00  0.00    +0.000 A 
ENDBRANCH  10  11
ENDBRANCH   9  10
ENDBRANCH   8   9
ENDBRANCH   5   8
ENDBRANCH   1   2
BRANCH   1  19
ATOM     17  C   UNL     1      48.989   6.278  15.863  0.00  0.00    +0.000 C 
ATOM     18  O   UNL     1      50.028   6.612  15.299  0.00  0.00    +0.000 OA
ATOM     19  N   UNL     1      47.817   6.149  15.166  0.00  0.00    +0.000 N 
ATOM     20  H   UNL     1      46.973   5.835  15.626  0.00  0.00    +0.000 HD
BRANCH  17  28
ATOM     21  C   UNL     1      49.163   8.291  18.664  0.00  0.00    +0.000 A 
ATOM     22  N   UNL     1      49.271   8.809  19.905  0.00  0.00    +0.000 NA
ATOM     23  C   UNL     1      49.248   7.973  20.945  0.00  0.00    +0.000 A 
ATOM     24  N   UNL     1      49.122   6.650  20.904  0.00  0.00    +0.000 NA
ATOM     25  C   UNL     1      49.031   6.171  19.652  0.00  0.00    +0.000 A 
ATOM     26  S   UNL     1      48.860   4.498  19.415  0.00  0.00    +0.000 S 
ATOM     27  C   UNL     1      48.838   4.692  17.729  0.00  0.00    +0.000 A 
ATOM     28  C   UNL     1      48.959   6.013  17.311  0.00  0.00    +0.000 A 
ATOM     29  C   UNL     1      49.054   6.901  18.467  0.00  0.00    +0.000 A 
BRANCH  21  31
ATOM     30  C   UNL     1      47.946   9.945  17.523  0.00  0.00    +0.000 C 
ATOM     31  O   UNL     1      49.135   9.160  17.591  0.00  0.00    +0.000 OA
ENDBRANCH  21  31
ENDBRANCH  17  28
ENDBRANCH   1  19
TORSDOF 8
ENDMDL
MODEL 3
REMARK VINA RESULT:    -7.215      2.008      2.932
REMARK INTER + INTRA:         -11.890
REMARK INTER:                 -10.766
REMARK INTRA:                  -1.124
REMARK UNBOUND:                -1.300
REMARK  Name = 
REMARK  9 active torsions:
REMARK  status: ('A' for Active; 'I' for Inactive)
REMARK    1  A    between atoms: C_1  and  O_2
REMARK    2  A    between atoms: O_2  and  C_3
REMARK    3  A    between atoms: C_10  and  C_11
REMARK    4  A    between atoms: N_13  and  C_14
REMARK    5  A    between atoms: C_14  and  C_15
REMARK    6  A    between atoms: C_18  and  C_19
REMARK    7  A    between atoms: C_19  and  O_20
REMARK    8  A    between atoms: O_20  and  C_21
REMARK    9  A    between atoms: C_21  and  C_22
REMARK                            x       y       z     vdW  Elec       q    Type
REMARK                         _______ _______ _______ _____ _____    ______ ____
ROOT
ATOM      1  C   UNL     1      47.531   4.895  14.725  0.00  0.00    +0.000 C 
ENDROOT
BRANCH   1   2
ATOM      2  C   UNL     1      46.524   4.780  13.612  0.00  0.00    +0.000 A 
ATOM      3  C   UNL     1      46.122   3.525  13.135  0.00  0.00    +0.000 A 
ATOM      4  C   UNL     1      45.133   3.424  12.150  0.00  0.00    +0.000 A 
ATOM      5  C   UNL     1      44.533   4.574  11.618  0.00  0.00    +0.000 A 
ATOM      6  C   UNL     1      44.975   5.828  12.059  0.00  0.00    +0.000 A 
ATOM      7  C   UNL     1      45.963   5.930  13.042  0.00  0.00    +0.000 A 
BRANCH   5   8
ATOM      8  C   UNL     1      43.426   4.460  10.600  0.00  0.00    +0.000 C 
BRANCH   8   9
ATOM      9  O   UNL     1      43.867   3.622   9.536  0.00  0.00    +0.000 OA
BRANCH   9  10
ATOM     10  C   UNL     1      44.817   4.278   8.696  0.00  0.00    +0.000 C 
BRANCH  10  11
ATOM     11  C   UNL     1      45.693   3.266   7.998  0.00  0.00    +0.000 A 
ATOM     12  C   UNL     1      45.845   1.964   8.501  0.00  0.00    +0.000 A 
ATOM     13  C   UNL     1      46.629   1.025   7.828  0.00  0.00    +0.000 A 
ATOM     14  C   UNL     1      47.263   1.372   6.637  0.00  0.00    +0.000 A 
ATOM     15  C   UNL     1      47.110   2.654   6.116  0.00  0.00    +0.000 A 
ATOM     16  C   UNL     1      46.326   3.596   6.789  0.00  0.00    +0.000 A 
ENDBRANCH  10  11
ENDBRANCH   9  10
ENDBRANCH   8   9
ENDBRANCH   5   8
ENDBRANCH   1   2
BRANCH   1  19
ATOM     17  C   UNL     1      48.835   6.632  15.848  0.00  0.00    +0.000 C 
ATOM     18  O   UNL     1      49.692   5.809  16.159  0.00  0.00    +0.000 OA
ATOM     19  N   UNL     1      47.722   6.260  15.142  0.00  0.00    +0.000 N 
ATOM     20  H   UNL     1      47.000   6.933  14.922  0.00  0.00    +0.000 HD
BRANCH  17  28
ATOM     21  C   UNL     1      47.866   8.508  18.581  0.00  0.00    +0.000 A 
ATOM     22  N   UNL     1      47.560   9.479  19.467  0.00  0.00    +0.000 NA
ATOM     23  C   UNL     1      47.925  10.732  19.185  0.00  0.00    +0.000 A 
ATOM     24  N   UNL     1      48.578  11.149  18.104  0.00  0.00    +0.000 NA
ATOM     25  C   UNL     1      48.852  10.158  17.241  0.00  0.00    +0.000 A 
ATOM     26  S   UNL     1      49.688  10.514  15.807  0.00  0.00    +0.000 S 
ATOM     27  C   UNL     1      49.624   8.893  15.310  0.00  0.00    +0.000 A 
ATOM     28  C   UNL     1      48.975   8.052  16.210  0.00  0.00    +0.000 A 
ATOM     29  C   UNL     1      48.531   8.810  17.377  0.00  0.00    +0.000 A 
BRANCH  21  31
ATOM     30  C   UNL     1      48.468   6.575  19.773  0.00  0.00    +0.000 C 
ATOM     31  O   UNL     1      47.535   7.205  18.897  0.00  0.00    +0.000 OA
ENDBRANCH  21  31
ENDBRANCH  17  28
ENDBRANCH   1  19
TORSDOF 8
ENDMDL
MODEL 4
REMARK VINA RESULT:    -7.138      1.659      2.251
REMARK INTER + INTRA:         -11.777
REMARK INTER:                 -10.517
REMARK INTRA:                  -1.260
REMARK UNBOUND:                -1.300
REMARK  Name = 
REMARK  9 active torsions:
REMARK  status: ('A' for Active; 'I' for Inactive)
REMARK    1  A    between atoms: C_1  and  O_2
REMARK    2  A    between atoms: O_2  and  C_3
REMARK    3  A    between atoms: C_10  and  C_11
REMARK    4  A    between atoms: N_13  and  C_14
REMARK    5  A    between atoms: C_14  and  C_15
REMARK    6  A    between atoms: C_18  and  C_19
REMARK    7  A    between atoms: C_19  and  O_20
REMARK    8  A    between atoms: O_20  and  C_21
REMARK    9  A    between atoms: C_21  and  C_22
REMARK                            x       y       z     vdW  Elec       q    Type
REMARK                         _______ _______ _______ _____ _____    ______ ____
ROOT
ATOM      1  C   UNL     1      48.137   9.115  13.704  0.00  0.00    +0.000 C 
ENDROOT
BRANCH   1   2
ATOM      2  C   UNL     1      47.172   8.248  12.941  0.00  0.00    +0.000 A 
ATOM      3  C   UNL     1      47.495   6.922  12.622  0.00  0.00    +0.000 A 
ATOM      4  C   UNL     1      46.565   6.101  11.975  0.00  0.00    +0.000 A 
ATOM      5  C   UNL     1      45.298   6.591  11.628  0.00  0.00    +0.000 A 
ATOM      6  C   UNL     1      44.998   7.931  11.901  0.00  0.00    +0.000 A 
ATOM      7  C   UNL     1      45.926   8.753  12.545  0.00  0.00    +0.000 A 
BRANCH   5   8
ATOM      8  C   UNL     1      44.277   5.686  10.984  0.00  0.00    +0.000 C 
BRANCH   8   9
ATOM      9  O   UNL     1      44.900   4.446  10.666  0.00  0.00    +0.000 OA
BRANCH   9  10
ATOM     10  C   UNL     1      44.235   3.771   9.598  0.00  0.00    +0.000 C 
BRANCH  10  11
ATOM     11  C   UNL     1      45.240   3.137   8.666  0.00  0.00    +0.000 A 
ATOM     12  C   UNL     1      45.969   3.909   7.749  0.00  0.00    +0.000 A 
ATOM     13  C   UNL     1      46.921   3.318   6.916  0.00  0.00    +0.000 A 
ATOM     14  C   UNL     1      47.166   1.949   6.998  0.00  0.00    +0.000 A 
ATOM     15  C   UNL     1      46.462   1.172   7.915  0.00  0.00    +0.000 A 
ATOM     16  C   UNL     1      45.507   1.762   8.748  0.00  0.00    +0.000 A 
ENDBRANCH  10  11
ENDBRANCH   9  10
ENDBRANCH   8   9
ENDBRANCH   5   8
ENDBRANCH   1   2
BRANCH   1  19
ATOM     17  C   UNL     1      48.665   8.544  16.022  0.00  0.00    +0.000 C 
ATOM     18  O   UNL     1      47.842   9.361  16.427  0.00  0.00    +0.000 OA
ATOM     19  N   UNL     1      48.882   8.364  14.682  0.00  0.00    +0.000 N 
ATOM     20  H   UNL     1      49.589   7.720  14.353  0.00  0.00    +0.000 HD
BRANCH  17  28
ATOM     21  C   UNL     1      48.947   5.140  16.536  0.00  0.00    +0.000 A 
ATOM     22  N   UNL     1      49.200   3.896  16.996  0.00  0.00    +0.000 NA
ATOM     23  C   UNL     1      50.025   3.762  18.037  0.00  0.00    +0.000 A 
ATOM     24  N   UNL     1      50.649   4.735  18.692  0.00  0.00    +0.000 NA
ATOM     25  C   UNL     1      50.362   5.958  18.214  0.00  0.00    +0.000 A 
ATOM     26  S   UNL     1      51.078   7.319  18.933  0.00  0.00    +0.000 S 
ATOM     27  C   UNL     1      50.266   8.365  17.873  0.00  0.00    +0.000 A 
ATOM     28  C   UNL     1      49.442   7.716  16.959  0.00  0.00    +0.000 A 
ATOM     29  C   UNL     1      49.516   6.269  17.153  0.00  0.00    +0.000 A 
BRANCH  21  31
ATOM     30  C   UNL     1      47.138   4.261  15.321  0.00  0.00    +0.000 C 
ATOM     31  O   UNL     1      48.135   5.275  15.427  0.00  0.00    +0.000 OA
ENDBRANCH  21  31
ENDBRANCH  17  28
ENDBRANCH   1  19
TORSDOF 8
ENDMDL
MODEL 5
REMARK VINA RESULT:    -6.945      2.361      3.032
REMARK INTER + INTRA:         -11.493
REMARK INTER:                 -10.834
REMARK INTRA:                  -0.660
REMARK UNBOUND:                -1.300
REMARK  Name = 
REMARK  9 active torsions:
REMARK  status: ('A' for Active; 'I' for Inactive)
REMARK    1  A    between atoms: C_1  and  O_2
REMARK    2  A    between atoms: O_2  and  C_3
REMARK    3  A    between atoms: C_10  and  C_11
REMARK    4  A    between atoms: N_13  and  C_14
REMARK    5  A    between atoms: C_14  and  C_15
REMARK    6  A    between atoms: C_18  and  C_19
REMARK    7  A    between atoms: C_19  and  O_20
REMARK    8  A    between atoms: O_20  and  C_21
REMARK    9  A    between atoms: C_21  and  C_22
REMARK                            x       y       z     vdW  Elec       q    Type
REMARK                         _______ _______ _______ _____ _____    ______ ____
ROOT
ATOM      1  C   UNL     1      48.767   7.515  15.540  0.00  0.00    +0.000 C 
ENDROOT
BRANCH   1   2
ATOM      2  C   UNL     1      47.953   7.055  14.360  0.00  0.00    +0.000 A 
ATOM      3  C   UNL     1      47.534   7.964  13.380  0.00  0.00    +0.000 A 
ATOM      4  C   UNL     1      46.838   7.519  12.250  0.00  0.00    +0.000 A 
ATOM      5  C   UNL     1      46.540   6.159  12.083  0.00  0.00    +0.000 A 
ATOM      6  C   UNL     1      46.915   5.261  13.091  0.00  0.00    +0.000 A 
ATOM      7  C   UNL     1      47.608   5.705  14.220  0.00  0.00    +0.000 A 
BRANCH   5   8
ATOM      8  C   UNL     1      45.843   5.674  10.837  0.00  0.00    +0.000 C 
BRANCH   8   9
ATOM      9  O   UNL     1      44.654   4.986  11.216  0.00  0.00    +0.000 OA
BRANCH   9  10
ATOM     10  C   UNL     1      43.953   4.466  10.087  0.00  0.00    +0.000 C 
BRANCH  10  11
ATOM     11  C   UNL     1      44.891   3.692   9.193  0.00  0.00    +0.000 A 
ATOM     12  C   UNL     1      45.052   2.305   9.333  0.00  0.00    +0.000 A 
ATOM     13  C   UNL     1      45.895   1.594   8.477  0.00  0.00    +0.000 A 
ATOM     14  C   UNL     1      46.579   2.258   7.462  0.00  0.00    +0.000 A 
ATOM     15  C   UNL     1      46.418   3.632   7.299  0.00  0.00    +0.000 A 
ATOM     16  C   UNL     1      45.575   4.346   8.156  0.00  0.00    +0.000 A 
ENDBRANCH  10  11
ENDBRANCH   9  10
ENDBRANCH   8   9
ENDBRANCH   5   8
ENDBRANCH   1   2
BRANCH   1  19
ATOM     17  C   UNL     1      50.078   6.351  17.244  0.00  0.00    +0.000 C 
ATOM     18  O   UNL     1      49.549   7.018  18.129  0.00  0.00    +0.000 OA
ATOM     19  N   UNL     1      49.755   6.540  15.927  0.00  0.00    +0.000 N 
ATOM     20  H   UNL     1      50.223   6.018  15.198  0.00  0.00    +0.000 HD
BRANCH  17  28
ATOM     21  C   UNL     1      50.103   2.906  16.998  0.00  0.00    +0.000 A 
ATOM     22  N   UNL     1      50.366   1.584  17.074  0.00  0.00    +0.000 NA
ATOM     23  C   UNL     1      51.541   1.201  17.577  0.00  0.00    +0.000 A 
ATOM     24  N   UNL     1      52.516   1.989  18.019  0.00  0.00    +0.000 NA
ATOM     25  C   UNL     1      52.212   3.295  17.939  0.00  0.00    +0.000 A 
ATOM     26  S   UNL     1      53.348   4.445  18.458  0.00  0.00    +0.000 S 
ATOM     27  C   UNL     1      52.297   5.723  18.085  0.00  0.00    +0.000 A 
ATOM     28  C   UNL     1      51.073   5.313  17.563  0.00  0.00    +0.000 A 
ATOM     29  C   UNL     1      51.033   3.857  17.458  0.00  0.00    +0.000 A 
BRANCH  21  31
ATOM     30  C   UNL     1      47.768   3.021  17.239  0.00  0.00    +0.000 C 
ATOM     31  O   UNL     1      48.908   3.303  16.430  0.00  0.00    +0.000 OA
ENDBRANCH  21  31
ENDBRANCH  17  28
ENDBRANCH   1  19
TORSDOF 8
ENDMDL
MODEL 6
REMARK VINA RESULT:    -6.820      2.166      3.998
REMARK INTER + INTRA:         -11.310
REMARK INTER:                 -10.204
REMARK INTRA:                  -1.106
REMARK UNBOUND:                -1.300
REMARK  Name = 
REMARK  9 active torsions:
REMARK  status: ('A' for Active; 'I' for Inactive)
REMARK    1  A    between atoms: C_1  and  O_2
REMARK    2  A    between atoms: O_2  and  C_3
REMARK    3  A    between atoms: C_10  and  C_11
REMARK    4  A    between atoms: N_13  and  C_14
REMARK    5  A    between atoms: C_14  and  C_15
REMARK    6  A    between atoms: C_18  and  C_19
REMARK    7  A    between atoms: C_19  and  O_20
REMARK    8  A    between atoms: O_20  and  C_21
REMARK    9  A    between atoms: C_21  and  C_22
REMARK                            x       y       z     vdW  Elec       q    Type
REMARK                         _______ _______ _______ _____ _____    ______ ____
ROOT
ATOM      1  C   UNL     1      47.569   4.973  15.094  0.00  0.00    +0.000 C 
ENDROOT
BRANCH   1   2
ATOM      2  C   UNL     1      46.588   4.816  13.964  0.00  0.00    +0.000 A 
ATOM      3  C   UNL     1      46.371   3.565  13.370  0.00  0.00    +0.000 A 
ATOM      4  C   UNL     1      45.406   3.414  12.368  0.00  0.00    +0.000 A 
ATOM      5  C   UNL     1      44.646   4.509  11.934  0.00  0.00    +0.000 A 
ATOM      6  C   UNL     1      44.903   5.768  12.493  0.00  0.00    +0.000 A 
ATOM      7  C   UNL     1      45.867   5.921  13.492  0.00  0.00    +0.000 A 
BRANCH   5   8
ATOM      8  C   UNL     1      43.566   4.331  10.897  0.00  0.00    +0.000 C 
BRANCH   8   9
ATOM      9  O   UNL     1      44.010   3.382   9.932  0.00  0.00    +0.000 OA
BRANCH   9  10
ATOM     10  C   UNL     1      44.516   4.011   8.755  0.00  0.00    +0.000 C 
BRANCH  10  11
ATOM     11  C   UNL     1      45.529   3.123   8.074  0.00  0.00    +0.000 A 
ATOM     12  C   UNL     1      46.336   3.605   7.032  0.00  0.00    +0.000 A 
ATOM     13  C   UNL     1      47.295   2.786   6.433  0.00  0.00    +0.000 A 
ATOM     14  C   UNL     1      47.468   1.477   6.877  0.00  0.00    +0.000 A 
ATOM     15  C   UNL     1      46.686   0.988   7.921  0.00  0.00    +0.000 A 
ATOM     16  C   UNL     1      45.725   1.807   8.521  0.00  0.00    +0.000 A 
ENDBRANCH  10  11
ENDBRANCH   9  10
ENDBRANCH   8   9
ENDBRANCH   5   8
ENDBRANCH   1   2
BRANCH   1  19
ATOM     17  C   UNL     1      48.675   6.853  16.199  0.00  0.00    +0.000 C 
ATOM     18  O   UNL     1      48.480   6.341  17.299  0.00  0.00    +0.000 OA
ATOM     19  N   UNL     1      48.246   6.243  15.050  0.00  0.00    +0.000 N 
ATOM     20  H   UNL     1      48.373   6.687  14.150  0.00  0.00    +0.000 HD
BRANCH  17  28
ATOM     21  C   UNL     1      49.391   8.932  13.535  0.00  0.00    +0.000 A 
ATOM     22  N   UNL     1      49.861   9.879  12.696  0.00  0.00    +0.000 NA
ATOM     23  C   UNL     1      50.591  10.873  13.208  0.00  0.00    +0.000 A 
ATOM     24  N   UNL     1      50.916  11.049  14.485  0.00  0.00    +0.000 NA
ATOM     25  C   UNL     1      50.442  10.080  15.286  0.00  0.00    +0.000 A 
ATOM     26  S   UNL     1      50.761  10.151  16.952  0.00  0.00    +0.000 S 
ATOM     27  C   UNL     1      49.923   8.701  17.223  0.00  0.00    +0.000 A 
ATOM     28  C   UNL     1      49.388   8.135  16.070  0.00  0.00    +0.000 A 
ATOM     29  C   UNL     1      49.684   8.975  14.912  0.00  0.00    +0.000 A 
BRANCH  21  31
ATOM     30  C   UNL     1      48.744   7.757  11.606  0.00  0.00    +0.000 C 
ATOM     31  O   UNL     1      48.593   7.933  13.014  0.00  0.00    +0.000 OA
ENDBRANCH  21  31
ENDBRANCH  17  28
ENDBRANCH   1  19
TORSDOF 8
ENDMDL
MODEL 7
REMARK VINA RESULT:    -6.691      3.889      8.343
REMARK INTER + INTRA:         -11.120
REMARK INTER:                  -9.225
REMARK INTRA:                  -1.895
REMARK UNBOUND:                -1.300
REMARK  Name = 
REMARK  9 active torsions:
REMARK  status: ('A' for Active; 'I' for Inactive)
REMARK    1  A    between atoms: C_1  and  O_2
REMARK    2  A    between atoms: O_2  and  C_3
REMARK    3  A    between atoms: C_10  and  C_11
REMARK    4  A    between atoms: N_13  and  C_14
REMARK    5  A    between atoms: C_14  and  C_15
REMARK    6  A    between atoms: C_18  and  C_19
REMARK    7  A    between atoms: C_19  and  O_20
REMARK    8  A    between atoms: O_20  and  C_21
REMARK    9  A    between atoms: C_21  and  C_22
REMARK                            x       y       z     vdW  Elec       q    Type
REMARK                         _______ _______ _______ _____ _____    ______ ____
ROOT
ATOM      1  C   UNL     1      48.392   7.919  11.977  0.00  0.00    +0.000 C 
ENDROOT
BRANCH   1   2
ATOM      2  C   UNL     1      48.505   7.843  13.476  0.00  0.00    +0.000 A 
ATOM      3  C   UNL     1      49.060   6.717  14.099  0.00  0.00    +0.000 A 
ATOM      4  C   UNL     1      49.226   6.684  15.488  0.00  0.00    +0.000 A 
ATOM      5  C   UNL     1      48.833   7.770  16.282  0.00  0.00    +0.000 A 
ATOM      6  C   UNL     1      48.230   8.872  15.662  0.00  0.00    +0.000 A 
ATOM      7  C   UNL     1      48.062   8.906  14.275  0.00  0.00    +0.000 A 
BRANCH   5   8
ATOM      8  C   UNL     1      49.068   7.756  17.771  0.00  0.00    +0.000 C 
BRANCH   8   9
ATOM      9  O   UNL     1      47.948   7.145  18.405  0.00  0.00    +0.000 OA
BRANCH   9  10
ATOM     10  C   UNL     1      48.335   6.063  19.251  0.00  0.00    +0.000 C 
BRANCH  10  11
ATOM     11  C   UNL     1      48.518   4.800  18.444  0.00  0.00    +0.000 A 
ATOM     12  C   UNL     1      47.445   4.218  17.751  0.00  0.00    +0.000 A 
ATOM     13  C   UNL     1      47.633   3.070  16.978  0.00  0.00    +0.000 A 
ATOM     14  C   UNL     1      48.898   2.496  16.879  0.00  0.00    +0.000 A 
ATOM     15  C   UNL     1      49.976   3.071  17.547  0.00  0.00    +0.000 A 
ATOM     16  C   UNL     1      49.790   4.219  18.322  0.00  0.00    +0.000 A 
ENDBRANCH  10  11
ENDBRANCH   9  10
ENDBRANCH   8   9
ENDBRANCH   5   8
ENDBRANCH   1   2
BRANCH   1  19
ATOM     17  C   UNL     1      46.301   6.845  11.303  0.00  0.00    +0.000 C 
ATOM     18  O   UNL     1      45.661   7.830  11.662  0.00  0.00    +0.000 OA
ATOM     19  N   UNL     1      47.664   6.802  11.433  0.00  0.00    +0.000 N 
ATOM     20  H   UNL     1      48.183   5.974  11.173  0.00  0.00    +0.000 HD
BRANCH  17  28
ATOM     21  C   UNL     1      44.432   4.244  12.595  0.00  0.00    +0.000 A 
ATOM     22  N   UNL     1      43.742   3.107  12.820  0.00  0.00    +0.000 NA
ATOM     23  C   UNL     1      43.455   2.323  11.778  0.00  0.00    +0.000 A 
ATOM     24  N   UNL     1      43.774   2.539  10.506  0.00  0.00    +0.000 NA
ATOM     25  C   UNL     1      44.471   3.673  10.324  0.00  0.00    +0.000 A 
ATOM     26  S   UNL     1      44.957   4.106   8.756  0.00  0.00    +0.000 S 
ATOM     27  C   UNL     1      45.724   5.506   9.329  0.00  0.00    +0.000 A 
ATOM     28  C   UNL     1      45.632   5.677  10.706  0.00  0.00    +0.000 A 
ATOM     29  C   UNL     1      44.862   4.586  11.299  0.00  0.00    +0.000 A 
BRANCH  21  31
ATOM     30  C   UNL     1      45.964   4.880  14.260  0.00  0.00    +0.000 C 
ATOM     31  O   UNL     1      44.683   5.080  13.666  0.00  0.00    +0.000 OA
ENDBRANCH  21  31
ENDBRANCH  17  28
ENDBRANCH   1  19
TORSDOF 8
ENDMDL
MODEL 8
REMARK VINA RESULT:    -6.093      2.776      3.788
REMARK INTER + INTRA:         -10.243
REMARK INTER:                  -9.222
REMARK INTRA:                  -1.021
REMARK UNBOUND:                -1.300
REMARK  Name = 
REMARK  9 active torsions:
REMARK  status: ('A' for Active; 'I' for Inactive)
REMARK    1  A    between atoms: C_1  and  O_2
REMARK    2  A    between atoms: O_2  and  C_3
REMARK    3  A    between atoms: C_10  and  C_11
REMARK    4  A    between atoms: N_13  and  C_14
REMARK    5  A    between atoms: C_14  and  C_15
REMARK    6  A    between atoms: C_18  and  C_19
REMARK    7  A    between atoms: C_19  and  O_20
REMARK    8  A    between atoms: O_20  and  C_21
REMARK    9  A    between atoms: C_21  and  C_22
REMARK                            x       y       z     vdW  Elec       q    Type
REMARK                         _______ _______ _______ _____ _____    ______ ____
ROOT
ATOM      1  C   UNL     1      47.614   5.581  14.908  0.00  0.00    +0.000 C 
ENDROOT
BRANCH   1   2
ATOM      2  C   UNL     1      46.756   5.343  13.695  0.00  0.00    +0.000 A 
ATOM      3  C   UNL     1      46.184   4.087  13.455  0.00  0.00    +0.000 A 
ATOM      4  C   UNL     1      45.330   3.892  12.364  0.00  0.00    +0.000 A 
ATOM      5  C   UNL     1      45.038   4.946  11.487  0.00  0.00    +0.000 A 
ATOM      6  C   UNL     1      45.653   6.187  11.699  0.00  0.00    +0.000 A 
ATOM      7  C   UNL     1      46.507   6.382  12.787  0.00  0.00    +0.000 A 
BRANCH   5   8
ATOM      8  C   UNL     1      44.071   4.750  10.346  0.00  0.00    +0.000 C 
BRANCH   8   9
ATOM      9  O   UNL     1      44.382   3.525   9.689  0.00  0.00    +0.000 OA
BRANCH   9  10
ATOM     10  C   UNL     1      44.504   3.691   8.276  0.00  0.00    +0.000 C 
BRANCH  10  11
ATOM     11  C   UNL     1      45.670   2.890   7.748  0.00  0.00    +0.000 A 
ATOM     12  C   UNL     1      46.613   3.464   6.881  0.00  0.00    +0.000 A 
ATOM     13  C   UNL     1      47.707   2.725   6.427  0.00  0.00    +0.000 A 
ATOM     14  C   UNL     1      47.880   1.407   6.844  0.00  0.00    +0.000 A 
ATOM     15  C   UNL     1      46.962   0.829   7.717  0.00  0.00    +0.000 A 
ATOM     16  C   UNL     1      45.865   1.567   8.171  0.00  0.00    +0.000 A 
ENDBRANCH  10  11
ENDBRANCH   9  10
ENDBRANCH   8   9
ENDBRANCH   5   8
ENDBRANCH   1   2
BRANCH   1  19
ATOM     17  C   UNL     1      48.978   7.609  14.834  0.00  0.00    +0.000 C 
ATOM     18  O   UNL     1      48.065   8.261  15.334  0.00  0.00    +0.000 OA
ATOM     19  N   UNL     1      48.835   6.271  14.579  0.00  0.00    +0.000 N 
ATOM     20  H   UNL     1      49.575   5.747  14.131  0.00  0.00    +0.000 HD
BRANCH  17  28
ATOM     21  C   UNL     1      52.237   7.054  15.837  0.00  0.00    +0.000 A 
ATOM     22  N   UNL     1      53.561   7.107  16.091  0.00  0.00    +0.000 NA
ATOM     23  C   UNL     1      54.286   8.044  15.476  0.00  0.00    +0.000 A 
ATOM     24  N   UNL     1      53.847   8.956  14.614  0.00  0.00    +0.000 NA
ATOM     25  C   UNL     1      52.524   8.879  14.397  0.00  0.00    +0.000 A 
ATOM     26  S   UNL     1      51.795   9.968  13.317  0.00  0.00    +0.000 S 
ATOM     27  C   UNL     1      50.264   9.291  13.594  0.00  0.00    +0.000 A 
ATOM     28  C   UNL     1      50.268   8.236  14.501  0.00  0.00    +0.000 A 
ATOM     29  C   UNL     1      51.628   7.978  14.966  0.00  0.00    +0.000 A 
BRANCH  21  31
ATOM     30  C   UNL     1      52.241   5.264  17.360  0.00  0.00    +0.000 C 
ATOM     31  O   UNL     1      51.496   6.052  16.433  0.00  0.00    +0.000 OA
ENDBRANCH  21  31
ENDBRANCH  17  28
ENDBRANCH   1  19
TORSDOF 8
ENDMDL
MODEL 9
REMARK VINA RESULT:    -5.888      5.100      7.160
REMARK INTER + INTRA:          -9.941
REMARK INTER:                  -8.832
REMARK INTRA:                  -1.109
REMARK UNBOUND:                -1.300
REMARK  Name = 
REMARK  9 active torsions:
REMARK  status: ('A' for Active; 'I' for Inactive)
REMARK    1  A    between atoms: C_1  and  O_2
REMARK    2  A    between atoms: O_2  and  C_3
REMARK    3  A    between atoms: C_10  and  C_11
REMARK    4  A    between atoms: N_13  and  C_14
REMARK    5  A    between atoms: C_14  and  C_15
REMARK    6  A    between atoms: C_18  and  C_19
REMARK    7  A    between atoms: C_19  and  O_20
REMARK    8  A    between atoms: O_20  and  C_21
REMARK    9  A    between atoms: C_21  and  C_22
REMARK                            x       y       z     vdW  Elec       q    Type
REMARK                         _______ _______ _______ _____ _____    ______ ____
ROOT
ATOM      1  C   UNL     1      49.580   8.518  12.953  0.00  0.00    +0.000 C 
ENDROOT
BRANCH   1   2
ATOM      2  C   UNL     1      48.348   7.699  12.675  0.00  0.00    +0.000 A 
ATOM      3  C   UNL     1      48.289   6.347  13.035  0.00  0.00    +0.000 A 
ATOM      4  C   UNL     1      47.115   5.611  12.838  0.00  0.00    +0.000 A 
ATOM      5  C   UNL     1      45.982   6.210  12.269  0.00  0.00    +0.000 A 
ATOM      6  C   UNL     1      46.063   7.547  11.861  0.00  0.00    +0.000 A 
ATOM      7  C   UNL     1      47.235   8.282  12.056  0.00  0.00    +0.000 A 
BRANCH   5   8
ATOM      8  C   UNL     1      44.700   5.431  12.112  0.00  0.00    +0.000 C 
BRANCH   8   9
ATOM      9  O   UNL     1      45.015   4.117  11.660  0.00  0.00    +0.000 OA
BRANCH   9  10
ATOM     10  C   UNL     1      44.203   3.722  10.554  0.00  0.00    +0.000 C 
BRANCH  10  11
ATOM     11  C   UNL     1      45.064   3.379   9.362  0.00  0.00    +0.000 A 
ATOM     12  C   UNL     1      45.639   4.382   8.567  0.00  0.00    +0.000 A 
ATOM     13  C   UNL     1      46.462   4.054   7.488  0.00  0.00    +0.000 A 
ATOM     14  C   UNL     1      46.732   2.719   7.197  0.00  0.00    +0.000 A 
ATOM     15  C   UNL     1      46.182   1.712   7.987  0.00  0.00    +0.000 A 
ATOM     16  C   UNL     1      45.356   2.039   9.067  0.00  0.00    +0.000 A 
ENDBRANCH  10  11
ENDBRANCH   9  10
ENDBRANCH   8   9
ENDBRANCH   5   8
ENDBRANCH   1   2
BRANCH   1  19
ATOM     17  C   UNL     1      51.490   8.833  11.458  0.00  0.00    +0.000 C 
ATOM     18  O   UNL     1      52.216   8.213  12.229  0.00  0.00    +0.000 OA
ATOM     19  N   UNL     1      50.166   9.040  11.745  0.00  0.00    +0.000 N 
ATOM     20  H   UNL     1      49.581   9.586  11.127  0.00  0.00    +0.000 HD
BRANCH  17  28
ATOM     21  C   UNL     1      53.175   7.440   8.784  0.00  0.00    +0.000 A 
ATOM     22  N   UNL     1      53.880   7.190   7.660  0.00  0.00    +0.000 NA
ATOM     23  C   UNL     1      54.128   8.205   6.830  0.00  0.00    +0.000 A 
ATOM     24  N   UNL     1      53.749   9.471   6.980  0.00  0.00    +0.000 NA
ATOM     25  C   UNL     1      53.063   9.682   8.115  0.00  0.00    +0.000 A 
ATOM     26  S   UNL     1      52.498  11.245   8.463  0.00  0.00    +0.000 S 
ATOM     27  C   UNL     1      51.822  10.725   9.930  0.00  0.00    +0.000 A 
ATOM     28  C   UNL     1      52.007   9.370  10.188  0.00  0.00    +0.000 A 
ATOM     29  C   UNL     1      52.735   8.743   9.088  0.00  0.00    +0.000 A 
BRANCH  21  31
ATOM     30  C   UNL     1      54.020   5.785  10.223  0.00  0.00    +0.000 C 
ATOM     31  O   UNL     1      52.874   6.381   9.617  0.00  0.00    +0.000 OA
ENDBRANCH  21  31
ENDBRANCH  17  28
ENDBRANCH   1  19
TORSDOF 8
ENDMDL
