MODEL 1
REMARK VINA RESULT:    -8.058      0.000      0.000
REMARK INTER + INTRA:         -11.326
REMARK INTER:                 -10.413
REMARK INTRA:                  -0.913
REMARK UNBOUND:                -0.913
REMARK  Name = 
REMARK  5 active torsions:
REMARK  status: ('A' for Active; 'I' for Inactive)
REMARK    1  A    between atoms: C_2  and  C_5
REMARK    2  A    between atoms: C_9  and  N_10
REMARK    3  A    between atoms: C_14  and  C_15
REMARK    4  A    between atoms: C_15  and  O_16
REMARK    5  A    between atoms: O_16  and  C_17
REMARK                            x       y       z     vdW  Elec       q    Type
REMARK                         _______ _______ _______ _____ _____    ______ ____
ROOT
ATOM      1  N   UNL     1      44.469   5.620  11.938  0.00  0.00    +0.000 N 
ATOM      2  C   UNL     1      44.753   4.567  12.907  0.00  0.00    +0.000 C 
ATOM      3  C   UNL     1      45.227   3.307  12.180  0.00  0.00    +0.000 C 
ATOM      4  C   UNL     1      44.279   2.902  11.052  0.00  0.00    +0.000 C 
ATOM      5  C   UNL     1      43.973   4.071  10.097  0.00  0.00    +0.000 C 
ATOM      6  C   UNL     1      43.493   5.288  10.895  0.00  0.00    +0.000 C 
ENDROOT
BRANCH   1  11
ATOM      7  C   UNL     1      44.591   9.186  11.444  0.00  0.00    +0.000 A 
ATOM      8  C   UNL     1      45.685   9.591  12.199  0.00  0.00    +0.000 A 
ATOM      9  C   UNL     1      46.371   8.634  12.927  0.00  0.00    +0.000 A 
ATOM     10  C   UNL     1      45.958   7.304  12.869  0.00  0.00    +0.000 A 
ATOM     11  C   UNL     1      44.875   6.929  12.078  0.00  0.00    +0.000 A 
ATOM     12  N   UNL     1      44.204   7.876  11.383  0.00  0.00    +0.000 NA
BRANCH   7  14
ATOM     13  F   UNL     1      42.661   9.708  10.091  0.00  0.00    +0.000 F 
ATOM     14  C   UNL     1      43.800  10.217  10.654  0.00  0.00    +0.000 C 
ATOM     15  F   UNL     1      44.501  10.756   9.615  0.00  0.00    +0.000 F 
ATOM     16  F   UNL     1      43.384  11.272  11.415  0.00  0.00    +0.000 F 
ENDBRANCH   7  14
ENDBRANCH   1  11
BRANCH   5  17
ATOM     17  C   UNL     1      45.167   4.448   9.203  0.00  0.00    +0.000 C 
BRANCH  17  18
ATOM     18  O   UNL     1      44.973   3.835   7.924  0.00  0.00    +0.000 OA
BRANCH  18  19
ATOM     19  C   UNL     1      45.907   2.929   7.510  0.00  0.00    +0.000 A 
ATOM     20  C   UNL     1      46.163   1.689   8.084  0.00  0.00    +0.000 A 
ATOM     21  C   UNL     1      47.162   0.905   7.523  0.00  0.00    +0.000 A 
ATOM     22  N   UNL     1      47.899   1.270   6.452  0.00  0.00    +0.000 NA
ATOM     23  C   UNL     1      47.629   2.479   5.918  0.00  0.00    +0.000 A 
ATOM     24  C   UNL     1      46.655   3.332   6.407  0.00  0.00    +0.000 A 
ENDBRANCH  18  19
ENDBRANCH  17  18
ENDBRANCH   5  17
TORSDOF 5
ENDMDL
MODEL 2
REMARK VINA RESULT:    -7.926      4.153      4.858
REMARK INTER + INTRA:         -11.155
REMARK INTER:                 -10.154
REMARK INTRA:                  -1.001
REMARK UNBOUND:                -0.913
REMARK  Name = 
REMARK  5 active torsions:
REMARK  status: ('A' for Active; 'I' for Inactive)
REMARK    1  A    between atoms: C_2  and  C_5
REMARK    2  A    between atoms: C_9  and  N_10
REMARK    3  A    between atoms: C_14  and  C_15
REMARK    4  A    between atoms: C_15  and  O_16
REMARK    5  A    between atoms: O_16  and  C_17
REMARK                            x       y       z     vdW  Elec       q    Type
REMARK                         _______ _______ _______ _____ _____    ______ ____
ROOT
ATOM      1  N   UNL     1      44.992   4.874  12.636  0.00  0.00    +0.000 N 
ATOM      2  C   UNL     1      44.130   3.721  12.879  0.00  0.00    +0.000 C 
ATOM      3  C   UNL     1      43.844   3.002  11.559  0.00  0.00    +0.000 C 
ATOM      4  C   UNL     1      43.345   3.959  10.478  0.00  0.00    +0.000 C 
ATOM      5  C   UNL     1      44.264   5.184  10.311  0.00  0.00    +0.000 C 
ATOM      6  C   UNL     1      44.494   5.857  11.668  0.00  0.00    +0.000 C 
ENDROOT
BRANCH   1  11
ATOM      7  C   UNL     1      47.455   4.655  15.255  0.00  0.00    +0.000 A 
ATOM      8  C   UNL     1      48.219   5.805  15.093  0.00  0.00    +0.000 A 
ATOM      9  C   UNL     1      47.915   6.653  14.041  0.00  0.00    +0.000 A 
ATOM     10  C   UNL     1      46.853   6.340  13.195  0.00  0.00    +0.000 A 
ATOM     11  C   UNL     1      46.090   5.194  13.405  0.00  0.00    +0.000 A 
ATOM     12  N   UNL     1      46.406   4.366  14.428  0.00  0.00    +0.000 NA
BRANCH   7  14
ATOM     13  F   UNL     1      48.772   4.143  17.212  0.00  0.00    +0.000 F 
ATOM     14  C   UNL     1      47.780   3.690  16.385  0.00  0.00    +0.000 C 
ATOM     15  F   UNL     1      48.209   2.471  15.947  0.00  0.00    +0.000 F 
ATOM     16  F   UNL     1      46.716   3.443  17.202  0.00  0.00    +0.000 F 
ENDBRANCH   7  14
ENDBRANCH   1  11
BRANCH   5  17
ATOM     17  C   UNL     1      45.608   4.841   9.643  0.00  0.00    +0.000 C 
BRANCH  17  18
ATOM     18  O   UNL     1      45.342   4.438   8.296  0.00  0.00    +0.000 OA
BRANCH  18  19
ATOM     19  C   UNL     1      45.961   3.308   7.842  0.00  0.00    +0.000 A 
ATOM     20  C   UNL     1      45.899   2.046   8.421  0.00  0.00    +0.000 A 
ATOM     21  C   UNL     1      46.604   1.015   7.814  0.00  0.00    +0.000 A 
ATOM     22  N   UNL     1      47.346   1.162   6.696  0.00  0.00    +0.000 NA
ATOM     23  C   UNL     1      47.388   2.398   6.158  0.00  0.00    +0.000 A 
ATOM     24  C   UNL     1      46.721   3.487   6.690  0.00  0.00    +0.000 A 
ENDBRANCH  18  19
ENDBRANCH  17  18
ENDBRANCH   5  17
TORSDOF 5
ENDMDL
MODEL 3
REMARK VINA RESULT:    -7.860      3.503      4.157
REMARK INTER + INTRA:         -11.070
REMARK INTER:                 -10.121
REMARK INTRA:                  -0.949
REMARK UNBOUND:                -0.913
REMARK  Name = 
REMARK  5 active torsions:
REMARK  status: ('A' for Active; 'I' for Inactive)
REMARK    1  A    between atoms: C_2  and  C_5
REMARK    2  A    between atoms: C_9  and  N_10
REMARK    3  A    between atoms: C_14  and  C_15
REMARK    4  A    between atoms: C_15  and  O_16
REMARK    5  A    between atoms: O_16  and  C_17
REMARK                            x       y       z     vdW  Elec       q    Type
REMARK                         _______ _______ _______ _____ _____    ______ ____
ROOT
ATOM      1  N   UNL     1      45.592   5.429  12.292  0.00  0.00    +0.000 N 
ATOM      2  C   UNL     1      45.151   4.260  13.047  0.00  0.00    +0.000 C 
ATOM      3  C   UNL     1      44.717   3.155  12.083  0.00  0.00    +0.000 C 
ATOM      4  C   UNL     1      43.720   3.658  11.040  0.00  0.00    +0.000 C 
ATOM      5  C   UNL     1      44.216   4.926  10.321  0.00  0.00    +0.000 C 
ATOM      6  C   UNL     1      44.620   5.989  11.348  0.00  0.00    +0.000 C 
ENDROOT
BRANCH   1  11
ATOM      7  C   UNL     1      48.349   6.778  14.178  0.00  0.00    +0.000 A 
ATOM      8  C   UNL     1      48.977   7.637  13.283  0.00  0.00    +0.000 A 
ATOM      9  C   UNL     1      48.476   7.726  11.996  0.00  0.00    +0.000 A 
ATOM     10  C   UNL     1      47.358   6.972  11.643  0.00  0.00    +0.000 A 
ATOM     11  C   UNL     1      46.736   6.144  12.574  0.00  0.00    +0.000 A 
ATOM     12  N   UNL     1      47.244   6.054  13.825  0.00  0.00    +0.000 NA
BRANCH   7  14
ATOM     13  F   UNL     1      48.520   7.664  16.416  0.00  0.00    +0.000 F 
ATOM     14  C   UNL     1      48.891   6.637  15.591  0.00  0.00    +0.000 C 
ATOM     15  F   UNL     1      50.254   6.609  15.647  0.00  0.00    +0.000 F 
ATOM     16  F   UNL     1      48.466   5.501  16.218  0.00  0.00    +0.000 F 
ENDBRANCH   7  14
ENDBRANCH   1  11
BRANCH   5  17
ATOM     17  C   UNL     1      45.373   4.651   9.344  0.00  0.00    +0.000 C 
BRANCH  17  18
ATOM     18  O   UNL     1      44.925   3.687   8.387  0.00  0.00    +0.000 OA
BRANCH  18  19
ATOM     19  C   UNL     1      45.876   2.940   7.752  0.00  0.00    +0.000 A 
ATOM     20  C   UNL     1      46.674   3.352   6.690  0.00  0.00    +0.000 A 
ATOM     21  C   UNL     1      47.586   2.443   6.170  0.00  0.00    +0.000 A 
ATOM     22  N   UNL     1      47.747   1.185   6.631  0.00  0.00    +0.000 NA
ATOM     23  C   UNL     1      46.958   0.813   7.660  0.00  0.00    +0.000 A 
ATOM     24  C   UNL     1      46.020   1.646   8.244  0.00  0.00    +0.000 A 
ENDBRANCH  18  19
ENDBRANCH  17  18
ENDBRANCH   5  17
TORSDOF 5
ENDMDL
MODEL 4
REMARK VINA RESULT:    -7.855      2.575      3.187
REMARK INTER + INTRA:         -11.063
REMARK INTER:                 -10.115
REMARK INTRA:                  -0.948
REMARK UNBOUND:                -0.913
REMARK  Name = 
REMARK  5 active torsions:
REMARK  status: ('A' for Active; 'I' for Inactive)
REMARK    1  A    between atoms: C_2  and  C_5
REMARK    2  A    between atoms: C_9  and  N_10
REMARK    3  A    between atoms: C_14  and  C_15
REMARK    4  A    between atoms: C_15  and  O_16
REMARK    5  A    between atoms: O_16  and  C_17
REMARK                            x       y       z     vdW  Elec       q    Type
REMARK                         _______ _______ _______ _____ _____    ______ ____
ROOT
ATOM      1  N   UNL     1      44.900   5.631  12.009  0.00  0.00    +0.000 N 
ATOM      2  C   UNL     1      45.068   4.507  12.924  0.00  0.00    +0.000 C 
ATOM      3  C   UNL     1      45.211   3.208  12.129  0.00  0.00    +0.000 C 
ATOM      4  C   UNL     1      44.094   3.036  11.100  0.00  0.00    +0.000 C 
ATOM      5  C   UNL     1      43.928   4.278  10.204  0.00  0.00    +0.000 C 
ATOM      6  C   UNL     1      43.778   5.533  11.070  0.00  0.00    +0.000 C 
ENDROOT
BRANCH   1  11
ATOM      7  C   UNL     1      47.636   7.959  12.273  0.00  0.00    +0.000 A 
ATOM      8  C   UNL     1      47.014   9.184  12.480  0.00  0.00    +0.000 A 
ATOM      9  C   UNL     1      45.630   9.226  12.485  0.00  0.00    +0.000 A 
ATOM     10  C   UNL     1      44.909   8.047  12.303  0.00  0.00    +0.000 A 
ATOM     11  C   UNL     1      45.567   6.831  12.129  0.00  0.00    +0.000 A 
ATOM     12  N   UNL     1      46.919   6.806  12.110  0.00  0.00    +0.000 NA
BRANCH   7  14
ATOM     13  F   UNL     1      49.675   7.004  13.144  0.00  0.00    +0.000 F 
ATOM     14  C   UNL     1      49.155   7.884  12.234  0.00  0.00    +0.000 C 
ATOM     15  F   UNL     1      49.761   9.076  12.504  0.00  0.00    +0.000 F 
ATOM     16  F   UNL     1      49.641   7.480  11.025  0.00  0.00    +0.000 F 
ENDBRANCH   7  14
ENDBRANCH   1  11
BRANCH   5  17
ATOM     17  C   UNL     1      45.077   4.451   9.195  0.00  0.00    +0.000 C 
BRANCH  17  18
ATOM     18  O   UNL     1      44.781   3.651   8.046  0.00  0.00    +0.000 OA
BRANCH  18  19
ATOM     19  C   UNL     1      45.810   2.950   7.484  0.00  0.00    +0.000 A 
ATOM     20  C   UNL     1      46.552   3.326   6.370  0.00  0.00    +0.000 A 
ATOM     21  C   UNL     1      47.561   2.474   5.941  0.00  0.00    +0.000 A 
ATOM     22  N   UNL     1      47.867   1.303   6.539  0.00  0.00    +0.000 NA
ATOM     23  C   UNL     1      47.129   0.964   7.616  0.00  0.00    +0.000 A 
ATOM     24  C   UNL     1      46.103   1.745   8.117  0.00  0.00    +0.000 A 
ENDBRANCH  18  19
ENDBRANCH  17  18
ENDBRANCH   5  17
TORSDOF 5
ENDMDL
MODEL 5
REMARK VINA RESULT:    -7.485      1.785      2.364
REMARK INTER + INTRA:         -10.585
REMARK INTER:                  -9.703
REMARK INTRA:                  -0.882
REMARK UNBOUND:                -0.913
REMARK  Name = 
REMARK  5 active torsions:
REMARK  status: ('A' for Active; 'I' for Inactive)
REMARK    1  A    between atoms: C_2  and  C_5
REMARK    2  A    between atoms: C_9  and  N_10
REMARK    3  A    between atoms: C_14  and  C_15
REMARK    4  A    between atoms: C_15  and  O_16
REMARK    5  A    between atoms: O_16  and  C_17
REMARK                            x       y       z     vdW  Elec       q    Type
REMARK                         _______ _______ _______ _____ _____    ______ ____
ROOT
ATOM      1  N   UNL     1      45.412   5.591  12.170  0.00  0.00    +0.000 N 
ATOM      2  C   UNL     1      44.974   4.489  13.020  0.00  0.00    +0.000 C 
ATOM      3  C   UNL     1      44.663   3.263  12.160  0.00  0.00    +0.000 C 
ATOM      4  C   UNL     1      43.721   3.594  11.004  0.00  0.00    +0.000 C 
ATOM      5  C   UNL     1      44.206   4.802  10.181  0.00  0.00    +0.000 C 
ATOM      6  C   UNL     1      44.484   5.990  11.107  0.00  0.00    +0.000 C 
ENDROOT
BRANCH   1  11
ATOM      7  C   UNL     1      47.471   8.543  12.322  0.00  0.00    +0.000 A 
ATOM      8  C   UNL     1      48.674   8.085  12.847  0.00  0.00    +0.000 A 
ATOM      9  C   UNL     1      48.771   6.749  13.198  0.00  0.00    +0.000 A 
ATOM     10  C   UNL     1      47.677   5.908  13.000  0.00  0.00    +0.000 A 
ATOM     11  C   UNL     1      46.497   6.395  12.444  0.00  0.00    +0.000 A 
ATOM     12  N   UNL     1      46.409   7.706  12.119  0.00  0.00    +0.000 NA
BRANCH   7  14
ATOM     13  F   UNL     1      46.053  10.345  11.568  0.00  0.00    +0.000 F 
ATOM     14  C   UNL     1      47.324  10.010  11.951  0.00  0.00    +0.000 C 
ATOM     15  F   UNL     1      48.121  10.388  10.911  0.00  0.00    +0.000 F 
ATOM     16  F   UNL     1      47.623  10.855  12.980  0.00  0.00    +0.000 F 
ENDBRANCH   7  14
ENDBRANCH   1  11
BRANCH   5  17
ATOM     17  C   UNL     1      45.442   4.486   9.320  0.00  0.00    +0.000 C 
BRANCH  17  18
ATOM     18  O   UNL     1      45.005   3.761   8.167  0.00  0.00    +0.000 OA
BRANCH  18  19
ATOM     19  C   UNL     1      45.934   3.011   7.504  0.00  0.00    +0.000 A 
ATOM     20  C   UNL     1      46.607   3.370   6.342  0.00  0.00    +0.000 A 
ATOM     21  C   UNL     1      47.517   2.467   5.810  0.00  0.00    +0.000 A 
ATOM     22  N   UNL     1      47.790   1.261   6.351  0.00  0.00    +0.000 NA
ATOM     23  C   UNL     1      47.121   0.939   7.477  0.00  0.00    +0.000 A 
ATOM     24  C   UNL     1      46.195   1.771   8.081  0.00  0.00    +0.000 A 
ENDBRANCH  18  19
ENDBRANCH  17  18
ENDBRANCH   5  17
TORSDOF 5
ENDMDL
MODEL 6
REMARK VINA RESULT:    -6.989      4.763      7.502
REMARK INTER + INTRA:          -9.944
REMARK INTER:                  -8.909
REMARK INTRA:                  -1.035
REMARK UNBOUND:                -0.913
REMARK  Name = 
REMARK  5 active torsions:
REMARK  status: ('A' for Active; 'I' for Inactive)
REMARK    1  A    between atoms: C_2  and  C_5
REMARK    2  A    between atoms: C_9  and  N_10
REMARK    3  A    between atoms: C_14  and  C_15
REMARK    4  A    between atoms: C_15  and  O_16
REMARK    5  A    between atoms: O_16  and  C_17
REMARK                            x       y       z     vdW  Elec       q    Type
REMARK                         _______ _______ _______ _____ _____    ______ ____
ROOT
ATOM      1  N   UNL     1      44.393   3.867  10.194  0.00  0.00    +0.000 N 
ATOM      2  C   UNL     1      43.581   5.065  10.385  0.00  0.00    +0.000 C 
ATOM      3  C   UNL     1      43.722   5.561  11.826  0.00  0.00    +0.000 C 
ATOM      4  C   UNL     1      43.476   4.449  12.844  0.00  0.00    +0.000 C 
ATOM      5  C   UNL     1      44.318   3.192  12.554  0.00  0.00    +0.000 C 
ATOM      6  C   UNL     1      44.115   2.750  11.101  0.00  0.00    +0.000 C 
ENDROOT
BRANCH   1  11
ATOM      7  C   UNL     1      46.397   2.108   7.772  0.00  0.00    +0.000 A 
ATOM      8  C   UNL     1      46.951   3.120   6.997  0.00  0.00    +0.000 A 
ATOM      9  C   UNL     1      46.599   4.430   7.278  0.00  0.00    +0.000 A 
ATOM     10  C   UNL     1      45.723   4.692   8.329  0.00  0.00    +0.000 A 
ATOM     11  C   UNL     1      45.211   3.655   9.105  0.00  0.00    +0.000 A 
ATOM     12  N   UNL     1      45.550   2.378   8.811  0.00  0.00    +0.000 NA
BRANCH   7  14
ATOM     13  F   UNL     1      45.889  -0.234   8.063  0.00  0.00    +0.000 F 
ATOM     14  C   UNL     1      46.743   0.657   7.472  0.00  0.00    +0.000 C 
ATOM     15  F   UNL     1      47.987   0.298   7.901  0.00  0.00    +0.000 F 
ATOM     16  F   UNL     1      46.704   0.362   6.140  0.00  0.00    +0.000 F 
ENDBRANCH   7  14
ENDBRANCH   1  11
BRANCH   5  17
ATOM     17  C   UNL     1      45.814   3.386  12.857  0.00  0.00    +0.000 C 
BRANCH  17  18
ATOM     18  O   UNL     1      45.931   3.966  14.160  0.00  0.00    +0.000 OA
BRANCH  18  19
ATOM     19  C   UNL     1      46.922   4.884  14.355  0.00  0.00    +0.000 A 
ATOM     20  C   UNL     1      47.372   5.821  13.431  0.00  0.00    +0.000 A 
ATOM     21  C   UNL     1      48.399   6.673  13.814  0.00  0.00    +0.000 A 
ATOM     22  N   UNL     1      48.989   6.649  15.028  0.00  0.00    +0.000 NA
ATOM     23  C   UNL     1      48.532   5.729  15.903  0.00  0.00    +0.000 A 
ATOM     24  C   UNL     1      47.515   4.837  15.614  0.00  0.00    +0.000 A 
ENDBRANCH  18  19
ENDBRANCH  17  18
ENDBRANCH   5  17
TORSDOF 5
ENDMDL
MODEL 7
REMARK VINA RESULT:    -6.599      5.165      7.179
REMARK INTER + INTRA:          -9.440
REMARK INTER:                  -8.352
REMARK INTRA:                  -1.088
REMARK UNBOUND:                -0.913
REMARK  Name = 
REMARK  5 active torsions:
REMARK  status: ('A' for Active; 'I' for Inactive)
REMARK    1  A    between atoms: C_2  and  C_5
REMARK    2  A    between atoms: C_9  and  N_10
REMARK    3  A    between atoms: C_14  and  C_15
REMARK    4  A    between atoms: C_15  and  O_16
REMARK    5  A    between atoms: O_16  and  C_17
REMARK                            x       y       z     vdW  Elec       q    Type
REMARK                         _______ _______ _______ _____ _____    ______ ____
ROOT
ATOM      1  N   UNL     1      48.734   7.425  14.278  0.00  0.00    +0.000 N 
ATOM      2  C   UNL     1      49.181   8.803  14.104  0.00  0.00    +0.000 C 
ATOM      3  C   UNL     1      48.205   9.553  13.195  0.00  0.00    +0.000 C 
ATOM      4  C   UNL     1      47.932   8.799  11.895  0.00  0.00    +0.000 C 
ATOM      5  C   UNL     1      47.522   7.335  12.144  0.00  0.00    +0.000 C 
ATOM      6  C   UNL     1      48.551   6.648  13.048  0.00  0.00    +0.000 C 
ENDROOT
BRANCH   1  11
ATOM      7  C   UNL     1      48.287   4.764  16.664  0.00  0.00    +0.000 A 
ATOM      8  C   UNL     1      48.491   5.380  17.894  0.00  0.00    +0.000 A 
ATOM      9  C   UNL     1      48.831   6.722  17.908  0.00  0.00    +0.000 A 
ATOM     10  C   UNL     1      48.941   7.413  16.703  0.00  0.00    +0.000 A 
ATOM     11  C   UNL     1      48.701   6.771  15.490  0.00  0.00    +0.000 A 
ATOM     12  N   UNL     1      48.384   5.455  15.489  0.00  0.00    +0.000 NA
BRANCH   7  14
ATOM     13  F   UNL     1      47.680   2.835  15.348  0.00  0.00    +0.000 F 
ATOM     14  C   UNL     1      47.938   3.285  16.614  0.00  0.00    +0.000 C 
ATOM     15  F   UNL     1      46.827   2.966  17.339  0.00  0.00    +0.000 F 
ATOM     16  F   UNL     1      48.937   2.482  17.084  0.00  0.00    +0.000 F 
ENDBRANCH   7  14
ENDBRANCH   1  11
BRANCH   5  17
ATOM     17  C   UNL     1      46.107   7.196  12.732  0.00  0.00    +0.000 C 
BRANCH  17  18
ATOM     18  O   UNL     1      45.960   5.861  13.224  0.00  0.00    +0.000 OA
BRANCH  18  19
ATOM     19  C   UNL     1      45.039   5.060  12.612  0.00  0.00    +0.000 A 
ATOM     20  C   UNL     1      45.216   3.730  12.248  0.00  0.00    +0.000 A 
ATOM     21  C   UNL     1      44.159   3.079  11.626  0.00  0.00    +0.000 A 
ATOM     22  N   UNL     1      42.970   3.657  11.353  0.00  0.00    +0.000 NA
ATOM     23  C   UNL     1      42.829   4.948  11.716  0.00  0.00    +0.000 A 
ATOM     24  C   UNL     1      43.824   5.681  12.338  0.00  0.00    +0.000 A 
ENDBRANCH  18  19
ENDBRANCH  17  18
ENDBRANCH   5  17
TORSDOF 5
ENDMDL
MODEL 8
REMARK VINA RESULT:    -6.371      4.105      7.086
REMARK INTER + INTRA:          -9.145
REMARK INTER:                  -8.195
REMARK INTRA:                  -0.950
REMARK UNBOUND:                -0.913
REMARK  Name = 
REMARK  5 active torsions:
REMARK  status: ('A' for Active; 'I' for Inactive)
REMARK    1  A    between atoms: C_2  and  C_5
REMARK    2  A    between atoms: C_9  and  N_10
REMARK    3  A    between atoms: C_14  and  C_15
REMARK    4  A    between atoms: C_15  and  O_16
REMARK    5  A    between atoms: O_16  and  C_17
REMARK                            x       y       z     vdW  Elec       q    Type
REMARK                         _______ _______ _______ _____ _____    ______ ____
ROOT
ATOM      1  N   UNL     1      44.798   5.634  11.686  0.00  0.00    +0.000 N 
ATOM      2  C   UNL     1      44.083   6.871  11.383  0.00  0.00    +0.000 C 
ATOM      3  C   UNL     1      45.027   8.065  11.538  0.00  0.00    +0.000 C 
ATOM      4  C   UNL     1      45.753   8.056  12.883  0.00  0.00    +0.000 C 
ATOM      5  C   UNL     1      46.436   6.706  13.169  0.00  0.00    +0.000 C 
ATOM      6  C   UNL     1      45.429   5.563  13.007  0.00  0.00    +0.000 C 
ENDROOT
BRANCH   1  11
ATOM      7  C   UNL     1      45.370   3.355   8.956  0.00  0.00    +0.000 A 
ATOM      8  C   UNL     1      44.545   2.274   9.244  0.00  0.00    +0.000 A 
ATOM      9  C   UNL     1      43.810   2.303  10.417  0.00  0.00    +0.000 A 
ATOM     10  C   UNL     1      43.905   3.411  11.257  0.00  0.00    +0.000 A 
ATOM     11  C   UNL     1      44.720   4.490  10.922  0.00  0.00    +0.000 A 
ATOM     12  N   UNL     1      45.444   4.443   9.780  0.00  0.00    +0.000 NA
BRANCH   7  14
ATOM     13  F   UNL     1      45.463   3.243   6.547  0.00  0.00    +0.000 F 
ATOM     14  C   UNL     1      46.211   3.341   7.689  0.00  0.00    +0.000 C 
ATOM     15  F   UNL     1      47.086   2.296   7.633  0.00  0.00    +0.000 F 
ATOM     16  F   UNL     1      46.962   4.470   7.532  0.00  0.00    +0.000 F 
ENDBRANCH   7  14
ENDBRANCH   1  11
BRANCH   5  17
ATOM     17  C   UNL     1      47.677   6.461  12.293  0.00  0.00    +0.000 C 
BRANCH  17  18
ATOM     18  O   UNL     1      48.833   6.527  13.134  0.00  0.00    +0.000 OA
BRANCH  18  19
ATOM     19  C   UNL     1      49.626   7.634  13.032  0.00  0.00    +0.000 A 
ATOM     20  C   UNL     1      50.379   8.205  14.051  0.00  0.00    +0.000 A 
ATOM     21  C   UNL     1      51.123   9.340  13.754  0.00  0.00    +0.000 A 
ATOM     22  N   UNL     1      51.162   9.922  12.537  0.00  0.00    +0.000 NA
ATOM     23  C   UNL     1      50.420   9.346  11.569  0.00  0.00    +0.000 A 
ATOM     24  C   UNL     1      49.646   8.217  11.768  0.00  0.00    +0.000 A 
ENDBRANCH  18  19
ENDBRANCH  17  18
ENDBRANCH   5  17
TORSDOF 5
ENDMDL
MODEL 9
REMARK VINA RESULT:    -5.189      5.373      7.380
REMARK INTER + INTRA:          -7.618
REMARK INTER:                  -6.722
REMARK INTRA:                  -0.897
REMARK UNBOUND:                -0.913
REMARK  Name = 
REMARK  5 active torsions:
REMARK  status: ('A' for Active; 'I' for Inactive)
REMARK    1  A    between atoms: C_2  and  C_5
REMARK    2  A    between atoms: C_9  and  N_10
REMARK    3  A    between atoms: C_14  and  C_15
REMARK    4  A    between atoms: C_15  and  O_16
REMARK    5  A    between atoms: O_16  and  C_17
REMARK                            x       y       z     vdW  Elec       q    Type
REMARK                         _______ _______ _______ _____ _____    ______ ____
ROOT
ATOM      1  N   UNL     1      48.759   8.315  14.682  0.00  0.00    +0.000 N 
ATOM      2  C   UNL     1      48.806   9.437  13.749  0.00  0.00    +0.000 C 
ATOM      3  C   UNL     1      47.972   9.114  12.508  0.00  0.00    +0.000 C 
ATOM      4  C   UNL     1      48.339   7.760  11.903  0.00  0.00    +0.000 C 
ATOM      5  C   UNL     1      48.329   6.630  12.949  0.00  0.00    +0.000 C 
ATOM      6  C   UNL     1      49.194   7.019  14.152  0.00  0.00    +0.000 C 
ENDROOT
BRANCH   1  11
ATOM      7  C   UNL     1      48.405   7.391  18.145  0.00  0.00    +0.000 A 
ATOM      8  C   UNL     1      48.056   8.581  18.775  0.00  0.00    +0.000 A 
ATOM      9  C   UNL     1      47.982   9.732  18.009  0.00  0.00    +0.000 A 
ATOM     10  C   UNL     1      48.241   9.662  16.642  0.00  0.00    +0.000 A 
ATOM     11  C   UNL     1      48.558   8.447  16.039  0.00  0.00    +0.000 A 
ATOM     12  N   UNL     1      48.642   7.332  16.800  0.00  0.00    +0.000 NA
BRANCH   7  14
ATOM     13  F   UNL     1      48.874   5.025  18.214  0.00  0.00    +0.000 F 
ATOM     14  C   UNL     1      48.521   6.115  18.963  0.00  0.00    +0.000 C 
ATOM     15  F   UNL     1      47.358   5.761  19.581  0.00  0.00    +0.000 F 
ATOM     16  F   UNL     1      49.462   6.193  19.949  0.00  0.00    +0.000 F 
ENDBRANCH   7  14
ENDBRANCH   1  11
BRANCH   5  17
ATOM     17  C   UNL     1      46.911   6.244  13.404  0.00  0.00    +0.000 C 
BRANCH  17  18
ATOM     18  O   UNL     1      46.649   4.910  12.957  0.00  0.00    +0.000 OA
BRANCH  18  19
ATOM     19  C   UNL     1      45.384   4.624  12.530  0.00  0.00    +0.000 A 
ATOM     20  C   UNL     1      44.971   3.456  11.899  0.00  0.00    +0.000 A 
ATOM     21  C   UNL     1      43.636   3.350  11.533  0.00  0.00    +0.000 A 
ATOM     22  N   UNL     1      42.713   4.310  11.753  0.00  0.00    +0.000 NA
ATOM     23  C   UNL     1      43.143   5.432  12.366  0.00  0.00    +0.000 A 
ATOM     24  C   UNL     1      44.452   5.631  12.766  0.00  0.00    +0.000 A 
ENDBRANCH  18  19
ENDBRANCH  17  18
ENDBRANCH   5  17
TORSDOF 5
ENDMDL
