MODEL 1
REMARK VINA RESULT:    -7.942      0.000      0.000
REMARK INTER + INTRA:         -11.649
REMARK INTER:                 -10.727
REMARK INTRA:                  -0.921
REMARK UNBOUND:                -0.921
REMARK  Name = 
REMARK  7 active torsions:
REMARK  status: ('A' for Active; 'I' for Inactive)
REMARK    1  A    between atoms: C_1  and  C_2
REMARK    2  A    between atoms: C_2  and  C_3
REMARK    3  A    between atoms: C_2  and  C_14
REMARK    4  A    between atoms: C_3  and  N_4
REMARK    5  A    between atoms: C_8  and  C_9
REMARK    6  A    between atoms: C_18  and  O_19
REMARK    7  A    between atoms: O_19  and  C_20
REMARK                            x       y       z     vdW  Elec       q    Type
REMARK                         _______ _______ _______ _____ _____    ______ ____
ROOT
ATOM      1  C   UNL     1      43.767   4.419  10.591  0.00  0.00    +0.000 C 
ENDROOT
BRANCH   1   2
ATOM      2  N   UNL     1      44.111   3.013  10.388  0.00  0.00    +0.000 N 
ATOM      3  C   UNL     1      44.991   2.861   9.288  0.00  0.00    +0.000 A 
ATOM      4  C   UNL     1      45.440   1.593   8.902  0.00  0.00    +0.000 A 
ATOM      5  N   UNL     1      46.282   1.363   7.854  0.00  0.00    +0.000 NA
ATOM      6  C   UNL     1      46.685   2.488   7.199  0.00  0.00    +0.000 A 
ATOM      7  C   UNL     1      46.268   3.748   7.576  0.00  0.00    +0.000 A 
ATOM      8  N   UNL     1      45.423   3.953   8.616  0.00  0.00    +0.000 NA
ATOM      9  H   UNL     1      43.293   2.434  10.228  0.00  0.00    +0.000 HD
BRANCH   6  10
ATOM     10  C   UNL     1      47.601   2.346   6.032  0.00  0.00    +0.000 C 
ATOM     11  N   UNL     1      47.487   3.304   5.065  0.00  0.00    +0.000 N 
ATOM     12  O   UNL     1      48.409   1.429   5.944  0.00  0.00    +0.000 OA
ATOM     13  H   UNL     1      46.805   4.046   5.159  0.00  0.00    +0.000 HD
ATOM     14  H   UNL     1      48.080   3.251   4.250  0.00  0.00    +0.000 HD
ENDBRANCH   6  10
ENDBRANCH   1   2
BRANCH   1  16
ATOM     15  C   UNL     1      42.577   5.435  12.664  0.00  0.00    +0.000 C 
ATOM     16  C   UNL     1      43.795   4.813  12.045  0.00  0.00    +0.000 C 
BRANCH  16  17
ATOM     17  C   UNL     1      45.117   5.140  12.642  0.00  0.00    +0.000 A 
ATOM     18  C   UNL     1      45.727   6.378  12.417  0.00  0.00    +0.000 A 
ATOM     19  C   UNL     1      46.972   6.674  12.985  0.00  0.00    +0.000 A 
ATOM     20  C   UNL     1      47.619   5.747  13.803  0.00  0.00    +0.000 A 
ATOM     21  C   UNL     1      47.010   4.528  14.075  0.00  0.00    +0.000 A 
ATOM     22  C   UNL     1      45.790   4.219  13.462  0.00  0.00    +0.000 A 
BRANCH  21  23
ATOM     23  O   UNL     1      47.527   3.538  14.854  0.00  0.00    +0.000 OA
BRANCH  23  24
ATOM     24  C   UNL     1      47.641   3.760  16.253  0.00  0.00    +0.000 C 
ATOM     25  F   UNL     1      48.733   4.462  16.620  0.00  0.00    +0.000 F 
ATOM     26  F   UNL     1      46.550   4.443  16.671  0.00  0.00    +0.000 F 
ATOM     27  F   UNL     1      47.657   2.568  16.889  0.00  0.00    +0.000 F 
ENDBRANCH  23  24
ENDBRANCH  21  23
ENDBRANCH  16  17
ENDBRANCH   1  16
TORSDOF 6
ENDMDL
MODEL 2
REMARK VINA RESULT:    -7.360      4.987      8.126
REMARK INTER + INTRA:         -10.863
REMARK INTER:                 -10.451
REMARK INTRA:                  -0.411
REMARK UNBOUND:                -0.921
REMARK  Name = 
REMARK  7 active torsions:
REMARK  status: ('A' for Active; 'I' for Inactive)
REMARK    1  A    between atoms: C_1  and  C_2
REMARK    2  A    between atoms: C_2  and  C_3
REMARK    3  A    between atoms: C_2  and  C_14
REMARK    4  A    between atoms: C_3  and  N_4
REMARK    5  A    between atoms: C_8  and  C_9
REMARK    6  A    between atoms: C_18  and  O_19
REMARK    7  A    between atoms: O_19  and  C_20
REMARK                            x       y       z     vdW  Elec       q    Type
REMARK                         _______ _______ _______ _____ _____    ______ ____
ROOT
ATOM      1  C   UNL     1      45.501   5.482  13.125  0.00  0.00    +0.000 C 
ENDROOT
BRANCH   1   2
ATOM      2  N   UNL     1      46.671   6.196  13.631  0.00  0.00    +0.000 N 
ATOM      3  C   UNL     1      47.278   5.482  14.695  0.00  0.00    +0.000 A 
ATOM      4  C   UNL     1      48.410   5.991  15.342  0.00  0.00    +0.000 A 
ATOM      5  N   UNL     1      49.047   5.369  16.376  0.00  0.00    +0.000 NA
ATOM      6  C   UNL     1      48.502   4.172  16.733  0.00  0.00    +0.000 A 
ATOM      7  C   UNL     1      47.399   3.646  16.095  0.00  0.00    +0.000 A 
ATOM      8  N   UNL     1      46.775   4.285  15.075  0.00  0.00    +0.000 NA
ATOM      9  H   UNL     1      46.444   7.129  13.958  0.00  0.00    +0.000 HD
BRANCH   6  10
ATOM     10  C   UNL     1      49.120   3.414  17.858  0.00  0.00    +0.000 C 
ATOM     11  N   UNL     1      48.302   3.153  18.921  0.00  0.00    +0.000 N 
ATOM     12  O   UNL     1      50.288   3.045  17.834  0.00  0.00    +0.000 OA
ATOM     13  H   UNL     1      47.343   3.477  18.918  0.00  0.00    +0.000 HD
ATOM     14  H   UNL     1      48.672   2.647  19.712  0.00  0.00    +0.000 HD
ENDBRANCH   6  10
ENDBRANCH   1   2
BRANCH   1  16
ATOM     15  C   UNL     1      44.477   7.136  11.404  0.00  0.00    +0.000 C 
ATOM     16  C   UNL     1      45.181   5.843  11.697  0.00  0.00    +0.000 C 
BRANCH  16  17
ATOM     17  C   UNL     1      45.009   4.729  10.729  0.00  0.00    +0.000 A 
ATOM     18  C   UNL     1      44.366   3.542  11.096  0.00  0.00    +0.000 A 
ATOM     19  C   UNL     1      44.210   2.500  10.176  0.00  0.00    +0.000 A 
ATOM     20  C   UNL     1      44.677   2.631   8.866  0.00  0.00    +0.000 A 
ATOM     21  C   UNL     1      45.280   3.818   8.468  0.00  0.00    +0.000 A 
ATOM     22  C   UNL     1      45.479   4.836   9.409  0.00  0.00    +0.000 A 
BRANCH  21  23
ATOM     23  O   UNL     1      45.777   4.081   7.228  0.00  0.00    +0.000 OA
BRANCH  23  24
ATOM     24  C   UNL     1      46.702   3.165   6.656  0.00  0.00    +0.000 C 
ATOM     25  F   UNL     1      46.365   1.867   6.800  0.00  0.00    +0.000 F 
ATOM     26  F   UNL     1      46.802   3.424   5.332  0.00  0.00    +0.000 F 
ATOM     27  F   UNL     1      47.917   3.362   7.214  0.00  0.00    +0.000 F 
ENDBRANCH  23  24
ENDBRANCH  21  23
ENDBRANCH  16  17
ENDBRANCH   1  16
TORSDOF 6
ENDMDL
MODEL 3
REMARK VINA RESULT:    -7.232      4.540      7.599
REMARK INTER + INTRA:         -10.690
REMARK INTER:                  -9.869
REMARK INTRA:                  -0.821
REMARK UNBOUND:                -0.921
REMARK  Name = 
REMARK  7 active torsions:
REMARK  status: ('A' for Active; 'I' for Inactive)
REMARK    1  A    between atoms: C_1  and  C_2
REMARK    2  A    between atoms: C_2  and  C_3
REMARK    3  A    between atoms: C_2  and  C_14
REMARK    4  A    between atoms: C_3  and  N_4
REMARK    5  A    between atoms: C_8  and  C_9
REMARK    6  A    between atoms: C_18  and  O_19
REMARK    7  A    between atoms: O_19  and  C_20
REMARK                            x       y       z     vdW  Elec       q    Type
REMARK                         _______ _______ _______ _____ _____    ______ ____
ROOT
ATOM      1  C   UNL     1      47.619   6.692  12.346  0.00  0.00    +0.000 C 
ENDROOT
BRANCH   1   2
ATOM      2  N   UNL     1      48.253   7.121  13.592  0.00  0.00    +0.000 N 
ATOM      3  C   UNL     1      48.096   6.142  14.603  0.00  0.00    +0.000 A 
ATOM      4  C   UNL     1      48.613   6.352  15.887  0.00  0.00    +0.000 A 
ATOM      5  N   UNL     1      48.499   5.462  16.915  0.00  0.00    +0.000 NA
ATOM      6  C   UNL     1      47.844   4.311  16.592  0.00  0.00    +0.000 A 
ATOM      7  C   UNL     1      47.344   4.078  15.328  0.00  0.00    +0.000 A 
ATOM      8  N   UNL     1      47.460   4.981  14.323  0.00  0.00    +0.000 NA
ATOM      9  H   UNL     1      47.878   8.000  13.933  0.00  0.00    +0.000 HD
BRANCH   6  10
ATOM     10  C   UNL     1      47.659   3.276  17.648  0.00  0.00    +0.000 C 
ATOM     11  N   UNL     1      48.681   3.149  18.545  0.00  0.00    +0.000 N 
ATOM     12  O   UNL     1      46.652   2.580  17.711  0.00  0.00    +0.000 OA
ATOM     13  H   UNL     1      49.505   3.731  18.464  0.00  0.00    +0.000 HD
ATOM     14  H   UNL     1      48.609   2.458  19.277  0.00  0.00    +0.000 HD
ENDBRANCH   6  10
ENDBRANCH   1   2
BRANCH   1  16
ATOM     15  C   UNL     1      45.811   8.466  12.916  0.00  0.00    +0.000 C 
ATOM     16  C   UNL     1      46.206   7.198  12.216  0.00  0.00    +0.000 C 
BRANCH  16  17
ATOM     17  C   UNL     1      45.141   6.199  11.944  0.00  0.00    +0.000 A 
ATOM     18  C   UNL     1      44.136   5.937  12.881  0.00  0.00    +0.000 A 
ATOM     19  C   UNL     1      43.138   4.993  12.613  0.00  0.00    +0.000 A 
ATOM     20  C   UNL     1      43.116   4.307  11.397  0.00  0.00    +0.000 A 
ATOM     21  C   UNL     1      44.079   4.584  10.435  0.00  0.00    +0.000 A 
ATOM     22  C   UNL     1      45.103   5.491  10.731  0.00  0.00    +0.000 A 
BRANCH  21  23
ATOM     23  O   UNL     1      44.173   3.993   9.211  0.00  0.00    +0.000 OA
BRANCH  23  24
ATOM     24  C   UNL     1      44.880   2.765   9.100  0.00  0.00    +0.000 C 
ATOM     25  F   UNL     1      44.115   1.710   8.749  0.00  0.00    +0.000 F 
ATOM     26  F   UNL     1      45.845   2.907   8.162  0.00  0.00    +0.000 F 
ATOM     27  F   UNL     1      45.479   2.493  10.280  0.00  0.00    +0.000 F 
ENDBRANCH  23  24
ENDBRANCH  21  23
ENDBRANCH  16  17
ENDBRANCH   1  16
TORSDOF 6
ENDMDL
MODEL 4
REMARK VINA RESULT:    -6.870      5.129      8.467
REMARK INTER + INTRA:         -10.201
REMARK INTER:                  -9.431
REMARK INTRA:                  -0.769
REMARK UNBOUND:                -0.921
REMARK  Name = 
REMARK  7 active torsions:
REMARK  status: ('A' for Active; 'I' for Inactive)
REMARK    1  A    between atoms: C_1  and  C_2
REMARK    2  A    between atoms: C_2  and  C_3
REMARK    3  A    between atoms: C_2  and  C_14
REMARK    4  A    between atoms: C_3  and  N_4
REMARK    5  A    between atoms: C_8  and  C_9
REMARK    6  A    between atoms: C_18  and  O_19
REMARK    7  A    between atoms: O_19  and  C_20
REMARK                            x       y       z     vdW  Elec       q    Type
REMARK                         _______ _______ _______ _____ _____    ______ ____
ROOT
ATOM      1  C   UNL     1      47.565   5.825  13.060  0.00  0.00    +0.000 C 
ENDROOT
BRANCH   1   2
ATOM      2  N   UNL     1      48.140   6.777  14.008  0.00  0.00    +0.000 N 
ATOM      3  C   UNL     1      48.285   6.190  15.290  0.00  0.00    +0.000 A 
ATOM      4  C   UNL     1      48.804   6.929  16.360  0.00  0.00    +0.000 A 
ATOM      5  N   UNL     1      48.970   6.439  17.621  0.00  0.00    +0.000 NA
ATOM      6  C   UNL     1      48.603   5.135  17.771  0.00  0.00    +0.000 A 
ATOM      7  C   UNL     1      48.108   4.385  16.725  0.00  0.00    +0.000 A 
ATOM      8  N   UNL     1      47.942   4.895  15.479  0.00  0.00    +0.000 NA
ATOM      9  H   UNL     1      47.579   7.617  14.101  0.00  0.00    +0.000 HD
BRANCH   6  10
ATOM     10  C   UNL     1      48.738   4.505  19.115  0.00  0.00    +0.000 C 
ATOM     11  N   UNL     1      48.355   3.197  19.201  0.00  0.00    +0.000 N 
ATOM     12  O   UNL     1      49.168   5.119  20.085  0.00  0.00    +0.000 OA
ATOM     13  H   UNL     1      47.995   2.716  18.387  0.00  0.00    +0.000 HD
ATOM     14  H   UNL     1      48.420   2.724  20.091  0.00  0.00    +0.000 HD
ENDBRANCH   6  10
ENDBRANCH   1   2
BRANCH   1  16
ATOM     15  C   UNL     1      45.724   7.645  12.858  0.00  0.00    +0.000 C 
ATOM     16  C   UNL     1      46.348   6.373  12.362  0.00  0.00    +0.000 C 
BRANCH  16  17
ATOM     17  C   UNL     1      45.472   5.407  11.648  0.00  0.00    +0.000 A 
ATOM     18  C   UNL     1      44.543   4.622  12.339  0.00  0.00    +0.000 A 
ATOM     19  C   UNL     1      43.725   3.716  11.657  0.00  0.00    +0.000 A 
ATOM     20  C   UNL     1      43.806   3.591  10.268  0.00  0.00    +0.000 A 
ATOM     21  C   UNL     1      44.690   4.393   9.557  0.00  0.00    +0.000 A 
ATOM     22  C   UNL     1      45.542   5.259  10.252  0.00  0.00    +0.000 A 
BRANCH  21  23
ATOM     23  O   UNL     1      44.868   4.376   8.207  0.00  0.00    +0.000 OA
BRANCH  23  24
ATOM     24  C   UNL     1      45.978   3.665   7.675  0.00  0.00    +0.000 C 
ATOM     25  F   UNL     1      47.117   4.383   7.599  0.00  0.00    +0.000 F 
ATOM     26  F   UNL     1      46.217   2.590   8.460  0.00  0.00    +0.000 F 
ATOM     27  F   UNL     1      45.663   3.219   6.439  0.00  0.00    +0.000 F 
ENDBRANCH  23  24
ENDBRANCH  21  23
ENDBRANCH  16  17
ENDBRANCH   1  16
TORSDOF 6
ENDMDL
MODEL 5
REMARK VINA RESULT:    -6.334      5.537      8.109
REMARK INTER + INTRA:          -9.477
REMARK INTER:                  -8.819
REMARK INTRA:                  -0.658
REMARK UNBOUND:                -0.921
REMARK  Name = 
REMARK  7 active torsions:
REMARK  status: ('A' for Active; 'I' for Inactive)
REMARK    1  A    between atoms: C_1  and  C_2
REMARK    2  A    between atoms: C_2  and  C_3
REMARK    3  A    between atoms: C_2  and  C_14
REMARK    4  A    between atoms: C_3  and  N_4
REMARK    5  A    between atoms: C_8  and  C_9
REMARK    6  A    between atoms: C_18  and  O_19
REMARK    7  A    between atoms: O_19  and  C_20
REMARK                            x       y       z     vdW  Elec       q    Type
REMARK                         _______ _______ _______ _____ _____    ______ ____
ROOT
ATOM      1  C   UNL     1      46.617   5.893  12.384  0.00  0.00    +0.000 C 
ENDROOT
BRANCH   1   2
ATOM      2  N   UNL     1      46.535   6.928  13.413  0.00  0.00    +0.000 N 
ATOM      3  C   UNL     1      47.776   7.594  13.560  0.00  0.00    +0.000 A 
ATOM      4  C   UNL     1      47.931   8.616  14.505  0.00  0.00    +0.000 A 
ATOM      5  N   UNL     1      49.092   9.300  14.711  0.00  0.00    +0.000 NA
ATOM      6  C   UNL     1      50.119   8.924  13.897  0.00  0.00    +0.000 A 
ATOM      7  C   UNL     1      49.981   7.933  12.949  0.00  0.00    +0.000 A 
ATOM      8  N   UNL     1      48.819   7.258  12.766  0.00  0.00    +0.000 NA
ATOM      9  H   UNL     1      46.260   6.555  14.315  0.00  0.00    +0.000 HD
BRANCH   6  10
ATOM     10  C   UNL     1      51.436   9.606  14.048  0.00  0.00    +0.000 C 
ATOM     11  N   UNL     1      52.475   9.057  13.351  0.00  0.00    +0.000 N 
ATOM     12  O   UNL     1      51.581  10.600  14.750  0.00  0.00    +0.000 OA
ATOM     13  H   UNL     1      52.328   8.231  12.784  0.00  0.00    +0.000 HD
ATOM     14  H   UNL     1      53.390   9.476  13.422  0.00  0.00    +0.000 HD
ENDBRANCH   6  10
ENDBRANCH   1   2
BRANCH   1  16
ATOM     15  C   UNL     1      44.568   7.172  11.429  0.00  0.00    +0.000 C 
ATOM     16  C   UNL     1      45.590   6.080  11.298  0.00  0.00    +0.000 C 
BRANCH  16  17
ATOM     17  C   UNL     1      45.227   4.891  10.483  0.00  0.00    +0.000 A 
ATOM     18  C   UNL     1      44.512   3.824  11.036  0.00  0.00    +0.000 A 
ATOM     19  C   UNL     1      44.177   2.709  10.259  0.00  0.00    +0.000 A 
ATOM     20  C   UNL     1      44.534   2.649   8.911  0.00  0.00    +0.000 A 
ATOM     21  C   UNL     1      45.206   3.718   8.330  0.00  0.00    +0.000 A 
ATOM     22  C   UNL     1      45.583   4.805   9.126  0.00  0.00    +0.000 A 
BRANCH  21  23
ATOM     23  O   UNL     1      45.610   3.791   7.032  0.00  0.00    +0.000 OA
BRANCH  23  24
ATOM     24  C   UNL     1      46.677   2.956   6.602  0.00  0.00    +0.000 C 
ATOM     25  F   UNL     1      46.508   1.646   6.877  0.00  0.00    +0.000 F 
ATOM     26  F   UNL     1      46.811   3.083   5.262  0.00  0.00    +0.000 F 
ATOM     27  F   UNL     1      47.825   3.375   7.179  0.00  0.00    +0.000 F 
ENDBRANCH  23  24
ENDBRANCH  21  23
ENDBRANCH  16  17
ENDBRANCH   1  16
TORSDOF 6
ENDMDL
MODEL 6
REMARK VINA RESULT:    -6.204      3.509      5.837
REMARK INTER + INTRA:          -9.302
REMARK INTER:                  -8.198
REMARK INTRA:                  -1.103
REMARK UNBOUND:                -0.921
REMARK  Name = 
REMARK  7 active torsions:
REMARK  status: ('A' for Active; 'I' for Inactive)
REMARK    1  A    between atoms: C_1  and  C_2
REMARK    2  A    between atoms: C_2  and  C_3
REMARK    3  A    between atoms: C_2  and  C_14
REMARK    4  A    between atoms: C_3  and  N_4
REMARK    5  A    between atoms: C_8  and  C_9
REMARK    6  A    between atoms: C_18  and  O_19
REMARK    7  A    between atoms: O_19  and  C_20
REMARK                            x       y       z     vdW  Elec       q    Type
REMARK                         _______ _______ _______ _____ _____    ______ ____
ROOT
ATOM      1  C   UNL     1      49.238   7.110  14.367  0.00  0.00    +0.000 C 
ENDROOT
BRANCH   1   2
ATOM      2  N   UNL     1      48.111   7.569  13.557  0.00  0.00    +0.000 N 
ATOM      3  C   UNL     1      47.260   6.489  13.215  0.00  0.00    +0.000 A 
ATOM      4  C   UNL     1      46.122   6.698  12.428  0.00  0.00    +0.000 A 
ATOM      5  N   UNL     1      45.258   5.713  12.051  0.00  0.00    +0.000 NA
ATOM      6  C   UNL     1      45.576   4.475  12.524  0.00  0.00    +0.000 A 
ATOM      7  C   UNL     1      46.683   4.252  13.317  0.00  0.00    +0.000 A 
ATOM      8  N   UNL     1      47.535   5.246  13.672  0.00  0.00    +0.000 NA
ATOM      9  H   UNL     1      48.410   8.028  12.703  0.00  0.00    +0.000 HD
BRANCH   6  10
ATOM     10  C   UNL     1      44.700   3.325  12.164  0.00  0.00    +0.000 C 
ATOM     11  N   UNL     1      44.915   2.774  10.932  0.00  0.00    +0.000 N 
ATOM     12  O   UNL     1      43.839   2.896  12.924  0.00  0.00    +0.000 OA
ATOM     13  H   UNL     1      45.626   3.154  10.321  0.00  0.00    +0.000 HD
ATOM     14  H   UNL     1      44.343   1.997  10.636  0.00  0.00    +0.000 HD
ENDBRANCH   6  10
ENDBRANCH   1   2
BRANCH   1  16
ATOM     15  C   UNL     1      50.499   8.850  15.825  0.00  0.00    +0.000 C 
ATOM     16  C   UNL     1      49.369   7.876  15.657  0.00  0.00    +0.000 C 
BRANCH  16  17
ATOM     17  C   UNL     1      48.805   7.255  16.884  0.00  0.00    +0.000 A 
ATOM     18  C   UNL     1      48.261   8.037  17.909  0.00  0.00    +0.000 A 
ATOM     19  C   UNL     1      47.734   7.440  19.059  0.00  0.00    +0.000 A 
ATOM     20  C   UNL     1      47.721   6.051  19.198  0.00  0.00    +0.000 A 
ATOM     21  C   UNL     1      48.216   5.254  18.173  0.00  0.00    +0.000 A 
ATOM     22  C   UNL     1      48.789   5.859  17.049  0.00  0.00    +0.000 A 
BRANCH  21  23
ATOM     23  O   UNL     1      48.262   3.893  18.177  0.00  0.00    +0.000 OA
BRANCH  23  24
ATOM     24  C   UNL     1      47.436   3.180  17.265  0.00  0.00    +0.000 C 
ATOM     25  F   UNL     1      46.559   3.949  16.588  0.00  0.00    +0.000 F 
ATOM     26  F   UNL     1      48.229   2.561  16.361  0.00  0.00    +0.000 F 
ATOM     27  F   UNL     1      46.751   2.231  17.941  0.00  0.00    +0.000 F 
ENDBRANCH  23  24
ENDBRANCH  21  23
ENDBRANCH  16  17
ENDBRANCH   1  16
TORSDOF 6
ENDMDL
MODEL 7
REMARK VINA RESULT:    -6.179      2.891      4.710
REMARK INTER + INTRA:          -9.267
REMARK INTER:                  -8.284
REMARK INTRA:                  -0.984
REMARK UNBOUND:                -0.921
REMARK  Name = 
REMARK  7 active torsions:
REMARK  status: ('A' for Active; 'I' for Inactive)
REMARK    1  A    between atoms: C_1  and  C_2
REMARK    2  A    between atoms: C_2  and  C_3
REMARK    3  A    between atoms: C_2  and  C_14
REMARK    4  A    between atoms: C_3  and  N_4
REMARK    5  A    between atoms: C_8  and  C_9
REMARK    6  A    between atoms: C_18  and  O_19
REMARK    7  A    between atoms: O_19  and  C_20
REMARK                            x       y       z     vdW  Elec       q    Type
REMARK                         _______ _______ _______ _____ _____    ______ ____
ROOT
ATOM      1  C   UNL     1      47.047   8.643  12.707  0.00  0.00    +0.000 C 
ENDROOT
BRANCH   1   2
ATOM      2  N   UNL     1      46.021   7.825  13.350  0.00  0.00    +0.000 N 
ATOM      3  C   UNL     1      45.558   6.812  12.473  0.00  0.00    +0.000 A 
ATOM      4  C   UNL     1      44.559   5.919  12.878  0.00  0.00    +0.000 A 
ATOM      5  N   UNL     1      44.057   4.923  12.093  0.00  0.00    +0.000 NA
ATOM      6  C   UNL     1      44.625   4.840  10.857  0.00  0.00    +0.000 A 
ATOM      7  C   UNL     1      45.623   5.699  10.447  0.00  0.00    +0.000 A 
ATOM      8  N   UNL     1      46.102   6.689  11.241  0.00  0.00    +0.000 NA
ATOM      9  H   UNL     1      45.225   8.374  13.656  0.00  0.00    +0.000 HD
BRANCH   6  10
ATOM     10  C   UNL     1      44.142   3.789   9.918  0.00  0.00    +0.000 C 
ATOM     11  N   UNL     1      44.076   4.150   8.602  0.00  0.00    +0.000 N 
ATOM     12  O   UNL     1      43.824   2.668  10.299  0.00  0.00    +0.000 OA
ATOM     13  H   UNL     1      44.336   5.085   8.316  0.00  0.00    +0.000 HD
ATOM     14  H   UNL     1      43.749   3.477   7.924  0.00  0.00    +0.000 HD
ENDBRANCH   6  10
ENDBRANCH   1   2
BRANCH   1  16
ATOM     15  C   UNL     1      49.466   7.805  12.267  0.00  0.00    +0.000 C 
ATOM     16  C   UNL     1      48.431   8.334  13.217  0.00  0.00    +0.000 C 
BRANCH  16  17
ATOM     17  C   UNL     1      48.569   7.982  14.655  0.00  0.00    +0.000 A 
ATOM     18  C   UNL     1      48.407   8.945  15.656  0.00  0.00    +0.000 A 
ATOM     19  C   UNL     1      48.540   8.602  17.006  0.00  0.00    +0.000 A 
ATOM     20  C   UNL     1      48.819   7.286  17.381  0.00  0.00    +0.000 A 
ATOM     21  C   UNL     1      48.940   6.305  16.405  0.00  0.00    +0.000 A 
ATOM     22  C   UNL     1      48.858   6.666  15.055  0.00  0.00    +0.000 A 
BRANCH  21  23
ATOM     23  O   UNL     1      49.207   4.989  16.630  0.00  0.00    +0.000 OA
BRANCH  23  24
ATOM     24  C   UNL     1      48.206   4.185  17.241  0.00  0.00    +0.000 C 
ATOM     25  F   UNL     1      48.137   4.303  18.583  0.00  0.00    +0.000 F 
ATOM     26  F   UNL     1      47.003   4.534  16.731  0.00  0.00    +0.000 F 
ATOM     27  F   UNL     1      48.432   2.889  16.931  0.00  0.00    +0.000 F 
ENDBRANCH  23  24
ENDBRANCH  21  23
ENDBRANCH  16  17
ENDBRANCH   1  16
TORSDOF 6
ENDMDL
MODEL 8
REMARK VINA RESULT:    -6.116      3.853      6.293
REMARK INTER + INTRA:          -9.183
REMARK INTER:                  -8.431
REMARK INTRA:                  -0.753
REMARK UNBOUND:                -0.921
REMARK  Name = 
REMARK  7 active torsions:
REMARK  status: ('A' for Active; 'I' for Inactive)
REMARK    1  A    between atoms: C_1  and  C_2
REMARK    2  A    between atoms: C_2  and  C_3
REMARK    3  A    between atoms: C_2  and  C_14
REMARK    4  A    between atoms: C_3  and  N_4
REMARK    5  A    between atoms: C_8  and  C_9
REMARK    6  A    between atoms: C_18  and  O_19
REMARK    7  A    between atoms: O_19  and  C_20
REMARK                            x       y       z     vdW  Elec       q    Type
REMARK                         _______ _______ _______ _____ _____    ______ ____
ROOT
ATOM      1  C   UNL     1      47.199   3.936  15.903  0.00  0.00    +0.000 C 
ENDROOT
BRANCH   1   2
ATOM      2  N   UNL     1      47.329   5.181  15.149  0.00  0.00    +0.000 N 
ATOM      3  C   UNL     1      46.638   5.099  13.914  0.00  0.00    +0.000 A 
ATOM      4  C   UNL     1      46.641   6.178  13.021  0.00  0.00    +0.000 A 
ATOM      5  N   UNL     1      46.006   6.176  11.814  0.00  0.00    +0.000 NA
ATOM      6  C   UNL     1      45.331   5.025  11.535  0.00  0.00    +0.000 A 
ATOM      7  C   UNL     1      45.301   3.960  12.411  0.00  0.00    +0.000 A 
ATOM      8  N   UNL     1      45.947   3.979  13.603  0.00  0.00    +0.000 NA
ATOM      9  H   UNL     1      48.297   5.420  14.961  0.00  0.00    +0.000 HD
BRANCH   6  10
ATOM     10  C   UNL     1      44.609   4.917  10.236  0.00  0.00    +0.000 C 
ATOM     11  N   UNL     1      45.385   5.000   9.115  0.00  0.00    +0.000 N 
ATOM     12  O   UNL     1      43.395   4.762  10.174  0.00  0.00    +0.000 OA
ATOM     13  H   UNL     1      46.384   5.137   9.195  0.00  0.00    +0.000 HD
ATOM     14  H   UNL     1      44.945   4.939   8.208  0.00  0.00    +0.000 HD
ENDBRANCH   6  10
ENDBRANCH   1   2
BRANCH   1  16
ATOM     15  C   UNL     1      47.392   5.087  18.222  0.00  0.00    +0.000 C 
ATOM     16  C   UNL     1      47.836   4.020  17.265  0.00  0.00    +0.000 C 
BRANCH  16  17
ATOM     17  C   UNL     1      49.219   3.496  17.409  0.00  0.00    +0.000 A 
ATOM     18  C   UNL     1      49.550   2.199  17.002  0.00  0.00    +0.000 A 
ATOM     19  C   UNL     1      50.856   1.717  17.143  0.00  0.00    +0.000 A 
ATOM     20  C   UNL     1      51.860   2.529  17.676  0.00  0.00    +0.000 A 
ATOM     21  C   UNL     1      51.563   3.834  18.047  0.00  0.00    +0.000 A 
ATOM     22  C   UNL     1      50.244   4.292  17.951  0.00  0.00    +0.000 A 
BRANCH  21  23
ATOM     23  O   UNL     1      52.443   4.730  18.575  0.00  0.00    +0.000 OA
BRANCH  23  24
ATOM     24  C   UNL     1      53.329   5.413  17.699  0.00  0.00    +0.000 C 
ATOM     25  F   UNL     1      53.781   6.593  18.172  0.00  0.00    +0.000 F 
ATOM     26  F   UNL     1      54.401   4.622  17.467  0.00  0.00    +0.000 F 
ATOM     27  F   UNL     1      52.704   5.629  16.521  0.00  0.00    +0.000 F 
ENDBRANCH  23  24
ENDBRANCH  21  23
ENDBRANCH  16  17
ENDBRANCH   1  16
TORSDOF 6
ENDMDL
MODEL 9
REMARK VINA RESULT:    -5.952      3.903      6.125
REMARK INTER + INTRA:          -8.961
REMARK INTER:                  -8.895
REMARK INTRA:                  -0.066
REMARK UNBOUND:                -0.921
REMARK  Name = 
REMARK  7 active torsions:
REMARK  status: ('A' for Active; 'I' for Inactive)
REMARK    1  A    between atoms: C_1  and  C_2
REMARK    2  A    between atoms: C_2  and  C_3
REMARK    3  A    between atoms: C_2  and  C_14
REMARK    4  A    between atoms: C_3  and  N_4
REMARK    5  A    between atoms: C_8  and  C_9
REMARK    6  A    between atoms: C_18  and  O_19
REMARK    7  A    between atoms: O_19  and  C_20
REMARK                            x       y       z     vdW  Elec       q    Type
REMARK                         _______ _______ _______ _____ _____    ______ ____
ROOT
ATOM      1  C   UNL     1      47.115   4.072  15.870  0.00  0.00    +0.000 C 
ENDROOT
BRANCH   1   2
ATOM      2  N   UNL     1      47.306   5.265  15.048  0.00  0.00    +0.000 N 
ATOM      3  C   UNL     1      46.618   5.145  13.815  0.00  0.00    +0.000 A 
ATOM      4  C   UNL     1      46.676   6.169  12.862  0.00  0.00    +0.000 A 
ATOM      5  N   UNL     1      46.048   6.127  11.652  0.00  0.00    +0.000 NA
ATOM      6  C   UNL     1      45.323   4.994  11.433  0.00  0.00    +0.000 A 
ATOM      7  C   UNL     1      45.240   3.982  12.367  0.00  0.00    +0.000 A 
ATOM      8  N   UNL     1      45.879   4.041  13.561  0.00  0.00    +0.000 NA
ATOM      9  H   UNL     1      48.285   5.450  14.855  0.00  0.00    +0.000 HD
BRANCH   6  10
ATOM     10  C   UNL     1      44.605   4.845  10.136  0.00  0.00    +0.000 C 
ATOM     11  N   UNL     1      45.386   4.862   9.016  0.00  0.00    +0.000 N 
ATOM     12  O   UNL     1      43.388   4.713  10.075  0.00  0.00    +0.000 OA
ATOM     13  H   UNL     1      46.388   4.981   9.095  0.00  0.00    +0.000 HD
ATOM     14  H   UNL     1      44.949   4.771   8.111  0.00  0.00    +0.000 HD
ENDBRANCH   6  10
ENDBRANCH   1   2
BRANCH   1  16
ATOM     15  C   UNL     1      47.113   5.118  18.247  0.00  0.00    +0.000 C 
ATOM     16  C   UNL     1      47.742   4.207  17.233  0.00  0.00    +0.000 C 
BRANCH  16  17
ATOM     17  C   UNL     1      49.203   3.955  17.345  0.00  0.00    +0.000 A 
ATOM     18  C   UNL     1      50.104   4.999  17.579  0.00  0.00    +0.000 A 
ATOM     19  C   UNL     1      51.476   4.748  17.682  0.00  0.00    +0.000 A 
ATOM     20  C   UNL     1      51.972   3.447  17.573  0.00  0.00    +0.000 A 
ATOM     21  C   UNL     1      51.090   2.390  17.385  0.00  0.00    +0.000 A 
ATOM     22  C   UNL     1      49.725   2.655  17.231  0.00  0.00    +0.000 A 
BRANCH  21  23
ATOM     23  O   UNL     1      51.437   1.078  17.264  0.00  0.00    +0.000 OA
BRANCH  23  24
ATOM     24  C   UNL     1      52.678   0.649  17.808  0.00  0.00    +0.000 C 
ATOM     25  F   UNL     1      52.638  -0.560  18.405  0.00  0.00    +0.000 F 
ATOM     26  F   UNL     1      53.587   0.586  16.808  0.00  0.00    +0.000 F 
ATOM     27  F   UNL     1      53.106   1.562  18.706  0.00  0.00    +0.000 F 
ENDBRANCH  23  24
ENDBRANCH  21  23
ENDBRANCH  16  17
ENDBRANCH   1  16
TORSDOF 6
ENDMDL
