MODEL 1
REMARK VINA RESULT:    -8.175      0.000      0.000
REMARK INTER + INTRA:         -11.480
REMARK INTER:                 -10.803
REMARK INTRA:                  -0.677
REMARK UNBOUND:                -0.677
REMARK  Name = 
REMARK  6 active torsions:
REMARK  status: ('A' for Active; 'I' for Inactive)
REMARK    1  A    between atoms: C_2  and  C_4
REMARK    2  A    between atoms: C_7  and  N_8
REMARK    3  A    between atoms: N_8  and  CA_9
REMARK    4  A    between atoms: CA_9  and  C_10
REMARK    5  A    between atoms: CA_9  and  C_12
REMARK    6  A    between atoms: C_10  and  O_11
REMARK                            x       y       z     vdW  Elec       q    Type
REMARK                         _______ _______ _______ _____ _____    ______ ____
ROOT
ATOM      1  N   UNL     1      43.727   3.715  10.506  0.00  0.00    +0.000 N 
ATOM      2  H   UNL     1      43.336   2.987  11.094  0.00  0.00    +0.000 HD
ENDROOT
BRANCH   1   6
ATOM      3  C   UNL     1      46.411   2.585   7.457  0.00  0.00    +0.000 A 
ATOM      4  C   UNL     1      45.940   1.622   8.350  0.00  0.00    +0.000 A 
ATOM      5  C   UNL     1      45.008   1.975   9.336  0.00  0.00    +0.000 A 
ATOM      6  C   UNL     1      44.534   3.287   9.461  0.00  0.00    +0.000 A 
ATOM      7  C   UNL     1      44.971   4.226   8.517  0.00  0.00    +0.000 A 
ATOM      8  C   UNL     1      45.914   3.888   7.535  0.00  0.00    +0.000 A 
BRANCH   3  10
ATOM      9  N   UNL     1      47.488   3.019   5.308  0.00  0.00    +0.000 N 
ATOM     10  C   UNL     1      47.475   2.284   6.461  0.00  0.00    +0.000 C 
ATOM     11  O   UNL     1      48.317   1.420   6.663  0.00  0.00    +0.000 OA
ATOM     12  H   UNL     1      48.259   2.849   4.676  0.00  0.00    +0.000 HD
ATOM     13  H   UNL     1      46.970   3.880   5.201  0.00  0.00    +0.000 HD
ENDBRANCH   3  10
ENDBRANCH   1   6
BRANCH   1  14
ATOM     14  CA  UNL     1      43.847   5.056  11.089  0.00  0.00    +0.000 C 
BRANCH  14  15
ATOM     15  C   UNL     1      45.182   5.261  11.789  0.00  0.00    +0.000 A 
ATOM     16  C   UNL     1      46.012   6.325  11.396  0.00  0.00    +0.000 A 
ATOM     17  C   UNL     1      47.175   6.630  12.106  0.00  0.00    +0.000 A 
ATOM     18  C   UNL     1      47.532   5.870  13.216  0.00  0.00    +0.000 A 
ATOM     19  C   UNL     1      46.743   4.790  13.600  0.00  0.00    +0.000 A 
ATOM     20  C   UNL     1      45.580   4.482  12.887  0.00  0.00    +0.000 A 
ENDBRANCH  14  15
BRANCH  14  21
ATOM     21  C   UNL     1      42.635   5.333  12.024  0.00  0.00    +0.000 C 
BRANCH  21  22
ATOM     22  O   UNL     1      41.915   6.521  11.693  0.00  0.00    +0.000 OA
ATOM     23  H   UNL     1      41.574   6.377  10.793  0.00  0.00    +0.000 HD
ENDBRANCH  21  22
ENDBRANCH  14  21
ENDBRANCH   1  14
TORSDOF 6
ENDMDL
MODEL 2
REMARK VINA RESULT:    -8.031      0.585      1.655
REMARK INTER + INTRA:         -11.290
REMARK INTER:                 -10.661
REMARK INTRA:                  -0.629
REMARK UNBOUND:                -0.677
REMARK  Name = 
REMARK  6 active torsions:
REMARK  status: ('A' for Active; 'I' for Inactive)
REMARK    1  A    between atoms: C_2  and  C_4
REMARK    2  A    between atoms: C_7  and  N_8
REMARK    3  A    between atoms: N_8  and  CA_9
REMARK    4  A    between atoms: CA_9  and  C_10
REMARK    5  A    between atoms: CA_9  and  C_12
REMARK    6  A    between atoms: C_10  and  O_11
REMARK                            x       y       z     vdW  Elec       q    Type
REMARK                         _______ _______ _______ _____ _____    ______ ____
ROOT
ATOM      1  N   UNL     1      43.587   4.027  10.289  0.00  0.00    +0.000 N 
ATOM      2  H   UNL     1      42.984   3.313  10.683  0.00  0.00    +0.000 HD
ENDROOT
BRANCH   1   6
ATOM      3  C   UNL     1      46.534   2.503   7.687  0.00  0.00    +0.000 A 
ATOM      4  C   UNL     1      46.299   3.878   7.730  0.00  0.00    +0.000 A 
ATOM      5  C   UNL     1      45.357   4.401   8.627  0.00  0.00    +0.000 A 
ATOM      6  C   UNL     1      44.627   3.574   9.489  0.00  0.00    +0.000 A 
ATOM      7  C   UNL     1      44.922   2.204   9.476  0.00  0.00    +0.000 A 
ATOM      8  C   UNL     1      45.850   1.667   8.572  0.00  0.00    +0.000 A 
BRANCH   3  10
ATOM      9  N   UNL     1      48.528   2.624   6.281  0.00  0.00    +0.000 N 
ATOM     10  C   UNL     1      47.446   1.890   6.683  0.00  0.00    +0.000 C 
ATOM     11  O   UNL     1      47.249   0.768   6.238  0.00  0.00    +0.000 OA
ATOM     12  H   UNL     1      49.174   2.163   5.653  0.00  0.00    +0.000 HD
ATOM     13  H   UNL     1      48.855   3.438   6.782  0.00  0.00    +0.000 HD
ENDBRANCH   3  10
ENDBRANCH   1   6
BRANCH   1  14
ATOM     14  CA  UNL     1      43.640   5.318  10.985  0.00  0.00    +0.000 C 
BRANCH  14  15
ATOM     15  C   UNL     1      44.881   5.453  11.854  0.00  0.00    +0.000 A 
ATOM     16  C   UNL     1      45.077   4.559  12.921  0.00  0.00    +0.000 A 
ATOM     17  C   UNL     1      46.269   4.562  13.651  0.00  0.00    +0.000 A 
ATOM     18  C   UNL     1      47.278   5.464  13.332  0.00  0.00    +0.000 A 
ATOM     19  C   UNL     1      47.088   6.382  12.302  0.00  0.00    +0.000 A 
ATOM     20  C   UNL     1      45.895   6.382  11.573  0.00  0.00    +0.000 A 
ENDBRANCH  14  15
BRANCH  14  21
ATOM     21  C   UNL     1      42.324   5.537  11.785  0.00  0.00    +0.000 C 
BRANCH  21  22
ATOM     22  O   UNL     1      41.819   6.870  11.706  0.00  0.00    +0.000 OA
ATOM     23  H   UNL     1      40.918   6.829  12.071  0.00  0.00    +0.000 HD
ENDBRANCH  21  22
ENDBRANCH  14  21
ENDBRANCH   1  14
TORSDOF 6
ENDMDL
MODEL 3
REMARK VINA RESULT:    -6.593      2.953      6.306
REMARK INTER + INTRA:          -9.389
REMARK INTER:                  -8.802
REMARK INTRA:                  -0.586
REMARK UNBOUND:                -0.677
REMARK  Name = 
REMARK  6 active torsions:
REMARK  status: ('A' for Active; 'I' for Inactive)
REMARK    1  A    between atoms: C_2  and  C_4
REMARK    2  A    between atoms: C_7  and  N_8
REMARK    3  A    between atoms: N_8  and  CA_9
REMARK    4  A    between atoms: CA_9  and  C_10
REMARK    5  A    between atoms: CA_9  and  C_12
REMARK    6  A    between atoms: C_10  and  O_11
REMARK                            x       y       z     vdW  Elec       q    Type
REMARK                         _______ _______ _______ _____ _____    ______ ____
ROOT
ATOM      1  N   UNL     1      44.105   5.146  10.853  0.00  0.00    +0.000 N 
ATOM      2  H   UNL     1      43.592   5.474  10.041  0.00  0.00    +0.000 HD
ENDROOT
BRANCH   1   6
ATOM      3  C   UNL     1      46.347   8.033  12.953  0.00  0.00    +0.000 A 
ATOM      4  C   UNL     1      45.319   8.445  12.104  0.00  0.00    +0.000 A 
ATOM      5  C   UNL     1      44.533   7.493  11.440  0.00  0.00    +0.000 A 
ATOM      6  C   UNL     1      44.757   6.119  11.596  0.00  0.00    +0.000 A 
ATOM      7  C   UNL     1      45.753   5.724  12.500  0.00  0.00    +0.000 A 
ATOM      8  C   UNL     1      46.555   6.668  13.159  0.00  0.00    +0.000 A 
BRANCH   3  10
ATOM      9  N   UNL     1      47.420   8.928  14.957  0.00  0.00    +0.000 N 
ATOM     10  C   UNL     1      47.272   9.003  13.599  0.00  0.00    +0.000 C 
ATOM     11  O   UNL     1      47.892   9.832  12.946  0.00  0.00    +0.000 OA
ATOM     12  H   UNL     1      48.105   9.548  15.369  0.00  0.00    +0.000 HD
ATOM     13  H   UNL     1      47.119   8.130  15.497  0.00  0.00    +0.000 HD
ENDBRANCH   3  10
ENDBRANCH   1   6
BRANCH   1  14
ATOM     14  CA  UNL     1      44.534   3.743  10.852  0.00  0.00    +0.000 C 
BRANCH  14  15
ATOM     15  C   UNL     1      45.146   3.329   9.523  0.00  0.00    +0.000 A 
ATOM     16  C   UNL     1      45.597   4.318   8.631  0.00  0.00    +0.000 A 
ATOM     17  C   UNL     1      46.291   3.976   7.468  0.00  0.00    +0.000 A 
ATOM     18  C   UNL     1      46.536   2.639   7.172  0.00  0.00    +0.000 A 
ATOM     19  C   UNL     1      46.066   1.642   8.024  0.00  0.00    +0.000 A 
ATOM     20  C   UNL     1      45.370   1.984   9.187  0.00  0.00    +0.000 A 
ENDBRANCH  14  15
BRANCH  14  21
ATOM     21  C   UNL     1      43.347   2.830  11.272  0.00  0.00    +0.000 C 
BRANCH  21  22
ATOM     22  O   UNL     1      43.552   2.156  12.513  0.00  0.00    +0.000 OA
ATOM     23  H   UNL     1      44.512   2.002  12.571  0.00  0.00    +0.000 HD
ENDBRANCH  21  22
ENDBRANCH  14  21
ENDBRANCH   1  14
TORSDOF 6
ENDMDL
MODEL 4
REMARK VINA RESULT:    -6.581      3.131      6.394
REMARK INTER + INTRA:          -9.374
REMARK INTER:                  -8.780
REMARK INTRA:                  -0.594
REMARK UNBOUND:                -0.677
REMARK  Name = 
REMARK  6 active torsions:
REMARK  status: ('A' for Active; 'I' for Inactive)
REMARK    1  A    between atoms: C_2  and  C_4
REMARK    2  A    between atoms: C_7  and  N_8
REMARK    3  A    between atoms: N_8  and  CA_9
REMARK    4  A    between atoms: CA_9  and  C_10
REMARK    5  A    between atoms: CA_9  and  C_12
REMARK    6  A    between atoms: C_10  and  O_11
REMARK                            x       y       z     vdW  Elec       q    Type
REMARK                         _______ _______ _______ _____ _____    ______ ____
ROOT
ATOM      1  N   UNL     1      44.660   6.415  10.894  0.00  0.00    +0.000 N 
ATOM      2  H   UNL     1      44.512   6.809   9.971  0.00  0.00    +0.000 HD
ENDROOT
BRANCH   1   6
ATOM      3  C   UNL     1      47.387   8.267  13.523  0.00  0.00    +0.000 A 
ATOM      4  C   UNL     1      47.749   7.084  12.878  0.00  0.00    +0.000 A 
ATOM      5  C   UNL     1      46.871   6.486  11.963  0.00  0.00    +0.000 A 
ATOM      6  C   UNL     1      45.618   7.043  11.678  0.00  0.00    +0.000 A 
ATOM      7  C   UNL     1      45.298   8.264  12.287  0.00  0.00    +0.000 A 
ATOM      8  C   UNL     1      46.161   8.863  13.216  0.00  0.00    +0.000 A 
BRANCH   3  10
ATOM      9  N   UNL     1      47.642   9.196  15.768  0.00  0.00    +0.000 N 
ATOM     10  C   UNL     1      48.238   8.884  14.576  0.00  0.00    +0.000 C 
ATOM     11  O   UNL     1      49.429   9.095  14.397  0.00  0.00    +0.000 OA
ATOM     12  H   UNL     1      48.251   9.548  16.495  0.00  0.00    +0.000 HD
ATOM     13  H   UNL     1      46.740   8.834  16.041  0.00  0.00    +0.000 HD
ENDBRANCH   3  10
ENDBRANCH   1   6
BRANCH   1  14
ATOM     14  CA  UNL     1      44.285   5.010  11.091  0.00  0.00    +0.000 C 
BRANCH  14  15
ATOM     15  C   UNL     1      44.749   4.124   9.945  0.00  0.00    +0.000 A 
ATOM     16  C   UNL     1      45.462   4.694   8.876  0.00  0.00    +0.000 A 
ATOM     17  C   UNL     1      46.025   3.893   7.879  0.00  0.00    +0.000 A 
ATOM     18  C   UNL     1      45.877   2.511   7.931  0.00  0.00    +0.000 A 
ATOM     19  C   UNL     1      45.144   1.930   8.962  0.00  0.00    +0.000 A 
ATOM     20  C   UNL     1      44.577   2.731   9.958  0.00  0.00    +0.000 A 
ENDBRANCH  14  15
BRANCH  14  21
ATOM     21  C   UNL     1      42.754   4.906  11.343  0.00  0.00    +0.000 C 
BRANCH  21  22
ATOM     22  O   UNL     1      42.145   6.148  11.696  0.00  0.00    +0.000 OA
ATOM     23  H   UNL     1      42.002   6.616  10.854  0.00  0.00    +0.000 HD
ENDBRANCH  21  22
ENDBRANCH  14  21
ENDBRANCH   1  14
TORSDOF 6
ENDMDL
MODEL 5
REMARK VINA RESULT:    -6.422      3.189      6.364
REMARK INTER + INTRA:          -9.164
REMARK INTER:                  -8.587
REMARK INTRA:                  -0.577
REMARK UNBOUND:                -0.677
REMARK  Name = 
REMARK  6 active torsions:
REMARK  status: ('A' for Active; 'I' for Inactive)
REMARK    1  A    between atoms: C_2  and  C_4
REMARK    2  A    between atoms: C_7  and  N_8
REMARK    3  A    between atoms: N_8  and  CA_9
REMARK    4  A    between atoms: CA_9  and  C_10
REMARK    5  A    between atoms: CA_9  and  C_12
REMARK    6  A    between atoms: C_10  and  O_11
REMARK                            x       y       z     vdW  Elec       q    Type
REMARK                         _______ _______ _______ _____ _____    ______ ____
ROOT
ATOM      1  N   UNL     1      45.421   5.837  11.591  0.00  0.00    +0.000 N 
ATOM      2  H   UNL     1      45.738   6.461  10.856  0.00  0.00    +0.000 HD
ENDROOT
BRANCH   1   6
ATOM      3  C   UNL     1      47.844   5.652  15.036  0.00  0.00    +0.000 A 
ATOM      4  C   UNL     1      46.983   4.593  14.743  0.00  0.00    +0.000 A 
ATOM      5  C   UNL     1      46.210   4.620  13.574  0.00  0.00    +0.000 A 
ATOM      6  C   UNL     1      46.269   5.698  12.681  0.00  0.00    +0.000 A 
ATOM      7  C   UNL     1      47.184   6.722  12.961  0.00  0.00    +0.000 A 
ATOM      8  C   UNL     1      47.951   6.713  14.135  0.00  0.00    +0.000 A 
BRANCH   3  10
ATOM      9  N   UNL     1      48.377   6.789  17.132  0.00  0.00    +0.000 N 
ATOM     10  C   UNL     1      48.606   5.718  16.313  0.00  0.00    +0.000 C 
ATOM     11  O   UNL     1      49.401   4.845  16.631  0.00  0.00    +0.000 OA
ATOM     12  H   UNL     1      48.850   6.780  18.025  0.00  0.00    +0.000 HD
ATOM     13  H   UNL     1      47.578   7.398  17.026  0.00  0.00    +0.000 HD
ENDBRANCH   3  10
ENDBRANCH   1   6
BRANCH   1  14
ATOM     14  CA  UNL     1      44.449   4.803  11.219  0.00  0.00    +0.000 C 
BRANCH  14  15
ATOM     15  C   UNL     1      44.882   4.021   9.989  0.00  0.00    +0.000 A 
ATOM     16  C   UNL     1      45.499   4.697   8.921  0.00  0.00    +0.000 A 
ATOM     17  C   UNL     1      46.036   3.995   7.840  0.00  0.00    +0.000 A 
ATOM     18  C   UNL     1      45.958   2.606   7.804  0.00  0.00    +0.000 A 
ATOM     19  C   UNL     1      45.320   1.921   8.834  0.00  0.00    +0.000 A 
ATOM     20  C   UNL     1      44.779   2.623   9.915  0.00  0.00    +0.000 A 
ENDBRANCH  14  15
BRANCH  14  21
ATOM     21  C   UNL     1      43.041   5.443  11.053  0.00  0.00    +0.000 C 
BRANCH  21  22
ATOM     22  O   UNL     1      43.050   6.870  11.090  0.00  0.00    +0.000 OA
ATOM     23  H   UNL     1      42.817   7.156  10.189  0.00  0.00    +0.000 HD
ENDBRANCH  21  22
ENDBRANCH  14  21
ENDBRANCH   1  14
TORSDOF 6
ENDMDL
MODEL 6
REMARK VINA RESULT:    -5.789      3.432      4.982
REMARK INTER + INTRA:          -8.327
REMARK INTER:                  -7.745
REMARK INTRA:                  -0.582
REMARK UNBOUND:                -0.677
REMARK  Name = 
REMARK  6 active torsions:
REMARK  status: ('A' for Active; 'I' for Inactive)
REMARK    1  A    between atoms: C_2  and  C_4
REMARK    2  A    between atoms: C_7  and  N_8
REMARK    3  A    between atoms: N_8  and  CA_9
REMARK    4  A    between atoms: CA_9  and  C_10
REMARK    5  A    between atoms: CA_9  and  C_12
REMARK    6  A    between atoms: C_10  and  O_11
REMARK                            x       y       z     vdW  Elec       q    Type
REMARK                         _______ _______ _______ _____ _____    ______ ____
ROOT
ATOM      1  N   UNL     1      46.410   5.931  14.010  0.00  0.00    +0.000 N 
ATOM      2  H   UNL     1      45.783   6.235  14.747  0.00  0.00    +0.000 HD
ENDROOT
BRANCH   1   6
ATOM      3  C   UNL     1      44.897   3.972  10.597  0.00  0.00    +0.000 A 
ATOM      4  C   UNL     1      44.897   3.311  11.826  0.00  0.00    +0.000 A 
ATOM      5  C   UNL     1      45.350   3.970  12.978  0.00  0.00    +0.000 A 
ATOM      6  C   UNL     1      45.820   5.288  12.931  0.00  0.00    +0.000 A 
ATOM      7  C   UNL     1      45.754   5.957  11.701  0.00  0.00    +0.000 A 
ATOM      8  C   UNL     1      45.317   5.303  10.539  0.00  0.00    +0.000 A 
BRANCH   3  10
ATOM      9  N   UNL     1      44.212   4.068   8.254  0.00  0.00    +0.000 N 
ATOM     10  C   UNL     1      44.524   3.284   9.332  0.00  0.00    +0.000 C 
ATOM     11  O   UNL     1      44.505   2.064   9.246  0.00  0.00    +0.000 OA
ATOM     12  H   UNL     1      44.030   3.584   7.385  0.00  0.00    +0.000 HD
ATOM     13  H   UNL     1      44.436   5.051   8.209  0.00  0.00    +0.000 HD
ENDBRANCH   3  10
ENDBRANCH   1   6
BRANCH   1  14
ATOM     14  CA  UNL     1      47.816   5.717  14.375  0.00  0.00    +0.000 C 
BRANCH  14  15
ATOM     15  C   UNL     1      47.964   5.058  15.737  0.00  0.00    +0.000 A 
ATOM     16  C   UNL     1      48.610   5.753  16.774  0.00  0.00    +0.000 A 
ATOM     17  C   UNL     1      48.640   5.241  18.073  0.00  0.00    +0.000 A 
ATOM     18  C   UNL     1      48.033   4.021  18.354  0.00  0.00    +0.000 A 
ATOM     19  C   UNL     1      47.419   3.300  17.334  0.00  0.00    +0.000 A 
ATOM     20  C   UNL     1      47.391   3.811  16.033  0.00  0.00    +0.000 A 
ENDBRANCH  14  15
BRANCH  14  21
ATOM     21  C   UNL     1      48.594   7.060  14.274  0.00  0.00    +0.000 C 
BRANCH  21  22
ATOM     22  O   UNL     1      49.852   6.946  13.607  0.00  0.00    +0.000 OA
ATOM     23  H   UNL     1      50.391   6.360  14.166  0.00  0.00    +0.000 HD
ENDBRANCH  21  22
ENDBRANCH  14  21
ENDBRANCH   1  14
TORSDOF 6
ENDMDL
MODEL 7
REMARK VINA RESULT:    -5.623      3.648      6.988
REMARK INTER + INTRA:          -8.108
REMARK INTER:                  -7.558
REMARK INTRA:                  -0.549
REMARK UNBOUND:                -0.677
REMARK  Name = 
REMARK  6 active torsions:
REMARK  status: ('A' for Active; 'I' for Inactive)
REMARK    1  A    between atoms: C_2  and  C_4
REMARK    2  A    between atoms: C_7  and  N_8
REMARK    3  A    between atoms: N_8  and  CA_9
REMARK    4  A    between atoms: CA_9  and  C_10
REMARK    5  A    between atoms: CA_9  and  C_12
REMARK    6  A    between atoms: C_10  and  O_11
REMARK                            x       y       z     vdW  Elec       q    Type
REMARK                         _______ _______ _______ _____ _____    ______ ____
ROOT
ATOM      1  N   UNL     1      46.655   5.850  12.322  0.00  0.00    +0.000 N 
ATOM      2  H   UNL     1      47.382   5.814  11.616  0.00  0.00    +0.000 HD
ENDROOT
BRANCH   1   6
ATOM      3  C   UNL     1      48.038   4.870  16.182  0.00  0.00    +0.000 A 
ATOM      4  C   UNL     1      48.476   6.047  15.573  0.00  0.00    +0.000 A 
ATOM      5  C   UNL     1      47.984   6.409  14.311  0.00  0.00    +0.000 A 
ATOM      6  C   UNL     1      47.059   5.609  13.628  0.00  0.00    +0.000 A 
ATOM      7  C   UNL     1      46.585   4.464  14.282  0.00  0.00    +0.000 A 
ATOM      8  C   UNL     1      47.080   4.084  15.538  0.00  0.00    +0.000 A 
BRANCH   3  10
ATOM      9  N   UNL     1      49.448   5.234  18.144  0.00  0.00    +0.000 N 
ATOM     10  C   UNL     1      48.606   4.391  17.472  0.00  0.00    +0.000 C 
ATOM     11  O   UNL     1      48.326   3.291  17.928  0.00  0.00    +0.000 OA
ATOM     12  H   UNL     1      49.768   4.921  19.050  0.00  0.00    +0.000 HD
ATOM     13  H   UNL     1      49.522   6.219  17.931  0.00  0.00    +0.000 HD
ENDBRANCH   3  10
ENDBRANCH   1   6
BRANCH   1  14
ATOM     14  CA  UNL     1      45.276   5.620  11.875  0.00  0.00    +0.000 C 
BRANCH  14  15
ATOM     15  C   UNL     1      45.205   4.660  10.698  0.00  0.00    +0.000 A 
ATOM     16  C   UNL     1      44.632   3.389  10.876  0.00  0.00    +0.000 A 
ATOM     17  C   UNL     1      44.421   2.537   9.789  0.00  0.00    +0.000 A 
ATOM     18  C   UNL     1      44.788   2.938   8.509  0.00  0.00    +0.000 A 
ATOM     19  C   UNL     1      45.390   4.179   8.316  0.00  0.00    +0.000 A 
ATOM     20  C   UNL     1      45.604   5.031   9.403  0.00  0.00    +0.000 A 
ENDBRANCH  14  15
BRANCH  14  21
ATOM     21  C   UNL     1      44.588   6.983  11.577  0.00  0.00    +0.000 C 
BRANCH  21  22
ATOM     22  O   UNL     1      43.205   6.866  11.240  0.00  0.00    +0.000 OA
ATOM     23  H   UNL     1      43.186   6.561  10.316  0.00  0.00    +0.000 HD
ENDBRANCH  21  22
ENDBRANCH  14  21
ENDBRANCH   1  14
TORSDOF 6
ENDMDL
MODEL 8
REMARK VINA RESULT:    -5.465      4.074      7.021
REMARK INTER + INTRA:          -7.899
REMARK INTER:                  -7.321
REMARK INTRA:                  -0.578
REMARK UNBOUND:                -0.677
REMARK  Name = 
REMARK  6 active torsions:
REMARK  status: ('A' for Active; 'I' for Inactive)
REMARK    1  A    between atoms: C_2  and  C_4
REMARK    2  A    between atoms: C_7  and  N_8
REMARK    3  A    between atoms: N_8  and  CA_9
REMARK    4  A    between atoms: CA_9  and  C_10
REMARK    5  A    between atoms: CA_9  and  C_12
REMARK    6  A    between atoms: C_10  and  O_11
REMARK                            x       y       z     vdW  Elec       q    Type
REMARK                         _______ _______ _______ _____ _____    ______ ____
ROOT
ATOM      1  N   UNL     1      47.165   6.888  12.985  0.00  0.00    +0.000 N 
ATOM      2  H   UNL     1      47.827   6.912  12.218  0.00  0.00    +0.000 HD
ENDROOT
BRANCH   1   6
ATOM      3  C   UNL     1      47.964   4.502  16.368  0.00  0.00    +0.000 A 
ATOM      4  C   UNL     1      47.151   4.002  15.350  0.00  0.00    +0.000 A 
ATOM      5  C   UNL     1      46.920   4.765  14.197  0.00  0.00    +0.000 A 
ATOM      6  C   UNL     1      47.479   6.039  14.037  0.00  0.00    +0.000 A 
ATOM      7  C   UNL     1      48.342   6.499  15.041  0.00  0.00    +0.000 A 
ATOM      8  C   UNL     1      48.570   5.750  16.206  0.00  0.00    +0.000 A 
BRANCH   3  10
ATOM      9  N   UNL     1      47.175   2.904  18.039  0.00  0.00    +0.000 N 
ATOM     10  C   UNL     1      48.156   3.776  17.652  0.00  0.00    +0.000 C 
ATOM     11  O   UNL     1      49.157   3.937  18.338  0.00  0.00    +0.000 OA
ATOM     12  H   UNL     1      47.356   2.368  18.877  0.00  0.00    +0.000 HD
ATOM     13  H   UNL     1      46.461   2.569  17.409  0.00  0.00    +0.000 HD
ENDBRANCH   3  10
ENDBRANCH   1   6
BRANCH   1  14
ATOM     14  CA  UNL     1      45.785   7.292  12.692  0.00  0.00    +0.000 C 
BRANCH  14  15
ATOM     15  C   UNL     1      45.120   6.376  11.676  0.00  0.00    +0.000 A 
ATOM     16  C   UNL     1      45.871   5.883  10.594  0.00  0.00    +0.000 A 
ATOM     17  C   UNL     1      45.338   4.931   9.723  0.00  0.00    +0.000 A 
ATOM     18  C   UNL     1      44.041   4.462   9.914  0.00  0.00    +0.000 A 
ATOM     19  C   UNL     1      43.269   4.965  10.957  0.00  0.00    +0.000 A 
ATOM     20  C   UNL     1      43.801   5.920  11.828  0.00  0.00    +0.000 A 
ENDBRANCH  14  15
BRANCH  14  21
ATOM     21  C   UNL     1      45.756   8.785  12.257  0.00  0.00    +0.000 C 
BRANCH  21  22
ATOM     22  O   UNL     1      44.762   9.560  12.927  0.00  0.00    +0.000 OA
ATOM     23  H   UNL     1      43.984   8.978  13.001  0.00  0.00    +0.000 HD
ENDBRANCH  21  22
ENDBRANCH  14  21
ENDBRANCH   1  14
TORSDOF 6
ENDMDL
MODEL 9
REMARK VINA RESULT:    -5.360      3.537      5.573
REMARK INTER + INTRA:          -7.760
REMARK INTER:                  -7.155
REMARK INTRA:                  -0.605
REMARK UNBOUND:                -0.677
REMARK  Name = 
REMARK  6 active torsions:
REMARK  status: ('A' for Active; 'I' for Inactive)
REMARK    1  A    between atoms: C_2  and  C_4
REMARK    2  A    between atoms: C_7  and  N_8
REMARK    3  A    between atoms: N_8  and  CA_9
REMARK    4  A    between atoms: CA_9  and  C_10
REMARK    5  A    between atoms: CA_9  and  C_12
REMARK    6  A    between atoms: C_10  and  O_11
REMARK                            x       y       z     vdW  Elec       q    Type
REMARK                         _______ _______ _______ _____ _____    ______ ____
ROOT
ATOM      1  N   UNL     1      48.142   6.552  13.350  0.00  0.00    +0.000 N 
ATOM      2  H   UNL     1      48.892   5.924  13.621  0.00  0.00    +0.000 HD
ENDROOT
BRANCH   1   6
ATOM      3  C   UNL     1      45.018   4.681  11.226  0.00  0.00    +0.000 A 
ATOM      4  C   UNL     1      45.410   4.169  12.463  0.00  0.00    +0.000 A 
ATOM      5  C   UNL     1      46.413   4.813  13.202  0.00  0.00    +0.000 A 
ATOM      6  C   UNL     1      47.050   5.965  12.726  0.00  0.00    +0.000 A 
ATOM      7  C   UNL     1      46.600   6.499  11.510  0.00  0.00    +0.000 A 
ATOM      8  C   UNL     1      45.608   5.856  10.755  0.00  0.00    +0.000 A 
BRANCH   3  10
ATOM      9  N   UNL     1      43.940   4.380   9.054  0.00  0.00    +0.000 N 
ATOM     10  C   UNL     1      44.034   3.978  10.359  0.00  0.00    +0.000 C 
ATOM     11  O   UNL     1      43.339   3.066  10.785  0.00  0.00    +0.000 OA
ATOM     12  H   UNL     1      43.317   3.845   8.464  0.00  0.00    +0.000 HD
ATOM     13  H   UNL     1      44.639   4.954   8.606  0.00  0.00    +0.000 HD
ENDBRANCH   3  10
ENDBRANCH   1   6
BRANCH   1  14
ATOM     14  CA  UNL     1      48.490   7.964  13.155  0.00  0.00    +0.000 C 
BRANCH  14  15
ATOM     15  C   UNL     1      49.869   8.138  12.538  0.00  0.00    +0.000 A 
ATOM     16  C   UNL     1      50.906   8.689  13.310  0.00  0.00    +0.000 A 
ATOM     17  C   UNL     1      52.216   8.733  12.827  0.00  0.00    +0.000 A 
ATOM     18  C   UNL     1      52.508   8.237  11.561  0.00  0.00    +0.000 A 
ATOM     19  C   UNL     1      51.488   7.720  10.766  0.00  0.00    +0.000 A 
ATOM     20  C   UNL     1      50.177   7.678  11.248  0.00  0.00    +0.000 A 
ENDBRANCH  14  15
BRANCH  14  21
ATOM     21  C   UNL     1      48.335   8.733  14.498  0.00  0.00    +0.000 C 
BRANCH  21  22
ATOM     22  O   UNL     1      46.991   9.118  14.788  0.00  0.00    +0.000 OA
ATOM     23  H   UNL     1      46.949  10.074  14.609  0.00  0.00    +0.000 HD
ENDBRANCH  21  22
ENDBRANCH  14  21
ENDBRANCH   1  14
TORSDOF 6
ENDMDL
