MODEL 1
REMARK VINA RESULT:    -8.786      0.000      0.000
REMARK INTER + INTRA:         -12.105
REMARK INTER:                 -11.354
REMARK INTRA:                  -0.751
REMARK UNBOUND:                -0.751
REMARK  Name = 
REMARK  5 active torsions:
REMARK  status: ('A' for Active; 'I' for Inactive)
REMARK    1  A    between atoms: C_2  and  C_4
REMARK    2  A    between atoms: C_7  and  O_8
REMARK    3  A    between atoms: O_8  and  C_9
REMARK    4  A    between atoms: C_9  and  C_10
REMARK    5  A    between atoms: C_12  and  C_13
REMARK                            x       y       z     vdW  Elec       q    Type
REMARK                         _______ _______ _______ _____ _____    ______ ____
ROOT
ATOM      1  C   UNL     1      43.727   3.296  11.607  0.00  0.00    +0.000 C 
ENDROOT
BRANCH   1   2
ATOM      2  C   UNL     1      44.877   4.027  12.263  0.00  0.00    +0.000 A 
ATOM      3  C   UNL     1      45.087   5.387  12.040  0.00  0.00    +0.000 A 
ATOM      4  C   UNL     1      46.189   6.040  12.614  0.00  0.00    +0.000 A 
ATOM      5  C   UNL     1      47.055   5.255  13.388  0.00  0.00    +0.000 A 
ATOM      6  C   UNL     1      46.793   3.903  13.543  0.00  0.00    +0.000 A 
ATOM      7  N   UNL     1      45.732   3.276  12.998  0.00  0.00    +0.000 NA
BRANCH   4   8
ATOM      8  C   UNL     1      46.421   7.485  12.401  0.00  0.00    +0.000 A 
ATOM      9  C   UNL     1      47.705   8.015  12.202  0.00  0.00    +0.000 A 
ATOM     10  C   UNL     1      47.893   9.385  12.020  0.00  0.00    +0.000 A 
ATOM     11  C   UNL     1      46.781  10.206  12.028  0.00  0.00    +0.000 A 
ATOM     12  N   UNL     1      45.524   9.754  12.208  0.00  0.00    +0.000 NA
ATOM     13  C   UNL     1      45.380   8.418  12.393  0.00  0.00    +0.000 A 
ENDBRANCH   4   8
ENDBRANCH   1   2
BRANCH   1  14
ATOM     14  O   UNL     1      43.560   3.680  10.237  0.00  0.00    +0.000 OA
BRANCH  14  18
ATOM     15  C   UNL     1      46.487   2.572   7.478  0.00  0.00    +0.000 A 
ATOM     16  C   UNL     1      45.952   1.588   8.317  0.00  0.00    +0.000 A 
ATOM     17  C   UNL     1      44.971   1.922   9.254  0.00  0.00    +0.000 A 
ATOM     18  C   UNL     1      44.521   3.239   9.367  0.00  0.00    +0.000 A 
ATOM     19  C   UNL     1      45.073   4.224   8.542  0.00  0.00    +0.000 A 
ATOM     20  C   UNL     1      46.058   3.896   7.605  0.00  0.00    +0.000 A 
BRANCH  15  22
ATOM     21  N   UNL     1      47.546   3.011   5.332  0.00  0.00    +0.000 N 
ATOM     22  C   UNL     1      47.520   2.242   6.464  0.00  0.00    +0.000 C 
ATOM     23  O   UNL     1      48.337   1.348   6.641  0.00  0.00    +0.000 OA
ATOM     24  H   UNL     1      48.314   2.848   4.696  0.00  0.00    +0.000 HD
ATOM     25  H   UNL     1      47.069   3.900   5.272  0.00  0.00    +0.000 HD
ENDBRANCH  15  22
ENDBRANCH  14  18
ENDBRANCH   1  14
TORSDOF 5
ENDMDL
MODEL 2
REMARK VINA RESULT:    -8.648      0.164      1.020
REMARK INTER + INTRA:         -11.926
REMARK INTER:                 -11.262
REMARK INTRA:                  -0.665
REMARK UNBOUND:                -0.751
REMARK  Name = 
REMARK  5 active torsions:
REMARK  status: ('A' for Active; 'I' for Inactive)
REMARK    1  A    between atoms: C_2  and  C_4
REMARK    2  A    between atoms: C_7  and  O_8
REMARK    3  A    between atoms: O_8  and  C_9
REMARK    4  A    between atoms: C_9  and  C_10
REMARK    5  A    between atoms: C_12  and  C_13
REMARK                            x       y       z     vdW  Elec       q    Type
REMARK                         _______ _______ _______ _____ _____    ______ ____
ROOT
ATOM      1  C   UNL     1      43.876   3.189  11.754  0.00  0.00    +0.000 C 
ENDROOT
BRANCH   1   2
ATOM      2  C   UNL     1      44.999   3.979  12.389  0.00  0.00    +0.000 A 
ATOM      3  C   UNL     1      45.151   5.343  12.140  0.00  0.00    +0.000 A 
ATOM      4  C   UNL     1      46.228   6.051  12.695  0.00  0.00    +0.000 A 
ATOM      5  C   UNL     1      47.129   5.318  13.478  0.00  0.00    +0.000 A 
ATOM      6  C   UNL     1      46.924   3.960  13.661  0.00  0.00    +0.000 A 
ATOM      7  N   UNL     1      45.887   3.279  13.134  0.00  0.00    +0.000 NA
BRANCH   4   8
ATOM      8  C   UNL     1      46.398   7.500  12.453  0.00  0.00    +0.000 A 
ATOM      9  C   UNL     1      47.663   8.090  12.308  0.00  0.00    +0.000 A 
ATOM     10  C   UNL     1      47.792   9.463  12.096  0.00  0.00    +0.000 A 
ATOM     11  C   UNL     1      46.642  10.225  12.020  0.00  0.00    +0.000 A 
ATOM     12  N   UNL     1      45.401   9.714  12.146  0.00  0.00    +0.000 NA
ATOM     13  C   UNL     1      45.314   8.377  12.362  0.00  0.00    +0.000 A 
ENDBRANCH   4   8
ENDBRANCH   1   2
BRANCH   1  14
ATOM     14  O   UNL     1      43.561   3.668  10.442  0.00  0.00    +0.000 OA
BRANCH  14  18
ATOM     15  C   UNL     1      46.401   2.652   7.560  0.00  0.00    +0.000 A 
ATOM     16  C   UNL     1      46.017   3.992   7.677  0.00  0.00    +0.000 A 
ATOM     17  C   UNL     1      45.068   4.370   8.631  0.00  0.00    +0.000 A 
ATOM     18  C   UNL     1      44.489   3.415   9.468  0.00  0.00    +0.000 A 
ATOM     19  C   UNL     1      44.858   2.072   9.334  0.00  0.00    +0.000 A 
ATOM     20  C   UNL     1      45.806   1.688   8.379  0.00  0.00    +0.000 A 
BRANCH  15  22
ATOM     21  N   UNL     1      47.430   2.887   5.368  0.00  0.00    +0.000 N 
ATOM     22  C   UNL     1      47.417   2.225   6.565  0.00  0.00    +0.000 C 
ATOM     23  O   UNL     1      48.232   1.345   6.811  0.00  0.00    +0.000 OA
ATOM     24  H   UNL     1      48.188   2.662   4.738  0.00  0.00    +0.000 HD
ATOM     25  H   UNL     1      46.958   3.770   5.234  0.00  0.00    +0.000 HD
ENDBRANCH  15  22
ENDBRANCH  14  18
ENDBRANCH   1  14
TORSDOF 5
ENDMDL
MODEL 3
REMARK VINA RESULT:    -8.285      2.041      3.495
REMARK INTER + INTRA:         -11.458
REMARK INTER:                 -10.795
REMARK INTRA:                  -0.663
REMARK UNBOUND:                -0.751
REMARK  Name = 
REMARK  5 active torsions:
REMARK  status: ('A' for Active; 'I' for Inactive)
REMARK    1  A    between atoms: C_2  and  C_4
REMARK    2  A    between atoms: C_7  and  O_8
REMARK    3  A    between atoms: O_8  and  C_9
REMARK    4  A    between atoms: C_9  and  C_10
REMARK    5  A    between atoms: C_12  and  C_13
REMARK                            x       y       z     vdW  Elec       q    Type
REMARK                         _______ _______ _______ _____ _____    ______ ____
ROOT
ATOM      1  C   UNL     1      43.752   4.526  11.456  0.00  0.00    +0.000 C 
ENDROOT
BRANCH   1   2
ATOM      2  C   UNL     1      44.946   5.279  12.002  0.00  0.00    +0.000 A 
ATOM      3  C   UNL     1      45.619   4.836  13.139  0.00  0.00    +0.000 A 
ATOM      4  C   UNL     1      46.692   5.574  13.663  0.00  0.00    +0.000 A 
ATOM      5  C   UNL     1      47.022   6.763  13.000  0.00  0.00    +0.000 A 
ATOM      6  C   UNL     1      46.291   7.150  11.890  0.00  0.00    +0.000 A 
ATOM      7  N   UNL     1      45.264   6.440  11.381  0.00  0.00    +0.000 NA
BRANCH   4   8
ATOM      8  C   UNL     1      47.427   5.113  14.861  0.00  0.00    +0.000 A 
ATOM      9  C   UNL     1      47.134   3.897  15.496  0.00  0.00    +0.000 A 
ATOM     10  C   UNL     1      47.835   3.497  16.634  0.00  0.00    +0.000 A 
ATOM     11  C   UNL     1      48.833   4.324  17.113  0.00  0.00    +0.000 A 
ATOM     12  N   UNL     1      49.163   5.500  16.542  0.00  0.00    +0.000 NA
ATOM     13  C   UNL     1      48.454   5.862  15.444  0.00  0.00    +0.000 A 
ENDBRANCH   4   8
ENDBRANCH   1   2
BRANCH   1  14
ATOM     14  O   UNL     1      43.685   4.594  10.027  0.00  0.00    +0.000 OA
BRANCH  14  18
ATOM     15  C   UNL     1      46.335   2.267   7.798  0.00  0.00    +0.000 A 
ATOM     16  C   UNL     1      45.518   1.633   8.740  0.00  0.00    +0.000 A 
ATOM     17  C   UNL     1      44.619   2.380   9.506  0.00  0.00    +0.000 A 
ATOM     18  C   UNL     1      44.532   3.764   9.344  0.00  0.00    +0.000 A 
ATOM     19  C   UNL     1      45.366   4.398   8.417  0.00  0.00    +0.000 A 
ATOM     20  C   UNL     1      46.270   3.655   7.650  0.00  0.00    +0.000 A 
BRANCH  15  22
ATOM     21  N   UNL     1      48.418   2.149   6.547  0.00  0.00    +0.000 N 
ATOM     22  C   UNL     1      47.289   1.496   6.962  0.00  0.00    +0.000 C 
ATOM     23  O   UNL     1      47.098   0.321   6.681  0.00  0.00    +0.000 OA
ATOM     24  H   UNL     1      49.109   1.590   6.066  0.00  0.00    +0.000 HD
ATOM     25  H   UNL     1      48.726   3.015   6.966  0.00  0.00    +0.000 HD
ENDBRANCH  15  22
ENDBRANCH  14  18
ENDBRANCH   1  14
TORSDOF 5
ENDMDL
MODEL 4
REMARK VINA RESULT:    -7.981      1.762      2.468
REMARK INTER + INTRA:         -11.065
REMARK INTER:                 -10.496
REMARK INTRA:                  -0.570
REMARK UNBOUND:                -0.751
REMARK  Name = 
REMARK  5 active torsions:
REMARK  status: ('A' for Active; 'I' for Inactive)
REMARK    1  A    between atoms: C_2  and  C_4
REMARK    2  A    between atoms: C_7  and  O_8
REMARK    3  A    between atoms: O_8  and  C_9
REMARK    4  A    between atoms: C_9  and  C_10
REMARK    5  A    between atoms: C_12  and  C_13
REMARK                            x       y       z     vdW  Elec       q    Type
REMARK                         _______ _______ _______ _____ _____    ______ ____
ROOT
ATOM      1  C   UNL     1      44.044   3.704  11.693  0.00  0.00    +0.000 C 
ENDROOT
BRANCH   1   2
ATOM      2  C   UNL     1      44.635   5.087  11.853  0.00  0.00    +0.000 A 
ATOM      3  C   UNL     1      45.822   5.287  12.556  0.00  0.00    +0.000 A 
ATOM      4  C   UNL     1      46.330   6.582  12.740  0.00  0.00    +0.000 A 
ATOM      5  C   UNL     1      45.578   7.636  12.205  0.00  0.00    +0.000 A 
ATOM      6  C   UNL     1      44.395   7.360  11.539  0.00  0.00    +0.000 A 
ATOM      7  N   UNL     1      43.909   6.117  11.355  0.00  0.00    +0.000 NA
BRANCH   4   8
ATOM      8  C   UNL     1      47.594   6.813  13.472  0.00  0.00    +0.000 A 
ATOM      9  C   UNL     1      48.521   7.787  13.074  0.00  0.00    +0.000 A 
ATOM     10  C   UNL     1      49.713   7.970  13.776  0.00  0.00    +0.000 A 
ATOM     11  C   UNL     1      49.951   7.176  14.881  0.00  0.00    +0.000 A 
ATOM     12  N   UNL     1      49.096   6.229  15.315  0.00  0.00    +0.000 NA
ATOM     13  C   UNL     1      47.952   6.071  14.602  0.00  0.00    +0.000 A 
ENDBRANCH   4   8
ENDBRANCH   1   2
BRANCH   1  14
ATOM     14  O   UNL     1      43.577   3.473  10.358  0.00  0.00    +0.000 OA
BRANCH  14  18
ATOM     15  C   UNL     1      46.453   2.595   7.467  0.00  0.00    +0.000 A 
ATOM     16  C   UNL     1      46.001   1.563   8.295  0.00  0.00    +0.000 A 
ATOM     17  C   UNL     1      45.039   1.819   9.276  0.00  0.00    +0.000 A 
ATOM     18  C   UNL     1      44.526   3.107   9.442  0.00  0.00    +0.000 A 
ATOM     19  C   UNL     1      44.995   4.142   8.627  0.00  0.00    +0.000 A 
ATOM     20  C   UNL     1      45.961   3.891   7.646  0.00  0.00    +0.000 A 
BRANCH  15  22
ATOM     21  N   UNL     1      47.406   3.145   5.297  0.00  0.00    +0.000 N 
ATOM     22  C   UNL     1      47.464   2.348   6.408  0.00  0.00    +0.000 C 
ATOM     23  O   UNL     1      48.333   1.496   6.531  0.00  0.00    +0.000 OA
ATOM     24  H   UNL     1      48.158   3.040   4.629  0.00  0.00    +0.000 HD
ATOM     25  H   UNL     1      46.881   4.008   5.278  0.00  0.00    +0.000 HD
ENDBRANCH  15  22
ENDBRANCH  14  18
ENDBRANCH   1  14
TORSDOF 5
ENDMDL
MODEL 5
REMARK VINA RESULT:    -7.254      2.907      6.926
REMARK INTER + INTRA:         -10.126
REMARK INTER:                  -9.442
REMARK INTRA:                  -0.684
REMARK UNBOUND:                -0.751
REMARK  Name = 
REMARK  5 active torsions:
REMARK  status: ('A' for Active; 'I' for Inactive)
REMARK    1  A    between atoms: C_2  and  C_4
REMARK    2  A    between atoms: C_7  and  O_8
REMARK    3  A    between atoms: O_8  and  C_9
REMARK    4  A    between atoms: C_9  and  C_10
REMARK    5  A    between atoms: C_12  and  C_13
REMARK                            x       y       z     vdW  Elec       q    Type
REMARK                         _______ _______ _______ _____ _____    ______ ____
ROOT
ATOM      1  C   UNL     1      44.525   6.505  11.311  0.00  0.00    +0.000 C 
ENDROOT
BRANCH   1   2
ATOM      2  C   UNL     1      44.481   5.058  10.872  0.00  0.00    +0.000 A 
ATOM      3  C   UNL     1      45.206   4.617   9.767  0.00  0.00    +0.000 A 
ATOM      4  C   UNL     1      45.115   3.283   9.342  0.00  0.00    +0.000 A 
ATOM      5  C   UNL     1      44.254   2.448  10.066  0.00  0.00    +0.000 A 
ATOM      6  C   UNL     1      43.546   2.965  11.139  0.00  0.00    +0.000 A 
ATOM      7  N   UNL     1      43.638   4.245  11.553  0.00  0.00    +0.000 NA
BRANCH   4   8
ATOM      8  C   UNL     1      45.887   2.794   8.179  0.00  0.00    +0.000 A 
ATOM      9  C   UNL     1      46.166   3.607   7.071  0.00  0.00    +0.000 A 
ATOM     10  C   UNL     1      46.884   3.111   5.982  0.00  0.00    +0.000 A 
ATOM     11  C   UNL     1      47.324   1.802   6.028  0.00  0.00    +0.000 A 
ATOM     12  N   UNL     1      47.091   0.976   7.067  0.00  0.00    +0.000 NA
ATOM     13  C   UNL     1      46.381   1.488   8.104  0.00  0.00    +0.000 A 
ENDBRANCH   4   8
ENDBRANCH   1   2
BRANCH   1  14
ATOM     14  O   UNL     1      45.205   6.665  12.561  0.00  0.00    +0.000 OA
BRANCH  14  18
ATOM     15  C   UNL     1      49.205   7.845  12.471  0.00  0.00    +0.000 A 
ATOM     16  C   UNL     1      48.231   8.750  12.038  0.00  0.00    +0.000 A 
ATOM     17  C   UNL     1      46.881   8.390  12.053  0.00  0.00    +0.000 A 
ATOM     18  C   UNL     1      46.493   7.123  12.493  0.00  0.00    +0.000 A 
ATOM     19  C   UNL     1      47.471   6.212  12.905  0.00  0.00    +0.000 A 
ATOM     20  C   UNL     1      48.824   6.566  12.888  0.00  0.00    +0.000 A 
BRANCH  15  22
ATOM     21  N   UNL     1      51.418   7.696  11.471  0.00  0.00    +0.000 N 
ATOM     22  C   UNL     1      50.645   8.206  12.479  0.00  0.00    +0.000 C 
ATOM     23  O   UNL     1      51.119   8.953  13.324  0.00  0.00    +0.000 OA
ATOM     24  H   UNL     1      52.372   8.028  11.424  0.00  0.00    +0.000 HD
ATOM     25  H   UNL     1      51.020   7.300  10.632  0.00  0.00    +0.000 HD
ENDBRANCH  15  22
ENDBRANCH  14  18
ENDBRANCH   1  14
TORSDOF 5
ENDMDL
MODEL 6
REMARK VINA RESULT:    -6.847      1.937      2.780
REMARK INTER + INTRA:          -9.600
REMARK INTER:                  -8.997
REMARK INTRA:                  -0.602
REMARK UNBOUND:                -0.751
REMARK  Name = 
REMARK  5 active torsions:
REMARK  status: ('A' for Active; 'I' for Inactive)
REMARK    1  A    between atoms: C_2  and  C_4
REMARK    2  A    between atoms: C_7  and  O_8
REMARK    3  A    between atoms: O_8  and  C_9
REMARK    4  A    between atoms: C_9  and  C_10
REMARK    5  A    between atoms: C_12  and  C_13
REMARK                            x       y       z     vdW  Elec       q    Type
REMARK                         _______ _______ _______ _____ _____    ______ ____
ROOT
ATOM      1  C   UNL     1      45.169   4.602  11.884  0.00  0.00    +0.000 C 
ENDROOT
BRANCH   1   2
ATOM      2  C   UNL     1      45.550   6.065  11.943  0.00  0.00    +0.000 A 
ATOM      3  C   UNL     1      46.873   6.472  11.775  0.00  0.00    +0.000 A 
ATOM      4  C   UNL     1      47.219   7.828  11.885  0.00  0.00    +0.000 A 
ATOM      5  C   UNL     1      46.183   8.721  12.188  0.00  0.00    +0.000 A 
ATOM      6  C   UNL     1      44.897   8.237  12.365  0.00  0.00    +0.000 A 
ATOM      7  N   UNL     1      44.561   6.937  12.253  0.00  0.00    +0.000 NA
BRANCH   4   8
ATOM      8  C   UNL     1      48.614   8.281  11.697  0.00  0.00    +0.000 A 
ATOM      9  C   UNL     1      48.985   9.629  11.812  0.00  0.00    +0.000 A 
ATOM     10  C   UNL     1      50.307  10.027  11.612  0.00  0.00    +0.000 A 
ATOM     11  C   UNL     1      51.245   9.058  11.311  0.00  0.00    +0.000 A 
ATOM     12  N   UNL     1      50.950   7.749  11.194  0.00  0.00    +0.000 NA
ATOM     13  C   UNL     1      49.652   7.399  11.383  0.00  0.00    +0.000 A 
ENDBRANCH   4   8
ENDBRANCH   1   2
BRANCH   1  14
ATOM     14  O   UNL     1      44.395   4.299  10.717  0.00  0.00    +0.000 OA
BRANCH  14  18
ATOM     15  C   UNL     1      46.537   3.042   7.364  0.00  0.00    +0.000 A 
ATOM     16  C   UNL     1      45.985   2.072   8.208  0.00  0.00    +0.000 A 
ATOM     17  C   UNL     1      45.262   2.455   9.341  0.00  0.00    +0.000 A 
ATOM     18  C   UNL     1      45.090   3.807   9.645  0.00  0.00    +0.000 A 
ATOM     19  C   UNL     1      45.662   4.774   8.812  0.00  0.00    +0.000 A 
ATOM     20  C   UNL     1      46.389   4.395   7.679  0.00  0.00    +0.000 A 
BRANCH  15  22
ATOM     21  N   UNL     1      48.624   2.369   6.311  0.00  0.00    +0.000 N 
ATOM     22  C   UNL     1      47.298   2.663   6.147  0.00  0.00    +0.000 C 
ATOM     23  O   UNL     1      46.762   2.581   5.050  0.00  0.00    +0.000 OA
ATOM     24  H   UNL     1      49.110   2.014   5.499  0.00  0.00    +0.000 HD
ATOM     25  H   UNL     1      49.027   2.177   7.217  0.00  0.00    +0.000 HD
ENDBRANCH  15  22
ENDBRANCH  14  18
ENDBRANCH   1  14
TORSDOF 5
ENDMDL
MODEL 7
REMARK VINA RESULT:    -6.845      2.584      6.932
REMARK INTER + INTRA:          -9.597
REMARK INTER:                  -8.929
REMARK INTRA:                  -0.668
REMARK UNBOUND:                -0.751
REMARK  Name = 
REMARK  5 active torsions:
REMARK  status: ('A' for Active; 'I' for Inactive)
REMARK    1  A    between atoms: C_2  and  C_4
REMARK    2  A    between atoms: C_7  and  O_8
REMARK    3  A    between atoms: O_8  and  C_9
REMARK    4  A    between atoms: C_9  and  C_10
REMARK    5  A    between atoms: C_12  and  C_13
REMARK                            x       y       z     vdW  Elec       q    Type
REMARK                         _______ _______ _______ _____ _____    ______ ____
ROOT
ATOM      1  C   UNL     1      44.625   6.084  12.769  0.00  0.00    +0.000 C 
ENDROOT
BRANCH   1   2
ATOM      2  C   UNL     1      44.431   4.790  12.011  0.00  0.00    +0.000 A 
ATOM      3  C   UNL     1      45.097   4.551  10.809  0.00  0.00    +0.000 A 
ATOM      4  C   UNL     1      44.866   3.368  10.092  0.00  0.00    +0.000 A 
ATOM      5  C   UNL     1      43.933   2.474  10.632  0.00  0.00    +0.000 A 
ATOM      6  C   UNL     1      43.293   2.792  11.819  0.00  0.00    +0.000 A 
ATOM      7  N   UNL     1      43.517   3.925  12.513  0.00  0.00    +0.000 NA
BRANCH   4   8
ATOM      8  C   UNL     1      45.574   3.090   8.823  0.00  0.00    +0.000 A 
ATOM      9  C   UNL     1      45.995   1.800   8.468  0.00  0.00    +0.000 A 
ATOM     10  C   UNL     1      46.675   1.573   7.271  0.00  0.00    +0.000 A 
ATOM     11  C   UNL     1      46.911   2.650   6.437  0.00  0.00    +0.000 A 
ATOM     12  N   UNL     1      46.525   3.909   6.722  0.00  0.00    +0.000 NA
ATOM     13  C   UNL     1      45.877   4.095   7.899  0.00  0.00    +0.000 A 
ENDBRANCH   4   8
ENDBRANCH   1   2
BRANCH   1  14
ATOM     14  O   UNL     1      45.973   6.237  13.229  0.00  0.00    +0.000 OA
BRANCH  14  18
ATOM     15  C   UNL     1      48.185   9.499  11.861  0.00  0.00    +0.000 A 
ATOM     16  C   UNL     1      46.951   9.738  12.474  0.00  0.00    +0.000 A 
ATOM     17  C   UNL     1      46.181   8.670  12.945  0.00  0.00    +0.000 A 
ATOM     18  C   UNL     1      46.633   7.357  12.800  0.00  0.00    +0.000 A 
ATOM     19  C   UNL     1      47.857   7.119  12.166  0.00  0.00    +0.000 A 
ATOM     20  C   UNL     1      48.629   8.184  11.691  0.00  0.00    +0.000 A 
BRANCH  15  22
ATOM     21  N   UNL     1      50.058  11.020  12.171  0.00  0.00    +0.000 N 
ATOM     22  C   UNL     1      49.029  10.615  11.365  0.00  0.00    +0.000 C 
ATOM     23  O   UNL     1      48.842  11.130  10.271  0.00  0.00    +0.000 OA
ATOM     24  H   UNL     1      50.689  11.708  11.783  0.00  0.00    +0.000 HD
ATOM     25  H   UNL     1      50.394  10.460  12.941  0.00  0.00    +0.000 HD
ENDBRANCH  15  22
ENDBRANCH  14  18
ENDBRANCH   1  14
TORSDOF 5
ENDMDL
MODEL 8
REMARK VINA RESULT:    -6.776      3.461      7.626
REMARK INTER + INTRA:          -9.508
REMARK INTER:                  -8.907
REMARK INTRA:                  -0.601
REMARK UNBOUND:                -0.751
REMARK  Name = 
REMARK  5 active torsions:
REMARK  status: ('A' for Active; 'I' for Inactive)
REMARK    1  A    between atoms: C_2  and  C_4
REMARK    2  A    between atoms: C_7  and  O_8
REMARK    3  A    between atoms: O_8  and  C_9
REMARK    4  A    between atoms: C_9  and  C_10
REMARK    5  A    between atoms: C_12  and  C_13
REMARK                            x       y       z     vdW  Elec       q    Type
REMARK                         _______ _______ _______ _____ _____    ______ ____
ROOT
ATOM      1  C   UNL     1      45.892   6.757  12.906  0.00  0.00    +0.000 C 
ENDROOT
BRANCH   1   2
ATOM      2  C   UNL     1      45.064   5.906  11.968  0.00  0.00    +0.000 A 
ATOM      3  C   UNL     1      45.667   5.112  10.993  0.00  0.00    +0.000 A 
ATOM      4  C   UNL     1      44.883   4.369  10.097  0.00  0.00    +0.000 A 
ATOM      5  C   UNL     1      43.493   4.488  10.226  0.00  0.00    +0.000 A 
ATOM      6  C   UNL     1      42.968   5.316  11.204  0.00  0.00    +0.000 A 
ATOM      7  N   UNL     1      43.719   6.026  12.071  0.00  0.00    +0.000 NA
BRANCH   4   8
ATOM      8  C   UNL     1      45.504   3.511   9.065  0.00  0.00    +0.000 A 
ATOM      9  C   UNL     1      46.095   4.041   7.908  0.00  0.00    +0.000 A 
ATOM     10  C   UNL     1      46.659   3.204   6.945  0.00  0.00    +0.000 A 
ATOM     11  C   UNL     1      46.632   1.840   7.165  0.00  0.00    +0.000 A 
ATOM     12  N   UNL     1      46.084   1.274   8.259  0.00  0.00    +0.000 NA
ATOM     13  C   UNL     1      45.535   2.117   9.169  0.00  0.00    +0.000 A 
ENDBRANCH   4   8
ENDBRANCH   1   2
BRANCH   1  14
ATOM     14  O   UNL     1      47.214   6.234  13.076  0.00  0.00    +0.000 OA
BRANCH  14  18
ATOM     15  C   UNL     1      48.171   4.573  16.781  0.00  0.00    +0.000 A 
ATOM     16  C   UNL     1      47.323   3.860  15.928  0.00  0.00    +0.000 A 
ATOM     17  C   UNL     1      46.979   4.385  14.679  0.00  0.00    +0.000 A 
ATOM     18  C   UNL     1      47.473   5.627  14.275  0.00  0.00    +0.000 A 
ATOM     19  C   UNL     1      48.304   6.348  15.139  0.00  0.00    +0.000 A 
ATOM     20  C   UNL     1      48.648   5.828  16.391  0.00  0.00    +0.000 A 
BRANCH  15  22
ATOM     21  N   UNL     1      47.995   4.615  19.207  0.00  0.00    +0.000 N 
ATOM     22  C   UNL     1      48.564   4.033  18.107  0.00  0.00    +0.000 C 
ATOM     23  O   UNL     1      49.333   3.088  18.218  0.00  0.00    +0.000 OA
ATOM     24  H   UNL     1      48.187   4.177  20.098  0.00  0.00    +0.000 HD
ATOM     25  H   UNL     1      47.179   5.207  19.144  0.00  0.00    +0.000 HD
ENDBRANCH  15  22
ENDBRANCH  14  18
ENDBRANCH   1  14
TORSDOF 5
ENDMDL
MODEL 9
REMARK VINA RESULT:    -6.610      4.176      8.306
REMARK INTER + INTRA:          -9.293
REMARK INTER:                  -8.878
REMARK INTRA:                  -0.415
REMARK UNBOUND:                -0.751
REMARK  Name = 
REMARK  5 active torsions:
REMARK  status: ('A' for Active; 'I' for Inactive)
REMARK    1  A    between atoms: C_2  and  C_4
REMARK    2  A    between atoms: C_7  and  O_8
REMARK    3  A    between atoms: O_8  and  C_9
REMARK    4  A    between atoms: C_9  and  C_10
REMARK    5  A    between atoms: C_12  and  C_13
REMARK                            x       y       z     vdW  Elec       q    Type
REMARK                         _______ _______ _______ _____ _____    ______ ____
ROOT
ATOM      1  C   UNL     1      46.022   4.801  14.105  0.00  0.00    +0.000 C 
ENDROOT
BRANCH   1   2
ATOM      2  C   UNL     1      45.191   4.226  12.980  0.00  0.00    +0.000 A 
ATOM      3  C   UNL     1      45.724   4.055  11.704  0.00  0.00    +0.000 A 
ATOM      4  C   UNL     1      44.925   3.568  10.658  0.00  0.00    +0.000 A 
ATOM      5  C   UNL     1      43.586   3.292  10.964  0.00  0.00    +0.000 A 
ATOM      6  C   UNL     1      43.122   3.511  12.251  0.00  0.00    +0.000 A 
ATOM      7  N   UNL     1      43.890   3.972  13.258  0.00  0.00    +0.000 NA
BRANCH   4   8
ATOM      8  C   UNL     1      45.476   3.367   9.301  0.00  0.00    +0.000 A 
ATOM      9  C   UNL     1      45.719   2.089   8.774  0.00  0.00    +0.000 A 
ATOM     10  C   UNL     1      46.256   1.933   7.496  0.00  0.00    +0.000 A 
ATOM     11  C   UNL     1      46.530   3.068   6.756  0.00  0.00    +0.000 A 
ATOM     12  N   UNL     1      46.312   4.319   7.207  0.00  0.00    +0.000 NA
ATOM     13  C   UNL     1      45.800   4.434   8.458  0.00  0.00    +0.000 A 
ENDBRANCH   4   8
ENDBRANCH   1   2
BRANCH   1  14
ATOM     14  O   UNL     1      46.978   3.856  14.601  0.00  0.00    +0.000 OA
BRANCH  14  18
ATOM     15  C   UNL     1      48.595   4.506  18.392  0.00  0.00    +0.000 A 
ATOM     16  C   UNL     1      48.625   5.552  17.464  0.00  0.00    +0.000 A 
ATOM     17  C   UNL     1      48.093   5.371  16.184  0.00  0.00    +0.000 A 
ATOM     18  C   UNL     1      47.535   4.145  15.817  0.00  0.00    +0.000 A 
ATOM     19  C   UNL     1      47.527   3.094  16.740  0.00  0.00    +0.000 A 
ATOM     20  C   UNL     1      48.061   3.268  18.021  0.00  0.00    +0.000 A 
BRANCH  15  22
ATOM     21  N   UNL     1      48.293   4.406  20.803  0.00  0.00    +0.000 N 
ATOM     22  C   UNL     1      49.140   4.675  19.762  0.00  0.00    +0.000 C 
ATOM     23  O   UNL     1      50.302   5.004  19.960  0.00  0.00    +0.000 OA
ATOM     24  H   UNL     1      48.700   4.424  21.729  0.00  0.00    +0.000 HD
ATOM     25  H   UNL     1      47.432   3.893  20.681  0.00  0.00    +0.000 HD
ENDBRANCH  15  22
ENDBRANCH  14  18
ENDBRANCH   1  14
TORSDOF 5
ENDMDL
