MODEL 1
REMARK VINA RESULT:    -7.690      0.000      0.000
REMARK INTER + INTRA:         -10.317
REMARK INTER:                  -9.938
REMARK INTRA:                  -0.378
REMARK UNBOUND:                -0.378
REMARK  Name = 
REMARK  9 active torsions:
REMARK  status: ('A' for Active; 'I' for Inactive)
REMARK    1  A    between atoms: C_1  and  C_2
REMARK    2  A    between atoms: C_2  and  C_3
REMARK    3  A    between atoms: C_2  and  C_4
REMARK    4  A    between atoms: C_2  and  C_5
REMARK    5  A    between atoms: N_8  and  C_9
REMARK    6  A    between atoms: C_9  and  C_10
REMARK    7  A    between atoms: C_13  and  S_14
REMARK    8  A    between atoms: S_14  and  C_15
REMARK    9  A    between atoms: C_24  and  C_25
REMARK                            x       y       z     vdW  Elec       q    Type
REMARK                         _______ _______ _______ _____ _____    ______ ____
ROOT
ATOM      1  C   UNL     1      47.798   7.126  13.312  0.00  0.00    +0.000 A 
ATOM      2  N   UNL     1      46.800   6.955  12.389  0.00  0.00    +0.000 NA
ATOM      3  C   UNL     1      45.914   5.954  12.503  0.00  0.00    +0.000 A 
ATOM      4  N   UNL     1      44.883   5.949  11.562  0.00  0.00    +0.000 N 
ATOM      5  N   UNL     1      45.967   5.057  13.485  0.00  0.00    +0.000 NA
ATOM      6  C   UNL     1      46.931   5.245  14.411  0.00  0.00    +0.000 A 
ATOM      7  C   UNL     1      47.855   6.281  14.419  0.00  0.00    +0.000 A 
ATOM      8  H   UNL     1      45.145   6.626  10.854  0.00  0.00    +0.000 HD
ENDROOT
BRANCH   7   9
ATOM      9  C   UNL     1      48.781   6.362  15.581  0.00  0.00    +0.000 C 
ATOM     10  N   UNL     1      48.229   6.546  16.823  0.00  0.00    +0.000 N 
ATOM     11  O   UNL     1      49.996   6.281  15.498  0.00  0.00    +0.000 OA
ATOM     12  H   UNL     1      47.279   6.850  16.991  0.00  0.00    +0.000 HD
ATOM     13  H   UNL     1      48.886   6.646  17.589  0.00  0.00    +0.000 HD
ENDBRANCH   7   9
BRANCH   1  15
ATOM     14  C   UNL     1      48.186   9.126  11.779  0.00  0.00    +0.000 C 
ATOM     15  C   UNL     1      48.723   8.322  13.007  0.00  0.00    +0.000 C 
ATOM     16  C   UNL     1      50.151   7.910  12.587  0.00  0.00    +0.000 C 
ATOM     17  C   UNL     1      48.749   9.320  14.182  0.00  0.00    +0.000 C 
ENDBRANCH   1  15
BRANCH   4  18
ATOM     18  C   UNL     1      44.234   4.709  11.115  0.00  0.00    +0.000 C 
ATOM     19  C   UNL     1      42.709   4.731  11.080  0.00  0.00    +0.000 C 
ATOM     20  C   UNL     1      43.413   3.844  12.053  0.00  0.00    +0.000 C 
BRANCH  18  21
ATOM     21  C   UNL     1      44.959   3.998   9.973  0.00  0.00    +0.000 A 
ATOM     22  C   UNL     1      45.623   4.727   8.968  0.00  0.00    +0.000 A 
ATOM     23  C   UNL     1      46.330   4.090   7.942  0.00  0.00    +0.000 A 
ATOM     24  C   UNL     1      46.393   2.699   7.914  0.00  0.00    +0.000 A 
ATOM     25  C   UNL     1      45.708   1.943   8.867  0.00  0.00    +0.000 A 
ATOM     26  C   UNL     1      44.997   2.593   9.881  0.00  0.00    +0.000 A 
BRANCH  24  27
ATOM     27  S   UNL     1      47.297   1.879   6.625  0.00  0.00    +0.000 S 
ATOM     28  C   UNL     1      46.720   2.663   5.139  0.00  0.00    +0.000 C 
ATOM     29  O   UNL     1      48.698   2.214   6.790  0.00  0.00    +0.000 OA
ATOM     30  O   UNL     1      46.862   0.496   6.599  0.00  0.00    +0.000 OA
ENDBRANCH  24  27
ENDBRANCH  18  21
ENDBRANCH   4  18
TORSDOF 5
ENDMDL
MODEL 2
REMARK VINA RESULT:    -6.329      4.085      6.145
REMARK INTER + INTRA:          -8.558
REMARK INTER:                  -7.909
REMARK INTRA:                  -0.648
REMARK UNBOUND:                -0.378
REMARK  Name = 
REMARK  9 active torsions:
REMARK  status: ('A' for Active; 'I' for Inactive)
REMARK    1  A    between atoms: C_1  and  C_2
REMARK    2  A    between atoms: C_2  and  C_3
REMARK    3  A    between atoms: C_2  and  C_4
REMARK    4  A    between atoms: C_2  and  C_5
REMARK    5  A    between atoms: N_8  and  C_9
REMARK    6  A    between atoms: C_9  and  C_10
REMARK    7  A    between atoms: C_13  and  S_14
REMARK    8  A    between atoms: S_14  and  C_15
REMARK    9  A    between atoms: C_24  and  C_25
REMARK                            x       y       z     vdW  Elec       q    Type
REMARK                         _______ _______ _______ _____ _____    ______ ____
ROOT
ATOM      1  C   UNL     1      49.397   6.046  17.595  0.00  0.00    +0.000 A 
ATOM      2  N   UNL     1      49.550   5.951  16.237  0.00  0.00    +0.000 NA
ATOM      3  C   UNL     1      49.217   6.969  15.429  0.00  0.00    +0.000 A 
ATOM      4  N   UNL     1      49.518   6.792  14.078  0.00  0.00    +0.000 N 
ATOM      5  N   UNL     1      48.694   8.106  15.884  0.00  0.00    +0.000 NA
ATOM      6  C   UNL     1      48.574   8.210  17.224  0.00  0.00    +0.000 A 
ATOM      7  C   UNL     1      48.945   7.242  18.148  0.00  0.00    +0.000 A 
ATOM      8  H   UNL     1      49.764   5.814  13.970  0.00  0.00    +0.000 HD
ENDROOT
BRANCH   7   9
ATOM      9  C   UNL     1      48.814   7.588  19.589  0.00  0.00    +0.000 C 
ATOM     10  N   UNL     1      47.554   7.582  20.134  0.00  0.00    +0.000 N 
ATOM     11  O   UNL     1      49.751   7.883  20.313  0.00  0.00    +0.000 OA
ATOM     12  H   UNL     1      46.697   7.579  19.600  0.00  0.00    +0.000 HD
ATOM     13  H   UNL     1      47.491   7.869  21.105  0.00  0.00    +0.000 HD
ENDBRANCH   7   9
BRANCH   1  15
ATOM     14  C   UNL     1      49.994   3.579  17.362  0.00  0.00    +0.000 C 
ATOM     15  C   UNL     1      49.822   4.773  18.355  0.00  0.00    +0.000 C 
ATOM     16  C   UNL     1      48.765   4.270  19.362  0.00  0.00    +0.000 C 
ATOM     17  C   UNL     1      51.196   4.959  19.028  0.00  0.00    +0.000 C 
ENDBRANCH   1  15
BRANCH   4  18
ATOM     18  C   UNL     1      48.730   7.420  13.007  0.00  0.00    +0.000 C 
ATOM     19  C   UNL     1      49.504   7.816  11.755  0.00  0.00    +0.000 C 
ATOM     20  C   UNL     1      48.909   8.877  12.622  0.00  0.00    +0.000 C 
BRANCH  18  21
ATOM     21  C   UNL     1      47.337   6.819  12.819  0.00  0.00    +0.000 A 
ATOM     22  C   UNL     1      47.113   5.439  12.982  0.00  0.00    +0.000 A 
ATOM     23  C   UNL     1      45.836   4.881  12.859  0.00  0.00    +0.000 A 
ATOM     24  C   UNL     1      44.751   5.708  12.580  0.00  0.00    +0.000 A 
ATOM     25  C   UNL     1      44.943   7.074  12.366  0.00  0.00    +0.000 A 
ATOM     26  C   UNL     1      46.226   7.617  12.483  0.00  0.00    +0.000 A 
BRANCH  24  27
ATOM     27  S   UNL     1      43.123   5.015  12.433  0.00  0.00    +0.000 S 
ATOM     28  C   UNL     1      43.385   3.511  11.526  0.00  0.00    +0.000 C 
ATOM     29  O   UNL     1      42.676   4.660  13.765  0.00  0.00    +0.000 OA
ATOM     30  O   UNL     1      42.342   5.909  11.600  0.00  0.00    +0.000 OA
ENDBRANCH  24  27
ENDBRANCH  18  21
ENDBRANCH   4  18
TORSDOF 5
ENDMDL
MODEL 3
REMARK VINA RESULT:    -6.085      4.391      8.294
REMARK INTER + INTRA:          -8.242
REMARK INTER:                  -8.539
REMARK INTRA:                   0.297
REMARK UNBOUND:                -0.378
REMARK  Name = 
REMARK  9 active torsions:
REMARK  status: ('A' for Active; 'I' for Inactive)
REMARK    1  A    between atoms: C_1  and  C_2
REMARK    2  A    between atoms: C_2  and  C_3
REMARK    3  A    between atoms: C_2  and  C_4
REMARK    4  A    between atoms: C_2  and  C_5
REMARK    5  A    between atoms: N_8  and  C_9
REMARK    6  A    between atoms: C_9  and  C_10
REMARK    7  A    between atoms: C_13  and  S_14
REMARK    8  A    between atoms: S_14  and  C_15
REMARK    9  A    between atoms: C_24  and  C_25
REMARK                            x       y       z     vdW  Elec       q    Type
REMARK                         _______ _______ _______ _____ _____    ______ ____
ROOT
ATOM      1  C   UNL     1      46.034   5.347  12.978  0.00  0.00    +0.000 A 
ATOM      2  N   UNL     1      46.843   5.871  13.951  0.00  0.00    +0.000 NA
ATOM      3  C   UNL     1      47.403   5.086  14.885  0.00  0.00    +0.000 A 
ATOM      4  N   UNL     1      48.291   5.721  15.755  0.00  0.00    +0.000 N 
ATOM      5  N   UNL     1      47.185   3.774  14.946  0.00  0.00    +0.000 NA
ATOM      6  C   UNL     1      46.413   3.254  13.968  0.00  0.00    +0.000 A 
ATOM      7  C   UNL     1      45.839   3.968  12.924  0.00  0.00    +0.000 A 
ATOM      8  H   UNL     1      48.173   6.716  15.602  0.00  0.00    +0.000 HD
ENDROOT
BRANCH   7   9
ATOM      9  C   UNL     1      45.095   3.192  11.895  0.00  0.00    +0.000 C 
ATOM     10  N   UNL     1      43.966   2.522  12.296  0.00  0.00    +0.000 N 
ATOM     11  O   UNL     1      45.427   3.109  10.724  0.00  0.00    +0.000 OA
ATOM     12  H   UNL     1      43.722   2.330  13.257  0.00  0.00    +0.000 HD
ATOM     13  H   UNL     1      43.508   1.963  11.584  0.00  0.00    +0.000 HD
ENDBRANCH   7   9
BRANCH   1  15
ATOM     14  C   UNL     1      45.660   7.839  12.593  0.00  0.00    +0.000 C 
ATOM     15  C   UNL     1      45.476   6.403  12.003  0.00  0.00    +0.000 C 
ATOM     16  C   UNL     1      43.954   6.289  11.772  0.00  0.00    +0.000 C 
ATOM     17  C   UNL     1      46.250   6.395  10.671  0.00  0.00    +0.000 C 
ENDBRANCH   1  15
BRANCH   4  18
ATOM     18  C   UNL     1      48.502   5.263  17.136  0.00  0.00    +0.000 C 
ATOM     19  C   UNL     1      47.241   4.915  17.920  0.00  0.00    +0.000 C 
ATOM     20  C   UNL     1      48.068   6.087  18.334  0.00  0.00    +0.000 C 
BRANCH  18  21
ATOM     21  C   UNL     1      49.722   4.362  17.319  0.00  0.00    +0.000 A 
ATOM     22  C   UNL     1      50.983   4.902  17.640  0.00  0.00    +0.000 A 
ATOM     23  C   UNL     1      52.099   4.088  17.857  0.00  0.00    +0.000 A 
ATOM     24  C   UNL     1      51.966   2.705  17.766  0.00  0.00    +0.000 A 
ATOM     25  C   UNL     1      50.743   2.136  17.404  0.00  0.00    +0.000 A 
ATOM     26  C   UNL     1      49.638   2.963  17.181  0.00  0.00    +0.000 A 
BRANCH  24  27
ATOM     27  S   UNL     1      53.372   1.658  18.051  0.00  0.00    +0.000 S 
ATOM     28  C   UNL     1      54.164   2.390  19.462  0.00  0.00    +0.000 C 
ATOM     29  O   UNL     1      52.875   0.355  18.446  0.00  0.00    +0.000 OA
ATOM     30  O   UNL     1      54.261   1.803  16.914  0.00  0.00    +0.000 OA
ENDBRANCH  24  27
ENDBRANCH  18  21
ENDBRANCH   4  18
TORSDOF 5
ENDMDL
MODEL 4
REMARK VINA RESULT:    -5.663      3.572      5.785
REMARK INTER + INTRA:          -7.696
REMARK INTER:                  -7.963
REMARK INTRA:                   0.267
REMARK UNBOUND:                -0.378
REMARK  Name = 
REMARK  9 active torsions:
REMARK  status: ('A' for Active; 'I' for Inactive)
REMARK    1  A    between atoms: C_1  and  C_2
REMARK    2  A    between atoms: C_2  and  C_3
REMARK    3  A    between atoms: C_2  and  C_4
REMARK    4  A    between atoms: C_2  and  C_5
REMARK    5  A    between atoms: N_8  and  C_9
REMARK    6  A    between atoms: C_9  and  C_10
REMARK    7  A    between atoms: C_13  and  S_14
REMARK    8  A    between atoms: S_14  and  C_15
REMARK    9  A    between atoms: C_24  and  C_25
REMARK                            x       y       z     vdW  Elec       q    Type
REMARK                         _______ _______ _______ _____ _____    ______ ____
ROOT
ATOM      1  C   UNL     1      49.185   7.074  18.348  0.00  0.00    +0.000 A 
ATOM      2  N   UNL     1      48.727   7.759  17.253  0.00  0.00    +0.000 NA
ATOM      3  C   UNL     1      48.463   7.127  16.099  0.00  0.00    +0.000 A 
ATOM      4  N   UNL     1      47.902   7.915  15.093  0.00  0.00    +0.000 N 
ATOM      5  N   UNL     1      48.656   5.820  15.936  0.00  0.00    +0.000 NA
ATOM      6  C   UNL     1      49.076   5.141  17.024  0.00  0.00    +0.000 A 
ATOM      7  C   UNL     1      49.319   5.689  18.278  0.00  0.00    +0.000 A 
ATOM      8  H   UNL     1      47.993   8.875  15.403  0.00  0.00    +0.000 HD
ENDROOT
BRANCH   7   9
ATOM      9  C   UNL     1      49.690   4.752  19.372  0.00  0.00    +0.000 C 
ATOM     10  N   UNL     1      48.687   4.008  19.941  0.00  0.00    +0.000 N 
ATOM     11  O   UNL     1      50.825   4.608  19.798  0.00  0.00    +0.000 OA
ATOM     12  H   UNL     1      47.700   4.198  19.837  0.00  0.00    +0.000 HD
ATOM     13  H   UNL     1      48.963   3.415  20.717  0.00  0.00    +0.000 HD
ENDBRANCH   7   9
BRANCH   1  15
ATOM     14  C   UNL     1      49.108   9.461  19.239  0.00  0.00    +0.000 C 
ATOM     15  C   UNL     1      49.442   7.971  19.575  0.00  0.00    +0.000 C 
ATOM     16  C   UNL     1      50.921   8.011  20.014  0.00  0.00    +0.000 C 
ATOM     17  C   UNL     1      48.517   7.589  20.748  0.00  0.00    +0.000 C 
ENDBRANCH   1  15
BRANCH   4  18
ATOM     18  C   UNL     1      48.116   7.635  13.666  0.00  0.00    +0.000 C 
ATOM     19  C   UNL     1      49.543   7.276  13.264  0.00  0.00    +0.000 C 
ATOM     20  C   UNL     1      48.939   8.552  12.779  0.00  0.00    +0.000 C 
BRANCH  18  21
ATOM     21  C   UNL     1      46.977   6.866  12.999  0.00  0.00    +0.000 A 
ATOM     22  C   UNL     1      46.785   5.493  13.245  0.00  0.00    +0.000 A 
ATOM     23  C   UNL     1      45.719   4.786  12.680  0.00  0.00    +0.000 A 
ATOM     24  C   UNL     1      44.813   5.452  11.859  0.00  0.00    +0.000 A 
ATOM     25  C   UNL     1      44.998   6.802  11.555  0.00  0.00    +0.000 A 
ATOM     26  C   UNL     1      46.073   7.495  12.120  0.00  0.00    +0.000 A 
BRANCH  24  27
ATOM     27  S   UNL     1      43.448   4.569  11.144  0.00  0.00    +0.000 S 
ATOM     28  C   UNL     1      43.500   2.988  11.950  0.00  0.00    +0.000 C 
ATOM     29  O   UNL     1      42.230   5.239  11.554  0.00  0.00    +0.000 OA
ATOM     30  O   UNL     1      43.748   4.365   9.740  0.00  0.00    +0.000 OA
ENDBRANCH  24  27
ENDBRANCH  18  21
ENDBRANCH   4  18
TORSDOF 5
ENDMDL
MODEL 5
REMARK VINA RESULT:    -5.599      4.485      8.495
REMARK INTER + INTRA:          -7.614
REMARK INTER:                  -7.994
REMARK INTRA:                   0.379
REMARK UNBOUND:                -0.378
REMARK  Name = 
REMARK  9 active torsions:
REMARK  status: ('A' for Active; 'I' for Inactive)
REMARK    1  A    between atoms: C_1  and  C_2
REMARK    2  A    between atoms: C_2  and  C_3
REMARK    3  A    between atoms: C_2  and  C_4
REMARK    4  A    between atoms: C_2  and  C_5
REMARK    5  A    between atoms: N_8  and  C_9
REMARK    6  A    between atoms: C_9  and  C_10
REMARK    7  A    between atoms: C_13  and  S_14
REMARK    8  A    between atoms: S_14  and  C_15
REMARK    9  A    between atoms: C_24  and  C_25
REMARK                            x       y       z     vdW  Elec       q    Type
REMARK                         _______ _______ _______ _____ _____    ______ ____
ROOT
ATOM      1  C   UNL     1      46.752   6.179  13.289  0.00  0.00    +0.000 A 
ATOM      2  N   UNL     1      47.810   6.717  13.973  0.00  0.00    +0.000 NA
ATOM      3  C   UNL     1      48.327   6.101  15.047  0.00  0.00    +0.000 A 
ATOM      4  N   UNL     1      49.468   6.692  15.592  0.00  0.00    +0.000 N 
ATOM      5  N   UNL     1      47.832   4.964  15.531  0.00  0.00    +0.000 NA
ATOM      6  C   UNL     1      46.810   4.419  14.838  0.00  0.00    +0.000 A 
ATOM      7  C   UNL     1      46.244   4.942  13.682  0.00  0.00    +0.000 A 
ATOM      8  H   UNL     1      49.554   7.600  15.151  0.00  0.00    +0.000 HD
ENDROOT
BRANCH   7   9
ATOM      9  C   UNL     1      45.183   4.139  13.018  0.00  0.00    +0.000 C 
ATOM     10  N   UNL     1      45.530   2.905  12.528  0.00  0.00    +0.000 N 
ATOM     11  O   UNL     1      44.029   4.510  12.875  0.00  0.00    +0.000 OA
ATOM     12  H   UNL     1      46.479   2.590  12.383  0.00  0.00    +0.000 HD
ATOM     13  H   UNL     1      44.798   2.402  12.038  0.00  0.00    +0.000 HD
ENDBRANCH   7   9
BRANCH   1  15
ATOM     14  C   UNL     1      47.318   8.180  11.815  0.00  0.00    +0.000 C 
ATOM     15  C   UNL     1      46.292   7.034  12.091  0.00  0.00    +0.000 C 
ATOM     16  C   UNL     1      44.961   7.778  12.337  0.00  0.00    +0.000 C 
ATOM     17  C   UNL     1      46.238   6.198  10.798  0.00  0.00    +0.000 C 
ENDBRANCH   1  15
BRANCH   4  18
ATOM     18  C   UNL     1      49.798   6.594  17.021  0.00  0.00    +0.000 C 
ATOM     19  C   UNL     1      48.645   6.835  17.989  0.00  0.00    +0.000 C 
ATOM     20  C   UNL     1      49.780   7.803  17.938  0.00  0.00    +0.000 C 
BRANCH  18  21
ATOM     21  C   UNL     1      50.788   5.480  17.362  0.00  0.00    +0.000 A 
ATOM     22  C   UNL     1      50.353   4.155  17.555  0.00  0.00    +0.000 A 
ATOM     23  C   UNL     1      51.251   3.117  17.821  0.00  0.00    +0.000 A 
ATOM     24  C   UNL     1      52.615   3.391  17.887  0.00  0.00    +0.000 A 
ATOM     25  C   UNL     1      53.079   4.700  17.747  0.00  0.00    +0.000 A 
ATOM     26  C   UNL     1      52.168   5.730  17.491  0.00  0.00    +0.000 A 
BRANCH  24  27
ATOM     27  S   UNL     1      53.768   2.080  18.212  0.00  0.00    +0.000 S 
ATOM     28  C   UNL     1      52.881   0.613  17.749  0.00  0.00    +0.000 C 
ATOM     29  O   UNL     1      54.880   2.237  17.295  0.00  0.00    +0.000 OA
ATOM     30  O   UNL     1      53.986   2.036  19.645  0.00  0.00    +0.000 OA
ENDBRANCH  24  27
ENDBRANCH  18  21
ENDBRANCH   4  18
TORSDOF 5
ENDMDL
MODEL 6
REMARK VINA RESULT:    -5.160      3.802      7.046
REMARK INTER + INTRA:          -7.046
REMARK INTER:                  -7.142
REMARK INTRA:                   0.096
REMARK UNBOUND:                -0.378
REMARK  Name = 
REMARK  9 active torsions:
REMARK  status: ('A' for Active; 'I' for Inactive)
REMARK    1  A    between atoms: C_1  and  C_2
REMARK    2  A    between atoms: C_2  and  C_3
REMARK    3  A    between atoms: C_2  and  C_4
REMARK    4  A    between atoms: C_2  and  C_5
REMARK    5  A    between atoms: N_8  and  C_9
REMARK    6  A    between atoms: C_9  and  C_10
REMARK    7  A    between atoms: C_13  and  S_14
REMARK    8  A    between atoms: S_14  and  C_15
REMARK    9  A    between atoms: C_24  and  C_25
REMARK                            x       y       z     vdW  Elec       q    Type
REMARK                         _______ _______ _______ _____ _____    ______ ____
ROOT
ATOM      1  C   UNL     1      45.437   5.726  12.357  0.00  0.00    +0.000 A 
ATOM      2  N   UNL     1      46.538   6.368  12.858  0.00  0.00    +0.000 NA
ATOM      3  C   UNL     1      46.722   7.683  12.665  0.00  0.00    +0.000 A 
ATOM      4  N   UNL     1      47.825   8.241  13.315  0.00  0.00    +0.000 N 
ATOM      5  N   UNL     1      45.878   8.431  11.957  0.00  0.00    +0.000 NA
ATOM      6  C   UNL     1      44.777   7.804  11.491  0.00  0.00    +0.000 A 
ATOM      7  C   UNL     1      44.463   6.465  11.688  0.00  0.00    +0.000 A 
ATOM      8  H   UNL     1      48.376   7.461  13.655  0.00  0.00    +0.000 HD
ENDROOT
BRANCH   7   9
ATOM      9  C   UNL     1      43.154   5.988  11.167  0.00  0.00    +0.000 C 
ATOM     10  N   UNL     1      42.017   6.451  11.781  0.00  0.00    +0.000 N 
ATOM     11  O   UNL     1      43.027   5.210  10.236  0.00  0.00    +0.000 OA
ATOM     12  H   UNL     1      41.995   6.905  12.683  0.00  0.00    +0.000 HD
ATOM     13  H   UNL     1      41.142   6.070  11.436  0.00  0.00    +0.000 HD
ENDBRANCH   7   9
BRANCH   1  15
ATOM     14  C   UNL     1      45.521   3.384  11.354  0.00  0.00    +0.000 C 
ATOM     15  C   UNL     1      45.404   4.217  12.672  0.00  0.00    +0.000 C 
ATOM     16  C   UNL     1      44.074   3.743  13.295  0.00  0.00    +0.000 C 
ATOM     17  C   UNL     1      46.610   3.802  13.537  0.00  0.00    +0.000 C 
ENDBRANCH   1  15
BRANCH   4  18
ATOM     18  C   UNL     1      48.546   9.404  12.779  0.00  0.00    +0.000 C 
ATOM     19  C   UNL     1      48.708  10.583  13.733  0.00  0.00    +0.000 C 
ATOM     20  C   UNL     1      47.857  10.730  12.515  0.00  0.00    +0.000 C 
BRANCH  18  21
ATOM     21  C   UNL     1      49.732   9.050  11.883  0.00  0.00    +0.000 A 
ATOM     22  C   UNL     1      50.512  10.054  11.278  0.00  0.00    +0.000 A 
ATOM     23  C   UNL     1      51.628   9.746  10.493  0.00  0.00    +0.000 A 
ATOM     24  C   UNL     1      51.990   8.414  10.309  0.00  0.00    +0.000 A 
ATOM     25  C   UNL     1      51.213   7.390  10.854  0.00  0.00    +0.000 A 
ATOM     26  C   UNL     1      50.095   7.712  11.629  0.00  0.00    +0.000 A 
BRANCH  24  27
ATOM     27  S   UNL     1      53.412   8.009   9.324  0.00  0.00    +0.000 S 
ATOM     28  C   UNL     1      53.493   6.237   9.409  0.00  0.00    +0.000 C 
ATOM     29  O   UNL     1      53.114   8.377   7.954  0.00  0.00    +0.000 OA
ATOM     30  O   UNL     1      54.577   8.543  10.002  0.00  0.00    +0.000 OA
ENDBRANCH  24  27
ENDBRANCH  18  21
ENDBRANCH   4  18
TORSDOF 5
ENDMDL
MODEL 7
REMARK VINA RESULT:    -5.067      4.134      7.124
REMARK INTER + INTRA:          -6.927
REMARK INTER:                  -6.554
REMARK INTRA:                  -0.373
REMARK UNBOUND:                -0.378
REMARK  Name = 
REMARK  9 active torsions:
REMARK  status: ('A' for Active; 'I' for Inactive)
REMARK    1  A    between atoms: C_1  and  C_2
REMARK    2  A    between atoms: C_2  and  C_3
REMARK    3  A    between atoms: C_2  and  C_4
REMARK    4  A    between atoms: C_2  and  C_5
REMARK    5  A    between atoms: N_8  and  C_9
REMARK    6  A    between atoms: C_9  and  C_10
REMARK    7  A    between atoms: C_13  and  S_14
REMARK    8  A    between atoms: S_14  and  C_15
REMARK    9  A    between atoms: C_24  and  C_25
REMARK                            x       y       z     vdW  Elec       q    Type
REMARK                         _______ _______ _______ _____ _____    ______ ____
ROOT
ATOM      1  C   UNL     1      46.953   7.413  12.248  0.00  0.00    +0.000 A 
ATOM      2  N   UNL     1      48.265   7.185  12.567  0.00  0.00    +0.000 NA
ATOM      3  C   UNL     1      49.141   8.198  12.660  0.00  0.00    +0.000 A 
ATOM      4  N   UNL     1      50.421   7.851  13.096  0.00  0.00    +0.000 N 
ATOM      5  N   UNL     1      48.806   9.463  12.419  0.00  0.00    +0.000 NA
ATOM      6  C   UNL     1      47.505   9.689  12.136  0.00  0.00    +0.000 A 
ATOM      7  C   UNL     1      46.509   8.723  12.076  0.00  0.00    +0.000 A 
ATOM      8  H   UNL     1      50.464   6.839  13.068  0.00  0.00    +0.000 HD
ENDROOT
BRANCH   7   9
ATOM      9  C   UNL     1      45.118   9.191  11.837  0.00  0.00    +0.000 C 
ATOM     10  N   UNL     1      44.502   9.898  12.838  0.00  0.00    +0.000 N 
ATOM     11  O   UNL     1      44.489   8.980  10.812  0.00  0.00    +0.000 OA
ATOM     12  H   UNL     1      44.824   9.939  13.795  0.00  0.00    +0.000 HD
ATOM     13  H   UNL     1      43.538  10.162  12.665  0.00  0.00    +0.000 HD
ENDBRANCH   7   9
BRANCH   1  15
ATOM     14  C   UNL     1      44.735   6.341  12.904  0.00  0.00    +0.000 C 
ATOM     15  C   UNL     1      46.103   6.128  12.178  0.00  0.00    +0.000 C 
ATOM     16  C   UNL     1      46.733   4.927  12.916  0.00  0.00    +0.000 C 
ATOM     17  C   UNL     1      45.752   5.770  10.720  0.00  0.00    +0.000 C 
ENDBRANCH   1  15
BRANCH   4  18
ATOM     18  C   UNL     1      51.620   8.596  12.685  0.00  0.00    +0.000 C 
ATOM     19  C   UNL     1      52.756   8.641  13.702  0.00  0.00    +0.000 C 
ATOM     20  C   UNL     1      52.029   9.897  13.352  0.00  0.00    +0.000 C 
BRANCH  18  21
ATOM     21  C   UNL     1      51.992   8.425  11.213  0.00  0.00    +0.000 A 
ATOM     22  C   UNL     1      52.326   9.535  10.414  0.00  0.00    +0.000 A 
ATOM     23  C   UNL     1      52.714   9.390   9.078  0.00  0.00    +0.000 A 
ATOM     24  C   UNL     1      52.785   8.116   8.519  0.00  0.00    +0.000 A 
ATOM     25  C   UNL     1      52.416   6.996   9.268  0.00  0.00    +0.000 A 
ATOM     26  C   UNL     1      52.022   7.157  10.600  0.00  0.00    +0.000 A 
BRANCH  24  27
ATOM     27  S   UNL     1      53.287   7.916   6.828  0.00  0.00    +0.000 S 
ATOM     28  C   UNL     1      52.368   9.166   5.964  0.00  0.00    +0.000 C 
ATOM     29  O   UNL     1      54.693   8.260   6.745  0.00  0.00    +0.000 OA
ATOM     30  O   UNL     1      52.810   6.622   6.381  0.00  0.00    +0.000 OA
ENDBRANCH  24  27
ENDBRANCH  18  21
ENDBRANCH   4  18
TORSDOF 5
ENDMDL
MODEL 8
REMARK VINA RESULT:    -5.032      4.880      6.748
REMARK INTER + INTRA:          -6.881
REMARK INTER:                  -6.548
REMARK INTRA:                  -0.333
REMARK UNBOUND:                -0.378
REMARK  Name = 
REMARK  9 active torsions:
REMARK  status: ('A' for Active; 'I' for Inactive)
REMARK    1  A    between atoms: C_1  and  C_2
REMARK    2  A    between atoms: C_2  and  C_3
REMARK    3  A    between atoms: C_2  and  C_4
REMARK    4  A    between atoms: C_2  and  C_5
REMARK    5  A    between atoms: N_8  and  C_9
REMARK    6  A    between atoms: C_9  and  C_10
REMARK    7  A    between atoms: C_13  and  S_14
REMARK    8  A    between atoms: S_14  and  C_15
REMARK    9  A    between atoms: C_24  and  C_25
REMARK                            x       y       z     vdW  Elec       q    Type
REMARK                         _______ _______ _______ _____ _____    ______ ____
ROOT
ATOM      1  C   UNL     1      51.621   8.618  11.377  0.00  0.00    +0.000 A 
ATOM      2  N   UNL     1      50.435   7.957  11.196  0.00  0.00    +0.000 NA
ATOM      3  C   UNL     1      49.322   8.339  11.842  0.00  0.00    +0.000 A 
ATOM      4  N   UNL     1      48.156   7.655  11.494  0.00  0.00    +0.000 N 
ATOM      5  N   UNL     1      49.306   9.347  12.711  0.00  0.00    +0.000 NA
ATOM      6  C   UNL     1      50.468  10.018  12.864  0.00  0.00    +0.000 A 
ATOM      7  C   UNL     1      51.656   9.743  12.199  0.00  0.00    +0.000 A 
ATOM      8  H   UNL     1      48.451   6.859  10.940  0.00  0.00    +0.000 HD
ENDROOT
BRANCH   7   9
ATOM      9  C   UNL     1      52.802  10.659  12.442  0.00  0.00    +0.000 C 
ATOM     10  N   UNL     1      53.476  10.535  13.631  0.00  0.00    +0.000 N 
ATOM     11  O   UNL     1      53.175  11.516  11.656  0.00  0.00    +0.000 OA
ATOM     12  H   UNL     1      53.131  10.034  14.437  0.00  0.00    +0.000 HD
ATOM     13  H   UNL     1      54.221  11.205  13.788  0.00  0.00    +0.000 HD
ENDBRANCH   7   9
BRANCH   1  15
ATOM     14  C   UNL     1      52.361   6.677   9.900  0.00  0.00    +0.000 C 
ATOM     15  C   UNL     1      52.788   8.028  10.560  0.00  0.00    +0.000 C 
ATOM     16  C   UNL     1      54.016   7.652  11.417  0.00  0.00    +0.000 C 
ATOM     17  C   UNL     1      53.179   8.958   9.395  0.00  0.00    +0.000 C 
ENDBRANCH   1  15
BRANCH   4  18
ATOM     18  C   UNL     1      47.049   7.456  12.441  0.00  0.00    +0.000 C 
ATOM     19  C   UNL     1      45.646   7.553  11.854  0.00  0.00    +0.000 C 
ATOM     20  C   UNL     1      46.109   8.582  12.832  0.00  0.00    +0.000 C 
BRANCH  18  21
ATOM     21  C   UNL     1      47.307   6.373  13.488  0.00  0.00    +0.000 A 
ATOM     22  C   UNL     1      48.066   6.644  14.642  0.00  0.00    +0.000 A 
ATOM     23  C   UNL     1      48.271   5.677  15.632  0.00  0.00    +0.000 A 
ATOM     24  C   UNL     1      47.703   4.414  15.485  0.00  0.00    +0.000 A 
ATOM     25  C   UNL     1      46.983   4.095  14.332  0.00  0.00    +0.000 A 
ATOM     26  C   UNL     1      46.794   5.069  13.346  0.00  0.00    +0.000 A 
BRANCH  24  27
ATOM     27  S   UNL     1      47.945   3.181  16.739  0.00  0.00    +0.000 S 
ATOM     28  C   UNL     1      48.942   4.006  17.956  0.00  0.00    +0.000 C 
ATOM     29  O   UNL     1      46.653   2.904  17.336  0.00  0.00    +0.000 OA
ATOM     30  O   UNL     1      48.740   2.117  16.157  0.00  0.00    +0.000 OA
ENDBRANCH  24  27
ENDBRANCH  18  21
ENDBRANCH   4  18
TORSDOF 5
ENDMDL
MODEL 9
REMARK VINA RESULT:    -4.993      4.082      6.378
REMARK INTER + INTRA:          -6.831
REMARK INTER:                  -6.313
REMARK INTRA:                  -0.517
REMARK UNBOUND:                -0.378
REMARK  Name = 
REMARK  9 active torsions:
REMARK  status: ('A' for Active; 'I' for Inactive)
REMARK    1  A    between atoms: C_1  and  C_2
REMARK    2  A    between atoms: C_2  and  C_3
REMARK    3  A    between atoms: C_2  and  C_4
REMARK    4  A    between atoms: C_2  and  C_5
REMARK    5  A    between atoms: N_8  and  C_9
REMARK    6  A    between atoms: C_9  and  C_10
REMARK    7  A    between atoms: C_13  and  S_14
REMARK    8  A    between atoms: S_14  and  C_15
REMARK    9  A    between atoms: C_24  and  C_25
REMARK                            x       y       z     vdW  Elec       q    Type
REMARK                         _______ _______ _______ _____ _____    ______ ____
ROOT
ATOM      1  C   UNL     1      52.837   7.753  11.037  0.00  0.00    +0.000 A 
ATOM      2  N   UNL     1      51.560   8.187  10.794  0.00  0.00    +0.000 NA
ATOM      3  C   UNL     1      50.807   8.709  11.774  0.00  0.00    +0.000 A 
ATOM      4  N   UNL     1      49.566   9.212  11.379  0.00  0.00    +0.000 N 
ATOM      5  N   UNL     1      51.231   8.806  13.032  0.00  0.00    +0.000 NA
ATOM      6  C   UNL     1      52.499   8.408  13.264  0.00  0.00    +0.000 A 
ATOM      7  C   UNL     1      53.380   7.913  12.311  0.00  0.00    +0.000 A 
ATOM      8  H   UNL     1      49.421   8.892  10.428  0.00  0.00    +0.000 HD
ENDROOT
BRANCH   7   9
ATOM      9  C   UNL     1      54.768   7.614  12.754  0.00  0.00    +0.000 C 
ATOM     10  N   UNL     1      55.037   6.342  13.191  0.00  0.00    +0.000 N 
ATOM     11  O   UNL     1      55.678   8.428  12.759  0.00  0.00    +0.000 OA
ATOM     12  H   UNL     1      54.335   5.661  13.445  0.00  0.00    +0.000 HD
ATOM     13  H   UNL     1      55.979   6.181  13.532  0.00  0.00    +0.000 HD
ENDBRANCH   7   9
BRANCH   1  15
ATOM     14  C   UNL     1      52.596   7.250   8.550  0.00  0.00    +0.000 C 
ATOM     15  C   UNL     1      53.541   7.176   9.793  0.00  0.00    +0.000 C 
ATOM     16  C   UNL     1      53.881   5.675   9.913  0.00  0.00    +0.000 C 
ATOM     17  C   UNL     1      54.786   8.006   9.422  0.00  0.00    +0.000 C 
ENDBRANCH   1  15
BRANCH   4  18
ATOM     18  C   UNL     1      48.403   9.229  12.278  0.00  0.00    +0.000 C 
ATOM     19  C   UNL     1      47.551  10.493  12.240  0.00  0.00    +0.000 C 
ATOM     20  C   UNL     1      48.321  10.159  13.474  0.00  0.00    +0.000 C 
BRANCH  18  21
ATOM     21  C   UNL     1      47.678   7.888  12.392  0.00  0.00    +0.000 A 
ATOM     22  C   UNL     1      47.851   7.062  13.519  0.00  0.00    +0.000 A 
ATOM     23  C   UNL     1      47.158   5.855  13.659  0.00  0.00    +0.000 A 
ATOM     24  C   UNL     1      46.265   5.458  12.668  0.00  0.00    +0.000 A 
ATOM     25  C   UNL     1      46.104   6.228  11.515  0.00  0.00    +0.000 A 
ATOM     26  C   UNL     1      46.809   7.429  11.383  0.00  0.00    +0.000 A 
BRANCH  24  27
ATOM     27  S   UNL     1      45.371   3.933  12.839  0.00  0.00    +0.000 S 
ATOM     28  C   UNL     1      44.893   3.535  11.175  0.00  0.00    +0.000 C 
ATOM     29  O   UNL     1      46.309   2.923  13.287  0.00  0.00    +0.000 OA
ATOM     30  O   UNL     1      44.166   4.216  13.595  0.00  0.00    +0.000 OA
ENDBRANCH  24  27
ENDBRANCH  18  21
ENDBRANCH   4  18
TORSDOF 5
ENDMDL
