MODEL 1
REMARK VINA RESULT:    -9.068      0.000      0.000
REMARK INTER + INTRA:         -14.632
REMARK INTER:                 -13.308
REMARK INTRA:                  -1.324
REMARK UNBOUND:                -1.324
REMARK  Name = 
REMARK  8 active torsions:
REMARK  status: ('A' for Active; 'I' for Inactive)
REMARK    1  A    between atoms: C_2  and  C_3
REMARK    2  A    between atoms: C_3  and  N_4
REMARK    3  A    between atoms: C_5  and  C_7
REMARK    4  A    between atoms: N_17  and  C_18
REMARK    5  A    between atoms: C_18  and  C_19
REMARK    6  A    between atoms: C_22  and  C_23
REMARK    7  A    between atoms: C_23  and  N_24
REMARK    8  A    between atoms: C_25  and  C_27
REMARK                            x       y       z     vdW  Elec       q    Type
REMARK                         _______ _______ _______ _____ _____    ______ ____
ROOT
ATOM      1  O   UNL     1      47.272   5.235  17.610  0.00  0.00    +0.000 OA
ATOM      2  C   UNL     1      47.568   4.250  16.953  0.00  0.00    +0.000 C 
ATOM      3  N   UNL     1      47.628   4.250  15.577  0.00  0.00    +0.000 N 
ATOM      4  H   UNL     1      47.846   3.377  15.101  0.00  0.00    +0.000 HD
ENDROOT
BRANCH   2   5
ATOM      5  C   UNL     1      47.823   2.878  17.594  0.00  0.00    +0.000 C 
BRANCH   5   6
ATOM      6  N   UNL     1      49.214   2.674  17.928  0.00  0.00    +0.000 N 
ATOM      7  C   UNL     1      50.081   2.101  17.034  0.00  0.00    +0.000 C 
ATOM      8  O   UNL     1      49.727   1.764  15.906  0.00  0.00    +0.000 OA
ATOM      9  H   UNL     1      49.451   2.689  18.915  0.00  0.00    +0.000 HD
BRANCH   7  10
ATOM     10  C   UNL     1      51.466   1.968  17.480  0.00  0.00    +0.000 A 
ATOM     11  C   UNL     1      52.035   0.718  17.685  0.00  0.00    +0.000 A 
ATOM     12  S   UNL     1      53.666   0.798  18.187  0.00  0.00    +0.000 S 
ATOM     13  C   UNL     1      53.646   2.501  18.178  0.00  0.00    +0.000 A 
ATOM     14  N   UNL     1      54.737   3.229  18.541  0.00  0.00    +0.000 NA
ATOM     15  C   UNL     1      54.561   4.505  18.505  0.00  0.00    +0.000 A 
ATOM     16  N   UNL     1      53.399   5.131  18.140  0.00  0.00    +0.000 N 
ATOM     17  C   UNL     1      52.265   4.439  17.777  0.00  0.00    +0.000 A 
ATOM     18  O   UNL     1      51.244   5.033  17.445  0.00  0.00    +0.000 OA
ATOM     19  C   UNL     1      52.420   2.998  17.791  0.00  0.00    +0.000 A 
ATOM     20  H   UNL     1      53.321   6.135  18.126  0.00  0.00    +0.000 HD
ENDBRANCH   7  10
ENDBRANCH   5   6
ENDBRANCH   2   5
BRANCH   3  21
ATOM     21  C   UNL     1      47.420   5.431  14.772  0.00  0.00    +0.000 C 
BRANCH  21  22
ATOM     22  C   UNL     1      46.427   5.171  13.667  0.00  0.00    +0.000 A 
ATOM     23  C   UNL     1      45.825   6.244  12.998  0.00  0.00    +0.000 A 
ATOM     24  C   UNL     1      44.969   6.023  11.913  0.00  0.00    +0.000 A 
ATOM     25  C   UNL     1      44.673   4.720  11.482  0.00  0.00    +0.000 A 
ATOM     26  C   UNL     1      45.257   3.647  12.174  0.00  0.00    +0.000 A 
ATOM     27  C   UNL     1      46.111   3.869  13.264  0.00  0.00    +0.000 A 
BRANCH  25  28
ATOM     28  C   UNL     1      43.726   4.451  10.332  0.00  0.00    +0.000 C 
BRANCH  28  29
ATOM     29  N   UNL     1      44.257   3.564   9.316  0.00  0.00    +0.000 N 
ATOM     30  C   UNL     1      45.273   3.969   8.483  0.00  0.00    +0.000 C 
ATOM     31  O   UNL     1      45.751   5.103   8.506  0.00  0.00    +0.000 OA
ATOM     32  H   UNL     1      43.847   2.649   9.190  0.00  0.00    +0.000 HD
BRANCH  30  33
ATOM     33  C   UNL     1      45.745   2.894   7.506  0.00  0.00    +0.000 C 
ATOM     34  C   UNL     1      46.132   1.601   8.223  0.00  0.00    +0.000 C 
ATOM     35  C   UNL     1      47.137   0.907   7.308  0.00  0.00    +0.000 C 
ATOM     36  C   UNL     1      47.616   1.956   6.309  0.00  0.00    +0.000 C 
ATOM     37  C   UNL     1      47.035   3.279   6.785  0.00  0.00    +0.000 C 
ENDBRANCH  30  33
ENDBRANCH  28  29
ENDBRANCH  25  28
ENDBRANCH  21  22
ENDBRANCH   3  21
TORSDOF 8
ENDMDL
MODEL 2
REMARK VINA RESULT:    -8.264      2.014      2.880
REMARK INTER + INTRA:         -13.453
REMARK INTER:                 -12.473
REMARK INTRA:                  -0.979
REMARK UNBOUND:                -1.324
REMARK  Name = 
REMARK  8 active torsions:
REMARK  status: ('A' for Active; 'I' for Inactive)
REMARK    1  A    between atoms: C_2  and  C_3
REMARK    2  A    between atoms: C_3  and  N_4
REMARK    3  A    between atoms: C_5  and  C_7
REMARK    4  A    between atoms: N_17  and  C_18
REMARK    5  A    between atoms: C_18  and  C_19
REMARK    6  A    between atoms: C_22  and  C_23
REMARK    7  A    between atoms: C_23  and  N_24
REMARK    8  A    between atoms: C_25  and  C_27
REMARK                            x       y       z     vdW  Elec       q    Type
REMARK                         _______ _______ _______ _____ _____    ______ ____
ROOT
ATOM      1  O   UNL     1      49.556   6.634  14.318  0.00  0.00    +0.000 OA
ATOM      2  C   UNL     1      48.679   7.063  15.050  0.00  0.00    +0.000 C 
ATOM      3  N   UNL     1      47.718   7.957  14.632  0.00  0.00    +0.000 N 
ATOM      4  H   UNL     1      47.043   8.297  15.314  0.00  0.00    +0.000 HD
ENDROOT
BRANCH   2   5
ATOM      5  C   UNL     1      48.608   6.715  16.543  0.00  0.00    +0.000 C 
BRANCH   5   6
ATOM      6  N   UNL     1      49.784   6.013  17.002  0.00  0.00    +0.000 N 
ATOM      7  C   UNL     1      49.697   5.025  17.949  0.00  0.00    +0.000 C 
ATOM      8  O   UNL     1      48.620   4.673  18.427  0.00  0.00    +0.000 OA
ATOM      9  H   UNL     1      50.678   6.463  16.831  0.00  0.00    +0.000 HD
BRANCH   7  10
ATOM     10  C   UNL     1      50.953   4.375  18.316  0.00  0.00    +0.000 A 
ATOM     11  C   UNL     1      51.908   5.039  19.073  0.00  0.00    +0.000 A 
ATOM     12  S   UNL     1      53.288   4.084  19.398  0.00  0.00    +0.000 S 
ATOM     13  C   UNL     1      52.662   2.774  18.508  0.00  0.00    +0.000 A 
ATOM     14  N   UNL     1      53.363   1.617  18.354  0.00  0.00    +0.000 NA
ATOM     15  C   UNL     1      52.769   0.727  17.637  0.00  0.00    +0.000 A 
ATOM     16  N   UNL     1      51.538   0.876  17.055  0.00  0.00    +0.000 N 
ATOM     17  C   UNL     1      50.796   2.030  17.170  0.00  0.00    +0.000 A 
ATOM     18  O   UNL     1      49.692   2.125  16.645  0.00  0.00    +0.000 OA
ATOM     19  C   UNL     1      51.421   3.057  17.980  0.00  0.00    +0.000 A 
ATOM     20  H   UNL     1      51.120   0.141  16.508  0.00  0.00    +0.000 HD
ENDBRANCH   7  10
ENDBRANCH   5   6
ENDBRANCH   2   5
BRANCH   3  21
ATOM     21  C   UNL     1      47.602   8.421  13.270  0.00  0.00    +0.000 C 
BRANCH  21  22
ATOM     22  C   UNL     1      46.618   7.585  12.489  0.00  0.00    +0.000 A 
ATOM     23  C   UNL     1      47.050   6.847  11.380  0.00  0.00    +0.000 A 
ATOM     24  C   UNL     1      46.170   5.999  10.698  0.00  0.00    +0.000 A 
ATOM     25  C   UNL     1      44.827   5.884  11.092  0.00  0.00    +0.000 A 
ATOM     26  C   UNL     1      44.393   6.648  12.186  0.00  0.00    +0.000 A 
ATOM     27  C   UNL     1      45.273   7.501  12.867  0.00  0.00    +0.000 A 
BRANCH  25  28
ATOM     28  C   UNL     1      43.847   4.999  10.352  0.00  0.00    +0.000 C 
BRANCH  28  29
ATOM     29  N   UNL     1      44.386   4.377   9.159  0.00  0.00    +0.000 N 
ATOM     30  C   UNL     1      44.961   3.130   9.208  0.00  0.00    +0.000 C 
ATOM     31  O   UNL     1      45.104   2.495  10.253  0.00  0.00    +0.000 OA
ATOM     32  H   UNL     1      44.377   4.886   8.285  0.00  0.00    +0.000 HD
BRANCH  30  33
ATOM     33  C   UNL     1      45.432   2.606   7.853  0.00  0.00    +0.000 C 
ATOM     34  C   UNL     1      46.381   1.417   7.998  0.00  0.00    +0.000 C 
ATOM     35  C   UNL     1      47.240   1.417   6.736  0.00  0.00    +0.000 C 
ATOM     36  C   UNL     1      47.071   2.791   6.093  0.00  0.00    +0.000 C 
ATOM     37  C   UNL     1      46.281   3.623   7.091  0.00  0.00    +0.000 C 
ENDBRANCH  30  33
ENDBRANCH  28  29
ENDBRANCH  25  28
ENDBRANCH  21  22
ENDBRANCH   3  21
TORSDOF 8
ENDMDL
MODEL 3
REMARK VINA RESULT:    -7.948      3.938      5.372
REMARK INTER + INTRA:         -12.989
REMARK INTER:                 -11.205
REMARK INTRA:                  -1.784
REMARK UNBOUND:                -1.324
REMARK  Name = 
REMARK  8 active torsions:
REMARK  status: ('A' for Active; 'I' for Inactive)
REMARK    1  A    between atoms: C_2  and  C_3
REMARK    2  A    between atoms: C_3  and  N_4
REMARK    3  A    between atoms: C_5  and  C_7
REMARK    4  A    between atoms: N_17  and  C_18
REMARK    5  A    between atoms: C_18  and  C_19
REMARK    6  A    between atoms: C_22  and  C_23
REMARK    7  A    between atoms: C_23  and  N_24
REMARK    8  A    between atoms: C_25  and  C_27
REMARK                            x       y       z     vdW  Elec       q    Type
REMARK                         _______ _______ _______ _____ _____    ______ ____
ROOT
ATOM      1  O   UNL     1      48.842   4.751  17.557  0.00  0.00    +0.000 OA
ATOM      2  C   UNL     1      48.458   5.683  16.869  0.00  0.00    +0.000 C 
ATOM      3  N   UNL     1      47.760   5.516  15.693  0.00  0.00    +0.000 N 
ATOM      4  H   UNL     1      47.508   6.344  15.158  0.00  0.00    +0.000 HD
ENDROOT
BRANCH   2   5
ATOM      5  C   UNL     1      48.791   7.145  17.201  0.00  0.00    +0.000 C 
BRANCH   5   6
ATOM      6  N   UNL     1      49.528   7.797  16.144  0.00  0.00    +0.000 N 
ATOM      7  C   UNL     1      49.012   8.884  15.486  0.00  0.00    +0.000 C 
ATOM      8  O   UNL     1      47.922   9.369  15.783  0.00  0.00    +0.000 OA
ATOM      9  H   UNL     1      50.276   7.262  15.713  0.00  0.00    +0.000 HD
BRANCH   7  10
ATOM     10  C   UNL     1      49.861   9.469  14.450  0.00  0.00    +0.000 A 
ATOM     11  C   UNL     1      50.335  10.769  14.563  0.00  0.00    +0.000 A 
ATOM     12  S   UNL     1      51.321  11.239  13.249  0.00  0.00    +0.000 S 
ATOM     13  C   UNL     1      51.112   9.734  12.479  0.00  0.00    +0.000 A 
ATOM     14  N   UNL     1      51.677   9.467  11.270  0.00  0.00    +0.000 NA
ATOM     15  C   UNL     1      51.411   8.295  10.806  0.00  0.00    +0.000 A 
ATOM     16  N   UNL     1      50.633   7.357  11.431  0.00  0.00    +0.000 N 
ATOM     17  C   UNL     1      50.030   7.583  12.648  0.00  0.00    +0.000 A 
ATOM     18  O   UNL     1      49.349   6.716  13.185  0.00  0.00    +0.000 OA
ATOM     19  C   UNL     1      50.312   8.887  13.216  0.00  0.00    +0.000 A 
ATOM     20  H   UNL     1      50.463   6.453  11.021  0.00  0.00    +0.000 HD
ENDBRANCH   7  10
ENDBRANCH   5   6
ENDBRANCH   2   5
BRANCH   3  21
ATOM     21  C   UNL     1      47.345   4.228  15.191  0.00  0.00    +0.000 C 
BRANCH  21  22
ATOM     22  C   UNL     1      46.453   4.373  13.983  0.00  0.00    +0.000 A 
ATOM     23  C   UNL     1      46.019   5.642  13.581  0.00  0.00    +0.000 A 
ATOM     24  C   UNL     1      45.263   5.804  12.414  0.00  0.00    +0.000 A 
ATOM     25  C   UNL     1      44.901   4.697  11.629  0.00  0.00    +0.000 A 
ATOM     26  C   UNL     1      45.315   3.424  12.053  0.00  0.00    +0.000 A 
ATOM     27  C   UNL     1      46.068   3.262  13.225  0.00  0.00    +0.000 A 
BRANCH  25  28
ATOM     28  C   UNL     1      44.058   4.840  10.380  0.00  0.00    +0.000 C 
BRANCH  28  29
ATOM     29  N   UNL     1      44.435   3.948   9.300  0.00  0.00    +0.000 N 
ATOM     30  C   UNL     1      45.493   4.243   8.474  0.00  0.00    +0.000 C 
ATOM     31  O   UNL     1      46.141   5.286   8.558  0.00  0.00    +0.000 OA
ATOM     32  H   UNL     1      43.886   3.117   9.126  0.00  0.00    +0.000 HD
BRANCH  30  33
ATOM     33  C   UNL     1      45.781   3.173   7.423  0.00  0.00    +0.000 C 
ATOM     34  C   UNL     1      46.306   1.882   8.052  0.00  0.00    +0.000 C 
ATOM     35  C   UNL     1      47.127   1.197   6.963  0.00  0.00    +0.000 C 
ATOM     36  C   UNL     1      47.403   2.252   5.895  0.00  0.00    +0.000 C 
ATOM     37  C   UNL     1      46.911   3.569   6.475  0.00  0.00    +0.000 C 
ENDBRANCH  30  33
ENDBRANCH  28  29
ENDBRANCH  25  28
ENDBRANCH  21  22
ENDBRANCH   3  21
TORSDOF 8
ENDMDL
MODEL 4
REMARK VINA RESULT:    -7.065      3.778     10.320
REMARK INTER + INTRA:         -11.692
REMARK INTER:                 -10.555
REMARK INTRA:                  -1.138
REMARK UNBOUND:                -1.324
REMARK  Name = 
REMARK  8 active torsions:
REMARK  status: ('A' for Active; 'I' for Inactive)
REMARK    1  A    between atoms: C_2  and  C_3
REMARK    2  A    between atoms: C_3  and  N_4
REMARK    3  A    between atoms: C_5  and  C_7
REMARK    4  A    between atoms: N_17  and  C_18
REMARK    5  A    between atoms: C_18  and  C_19
REMARK    6  A    between atoms: C_22  and  C_23
REMARK    7  A    between atoms: C_23  and  N_24
REMARK    8  A    between atoms: C_25  and  C_27
REMARK                            x       y       z     vdW  Elec       q    Type
REMARK                         _______ _______ _______ _____ _____    ______ ____
ROOT
ATOM      1  O   UNL     1      49.387   6.815  17.941  0.00  0.00    +0.000 OA
ATOM      2  C   UNL     1      49.141   6.331  16.848  0.00  0.00    +0.000 C 
ATOM      3  N   UNL     1      48.928   4.985  16.649  0.00  0.00    +0.000 N 
ATOM      4  H   UNL     1      48.766   4.656  15.699  0.00  0.00    +0.000 HD
ENDROOT
BRANCH   2   5
ATOM      5  C   UNL     1      49.129   7.169  15.561  0.00  0.00    +0.000 C 
BRANCH   5   6
ATOM      6  N   UNL     1      47.947   6.936  14.763  0.00  0.00    +0.000 N 
ATOM      7  C   UNL     1      48.042   6.564  13.447  0.00  0.00    +0.000 C 
ATOM      8  O   UNL     1      49.127   6.383  12.897  0.00  0.00    +0.000 OA
ATOM      9  H   UNL     1      47.080   7.336  15.107  0.00  0.00    +0.000 HD
BRANCH   7  10
ATOM     10  C   UNL     1      46.777   6.338  12.751  0.00  0.00    +0.000 A 
ATOM     11  C   UNL     1      46.093   7.387  12.152  0.00  0.00    +0.000 A 
ATOM     12  S   UNL     1      44.650   6.892  11.381  0.00  0.00    +0.000 S 
ATOM     13  C   UNL     1      44.883   5.273  11.858  0.00  0.00    +0.000 A 
ATOM     14  N   UNL     1      43.982   4.302  11.546  0.00  0.00    +0.000 NA
ATOM     15  C   UNL     1      44.284   3.132  11.995  0.00  0.00    +0.000 A 
ATOM     16  N   UNL     1      45.402   2.833  12.726  0.00  0.00    +0.000 N 
ATOM     17  C   UNL     1      46.337   3.782  13.077  0.00  0.00    +0.000 A 
ATOM     18  O   UNL     1      47.333   3.476  13.724  0.00  0.00    +0.000 OA
ATOM     19  C   UNL     1      46.044   5.113  12.583  0.00  0.00    +0.000 A 
ATOM     20  H   UNL     1      45.590   1.897  13.046  0.00  0.00    +0.000 HD
ENDBRANCH   7  10
ENDBRANCH   5   6
ENDBRANCH   2   5
BRANCH   3  21
ATOM     21  C   UNL     1      48.900   4.018  17.719  0.00  0.00    +0.000 C 
BRANCH  21  22
ATOM     22  C   UNL     1      50.220   3.298  17.841  0.00  0.00    +0.000 A 
ATOM     23  C   UNL     1      50.355   1.993  17.352  0.00  0.00    +0.000 A 
ATOM     24  C   UNL     1      51.594   1.343  17.378  0.00  0.00    +0.000 A 
ATOM     25  C   UNL     1      52.728   1.972  17.916  0.00  0.00    +0.000 A 
ATOM     26  C   UNL     1      52.580   3.269  18.431  0.00  0.00    +0.000 A 
ATOM     27  C   UNL     1      51.338   3.919  18.409  0.00  0.00    +0.000 A 
BRANCH  25  28
ATOM     28  C   UNL     1      54.073   1.280  17.986  0.00  0.00    +0.000 C 
BRANCH  28  29
ATOM     29  N   UNL     1      54.041  -0.026  18.614  0.00  0.00    +0.000 N 
ATOM     30  C   UNL     1      54.514  -1.139  17.960  0.00  0.00    +0.000 C 
ATOM     31  O   UNL     1      54.936  -1.111  16.803  0.00  0.00    +0.000 OA
ATOM     32  H   UNL     1      53.626  -0.128  19.530  0.00  0.00    +0.000 HD
BRANCH  30  33
ATOM     33  C   UNL     1      54.450  -2.422  18.785  0.00  0.00    +0.000 C 
ATOM     34  C   UNL     1      54.485  -3.670  17.904  0.00  0.00    +0.000 C 
ATOM     35  C   UNL     1      53.789  -4.764  18.709  0.00  0.00    +0.000 C 
ATOM     36  C   UNL     1      53.024  -4.063  19.828  0.00  0.00    +0.000 C 
ATOM     37  C   UNL     1      53.127  -2.575  19.533  0.00  0.00    +0.000 C 
ENDBRANCH  30  33
ENDBRANCH  28  29
ENDBRANCH  25  28
ENDBRANCH  21  22
ENDBRANCH   3  21
TORSDOF 8
ENDMDL
MODEL 5
REMARK VINA RESULT:    -6.957      2.434      3.500
REMARK INTER + INTRA:         -11.534
REMARK INTER:                 -10.294
REMARK INTRA:                  -1.241
REMARK UNBOUND:                -1.324
REMARK  Name = 
REMARK  8 active torsions:
REMARK  status: ('A' for Active; 'I' for Inactive)
REMARK    1  A    between atoms: C_2  and  C_3
REMARK    2  A    between atoms: C_3  and  N_4
REMARK    3  A    between atoms: C_5  and  C_7
REMARK    4  A    between atoms: N_17  and  C_18
REMARK    5  A    between atoms: C_18  and  C_19
REMARK    6  A    between atoms: C_22  and  C_23
REMARK    7  A    between atoms: C_23  and  N_24
REMARK    8  A    between atoms: C_25  and  C_27
REMARK                            x       y       z     vdW  Elec       q    Type
REMARK                         _______ _______ _______ _____ _____    ______ ____
ROOT
ATOM      1  O   UNL     1      47.713   8.612  14.355  0.00  0.00    +0.000 OA
ATOM      2  C   UNL     1      48.603   7.798  14.169  0.00  0.00    +0.000 C 
ATOM      3  N   UNL     1      48.423   6.439  14.306  0.00  0.00    +0.000 N 
ATOM      4  H   UNL     1      49.226   5.829  14.170  0.00  0.00    +0.000 HD
ENDROOT
BRANCH   2   5
ATOM      5  C   UNL     1      50.045   8.214  13.847  0.00  0.00    +0.000 C 
BRANCH   5   6
ATOM      6  N   UNL     1      51.020   7.427  14.565  0.00  0.00    +0.000 N 
ATOM      7  C   UNL     1      51.516   7.842  15.774  0.00  0.00    +0.000 C 
ATOM      8  O   UNL     1      51.137   8.880  16.313  0.00  0.00    +0.000 OA
ATOM      9  H   UNL     1      51.533   6.735  14.026  0.00  0.00    +0.000 HD
BRANCH   7  10
ATOM     10  C   UNL     1      52.481   6.949  16.413  0.00  0.00    +0.000 A 
ATOM     11  C   UNL     1      53.826   7.283  16.485  0.00  0.00    +0.000 A 
ATOM     12  S   UNL     1      54.768   6.105  17.288  0.00  0.00    +0.000 S 
ATOM     13  C   UNL     1      53.411   5.103  17.529  0.00  0.00    +0.000 A 
ATOM     14  N   UNL     1      53.518   3.895  18.146  0.00  0.00    +0.000 NA
ATOM     15  C   UNL     1      52.410   3.243  18.235  0.00  0.00    +0.000 A 
ATOM     16  N   UNL     1      51.199   3.679  17.768  0.00  0.00    +0.000 N 
ATOM     17  C   UNL     1      51.042   4.887  17.126  0.00  0.00    +0.000 A 
ATOM     18  O   UNL     1      49.940   5.251  16.730  0.00  0.00    +0.000 OA
ATOM     19  C   UNL     1      52.261   5.662  17.014  0.00  0.00    +0.000 A 
ATOM     20  H   UNL     1      50.363   3.127  17.871  0.00  0.00    +0.000 HD
ENDBRANCH   7  10
ENDBRANCH   5   6
ENDBRANCH   2   5
BRANCH   3  21
ATOM     21  C   UNL     1      47.149   5.832  14.608  0.00  0.00    +0.000 C 
BRANCH  21  22
ATOM     22  C   UNL     1      46.367   5.546  13.350  0.00  0.00    +0.000 A 
ATOM     23  C   UNL     1      45.358   4.575  13.357  0.00  0.00    +0.000 A 
ATOM     24  C   UNL     1      44.566   4.358  12.224  0.00  0.00    +0.000 A 
ATOM     25  C   UNL     1      44.777   5.089  11.045  0.00  0.00    +0.000 A 
ATOM     26  C   UNL     1      45.808   6.041  11.035  0.00  0.00    +0.000 A 
ATOM     27  C   UNL     1      46.605   6.256  12.168  0.00  0.00    +0.000 A 
BRANCH  25  28
ATOM     28  C   UNL     1      43.955   4.853   9.795  0.00  0.00    +0.000 C 
BRANCH  28  29
ATOM     29  N   UNL     1      44.686   4.231   8.709  0.00  0.00    +0.000 N 
ATOM     30  C   UNL     1      44.842   2.866   8.649  0.00  0.00    +0.000 C 
ATOM     31  O   UNL     1      44.430   2.103   9.523  0.00  0.00    +0.000 OA
ATOM     32  H   UNL     1      45.124   4.811   8.006  0.00  0.00    +0.000 HD
BRANCH  30  33
ATOM     33  C   UNL     1      45.595   2.378   7.414  0.00  0.00    +0.000 C 
ATOM     34  C   UNL     1      46.736   1.428   7.779  0.00  0.00    +0.000 C 
ATOM     35  C   UNL     1      47.746   1.539   6.639  0.00  0.00    +0.000 C 
ATOM     36  C   UNL     1      47.393   2.805   5.865  0.00  0.00    +0.000 C 
ATOM     37  C   UNL     1      46.318   3.507   6.681  0.00  0.00    +0.000 C 
ENDBRANCH  30  33
ENDBRANCH  28  29
ENDBRANCH  25  28
ENDBRANCH  21  22
ENDBRANCH   3  21
TORSDOF 8
ENDMDL
MODEL 6
REMARK VINA RESULT:    -6.941      4.254      5.370
REMARK INTER + INTRA:         -11.511
REMARK INTER:                 -10.244
REMARK INTRA:                  -1.267
REMARK UNBOUND:                -1.324
REMARK  Name = 
REMARK  8 active torsions:
REMARK  status: ('A' for Active; 'I' for Inactive)
REMARK    1  A    between atoms: C_2  and  C_3
REMARK    2  A    between atoms: C_3  and  N_4
REMARK    3  A    between atoms: C_5  and  C_7
REMARK    4  A    between atoms: N_17  and  C_18
REMARK    5  A    between atoms: C_18  and  C_19
REMARK    6  A    between atoms: C_22  and  C_23
REMARK    7  A    between atoms: C_23  and  N_24
REMARK    8  A    between atoms: C_25  and  C_27
REMARK                            x       y       z     vdW  Elec       q    Type
REMARK                         _______ _______ _______ _____ _____    ______ ____
ROOT
ATOM      1  O   UNL     1      47.512   3.105  14.736  0.00  0.00    +0.000 OA
ATOM      2  C   UNL     1      47.155   4.046  15.427  0.00  0.00    +0.000 C 
ATOM      3  N   UNL     1      46.773   5.263  14.906  0.00  0.00    +0.000 N 
ATOM      4  H   UNL     1      46.525   6.009  15.552  0.00  0.00    +0.000 HD
ENDROOT
BRANCH   2   5
ATOM      5  C   UNL     1      47.177   3.996  16.962  0.00  0.00    +0.000 C 
BRANCH   5   6
ATOM      6  N   UNL     1      48.480   3.654  17.484  0.00  0.00    +0.000 N 
ATOM      7  C   UNL     1      49.518   4.549  17.443  0.00  0.00    +0.000 C 
ATOM      8  O   UNL     1      49.383   5.684  16.991  0.00  0.00    +0.000 OA
ATOM      9  H   UNL     1      48.677   2.665  17.601  0.00  0.00    +0.000 HD
BRANCH   7  10
ATOM     10  C   UNL     1      50.781   4.093  18.021  0.00  0.00    +0.000 A 
ATOM     11  C   UNL     1      51.518   4.913  18.864  0.00  0.00    +0.000 A 
ATOM     12  S   UNL     1      52.948   4.172  19.437  0.00  0.00    +0.000 S 
ATOM     13  C   UNL     1      52.637   2.753  18.548  0.00  0.00    +0.000 A 
ATOM     14  N   UNL     1      53.497   1.698  18.564  0.00  0.00    +0.000 NA
ATOM     15  C   UNL     1      53.137   0.707  17.825  0.00  0.00    +0.000 A 
ATOM     16  N   UNL     1      51.997   0.660  17.068  0.00  0.00    +0.000 N 
ATOM     17  C   UNL     1      51.102   1.705  17.008  0.00  0.00    +0.000 A 
ATOM     18  O   UNL     1      50.085   1.626  16.327  0.00  0.00    +0.000 OA
ATOM     19  C   UNL     1      51.460   2.840  17.835  0.00  0.00    +0.000 A 
ATOM     20  H   UNL     1      51.764  -0.146  16.512  0.00  0.00    +0.000 HD
ENDBRANCH   7  10
ENDBRANCH   5   6
ENDBRANCH   2   5
BRANCH   3  21
ATOM     21  C   UNL     1      46.684   5.528  13.490  0.00  0.00    +0.000 C 
BRANCH  21  22
ATOM     22  C   UNL     1      47.758   6.489  13.046  0.00  0.00    +0.000 A 
ATOM     23  C   UNL     1      48.772   6.868  13.934  0.00  0.00    +0.000 A 
ATOM     24  C   UNL     1      49.824   7.690  13.513  0.00  0.00    +0.000 A 
ATOM     25  C   UNL     1      49.877   8.175  12.196  0.00  0.00    +0.000 A 
ATOM     26  C   UNL     1      48.843   7.815  11.318  0.00  0.00    +0.000 A 
ATOM     27  C   UNL     1      47.787   6.996  11.741  0.00  0.00    +0.000 A 
BRANCH  25  28
ATOM     28  C   UNL     1      50.986   9.091  11.723  0.00  0.00    +0.000 C 
BRANCH  28  29
ATOM     29  N   UNL     1      51.780   8.554  10.635  0.00  0.00    +0.000 N 
ATOM     30  C   UNL     1      52.954   7.882  10.880  0.00  0.00    +0.000 C 
ATOM     31  O   UNL     1      53.427   7.742  12.007  0.00  0.00    +0.000 OA
ATOM     32  H   UNL     1      51.488   8.712   9.680  0.00  0.00    +0.000 HD
BRANCH  30  33
ATOM     33  C   UNL     1      53.636   7.341   9.625  0.00  0.00    +0.000 C 
ATOM     34  C   UNL     1      52.825   7.632   8.363  0.00  0.00    +0.000 C 
ATOM     35  C   UNL     1      53.222   6.553   7.359  0.00  0.00    +0.000 C 
ATOM     36  C   UNL     1      53.917   5.452   8.153  0.00  0.00    +0.000 C 
ATOM     37  C   UNL     1      53.735   5.817   9.618  0.00  0.00    +0.000 C 
ENDBRANCH  30  33
ENDBRANCH  28  29
ENDBRANCH  25  28
ENDBRANCH  21  22
ENDBRANCH   3  21
TORSDOF 8
ENDMDL
MODEL 7
REMARK VINA RESULT:    -6.639      4.014      9.376
REMARK INTER + INTRA:         -11.068
REMARK INTER:                  -9.459
REMARK INTRA:                  -1.609
REMARK UNBOUND:                -1.324
REMARK  Name = 
REMARK  8 active torsions:
REMARK  status: ('A' for Active; 'I' for Inactive)
REMARK    1  A    between atoms: C_2  and  C_3
REMARK    2  A    between atoms: C_3  and  N_4
REMARK    3  A    between atoms: C_5  and  C_7
REMARK    4  A    between atoms: N_17  and  C_18
REMARK    5  A    between atoms: C_18  and  C_19
REMARK    6  A    between atoms: C_22  and  C_23
REMARK    7  A    between atoms: C_23  and  N_24
REMARK    8  A    between atoms: C_25  and  C_27
REMARK                            x       y       z     vdW  Elec       q    Type
REMARK                         _______ _______ _______ _____ _____    ______ ____
ROOT
ATOM      1  O   UNL     1      50.165  10.103  12.840  0.00  0.00    +0.000 OA
ATOM      2  C   UNL     1      48.956  10.075  13.005  0.00  0.00    +0.000 C 
ATOM      3  N   UNL     1      48.345  10.454  14.179  0.00  0.00    +0.000 N 
ATOM      4  H   UNL     1      47.333  10.365  14.249  0.00  0.00    +0.000 HD
ENDROOT
BRANCH   2   5
ATOM      5  C   UNL     1      47.993   9.528  11.941  0.00  0.00    +0.000 C 
BRANCH   5   6
ATOM      6  N   UNL     1      47.667   8.137  12.155  0.00  0.00    +0.000 N 
ATOM      7  C   UNL     1      46.539   7.770  12.842  0.00  0.00    +0.000 C 
ATOM      8  O   UNL     1      45.743   8.599  13.280  0.00  0.00    +0.000 OA
ATOM      9  H   UNL     1      48.426   7.471  12.048  0.00  0.00    +0.000 HD
BRANCH   7  10
ATOM     10  C   UNL     1      46.308   6.333  12.975  0.00  0.00    +0.000 A 
ATOM     11  C   UNL     1      47.226   5.517  13.620  0.00  0.00    +0.000 A 
ATOM     12  S   UNL     1      46.745   3.878  13.674  0.00  0.00    +0.000 S 
ATOM     13  C   UNL     1      45.317   4.210  12.808  0.00  0.00    +0.000 A 
ATOM     14  N   UNL     1      44.438   3.224  12.478  0.00  0.00    +0.000 NA
ATOM     15  C   UNL     1      43.417   3.626  11.803  0.00  0.00    +0.000 A 
ATOM     16  N   UNL     1      43.182   4.920  11.423  0.00  0.00    +0.000 N 
ATOM     17  C   UNL     1      44.046   5.950  11.721  0.00  0.00    +0.000 A 
ATOM     18  O   UNL     1      43.799   7.100  11.374  0.00  0.00    +0.000 OA
ATOM     19  C   UNL     1      45.206   5.547  12.491  0.00  0.00    +0.000 A 
ATOM     20  H   UNL     1      42.361   5.177  10.900  0.00  0.00    +0.000 HD
ENDBRANCH   7  10
ENDBRANCH   5   6
ENDBRANCH   2   5
BRANCH   3  21
ATOM     21  C   UNL     1      49.061  10.994  15.310  0.00  0.00    +0.000 C 
BRANCH  21  22
ATOM     22  C   UNL     1      49.015  10.052  16.487  0.00  0.00    +0.000 A 
ATOM     23  C   UNL     1      47.922  10.075  17.361  0.00  0.00    +0.000 A 
ATOM     24  C   UNL     1      47.821   9.150  18.407  0.00  0.00    +0.000 A 
ATOM     25  C   UNL     1      48.825   8.192  18.622  0.00  0.00    +0.000 A 
ATOM     26  C   UNL     1      49.933   8.193  17.760  0.00  0.00    +0.000 A 
ATOM     27  C   UNL     1      50.035   9.122  16.715  0.00  0.00    +0.000 A 
BRANCH  25  28
ATOM     28  C   UNL     1      48.757   7.201  19.764  0.00  0.00    +0.000 C 
BRANCH  28  29
ATOM     29  N   UNL     1      49.056   5.834  19.387  0.00  0.00    +0.000 N 
ATOM     30  C   UNL     1      48.106   5.040  18.789  0.00  0.00    +0.000 C 
ATOM     31  O   UNL     1      46.948   5.410  18.590  0.00  0.00    +0.000 OA
ATOM     32  H   UNL     1      49.963   5.444  19.603  0.00  0.00    +0.000 HD
BRANCH  30  33
ATOM     33  C   UNL     1      48.604   3.646  18.414  0.00  0.00    +0.000 C 
ATOM     34  C   UNL     1      50.102   3.636  18.114  0.00  0.00    +0.000 C 
ATOM     35  C   UNL     1      50.328   2.452  17.177  0.00  0.00    +0.000 C 
ATOM     36  C   UNL     1      48.958   2.057  16.635  0.00  0.00    +0.000 C 
ATOM     37  C   UNL     1      47.996   3.135  17.109  0.00  0.00    +0.000 C 
ENDBRANCH  30  33
ENDBRANCH  28  29
ENDBRANCH  25  28
ENDBRANCH  21  22
ENDBRANCH   3  21
TORSDOF 8
ENDMDL
MODEL 8
REMARK VINA RESULT:    -6.553      4.981      6.168
REMARK INTER + INTRA:         -10.941
REMARK INTER:                  -9.400
REMARK INTRA:                  -1.541
REMARK UNBOUND:                -1.324
REMARK  Name = 
REMARK  8 active torsions:
REMARK  status: ('A' for Active; 'I' for Inactive)
REMARK    1  A    between atoms: C_2  and  C_3
REMARK    2  A    between atoms: C_3  and  N_4
REMARK    3  A    between atoms: C_5  and  C_7
REMARK    4  A    between atoms: N_17  and  C_18
REMARK    5  A    between atoms: C_18  and  C_19
REMARK    6  A    between atoms: C_22  and  C_23
REMARK    7  A    between atoms: C_23  and  N_24
REMARK    8  A    between atoms: C_25  and  C_27
REMARK                            x       y       z     vdW  Elec       q    Type
REMARK                         _______ _______ _______ _____ _____    ______ ____
ROOT
ATOM      1  O   UNL     1      45.537   5.720  11.696  0.00  0.00    +0.000 OA
ATOM      2  C   UNL     1      45.956   5.781  12.841  0.00  0.00    +0.000 C 
ATOM      3  N   UNL     1      46.485   6.928  13.390  0.00  0.00    +0.000 N 
ATOM      4  H   UNL     1      46.847   6.887  14.340  0.00  0.00    +0.000 HD
ENDROOT
BRANCH   2   5
ATOM      5  C   UNL     1      46.015   4.555  13.763  0.00  0.00    +0.000 C 
BRANCH   5   6
ATOM      6  N   UNL     1      46.665   4.842  15.021  0.00  0.00    +0.000 N 
ATOM      7  C   UNL     1      47.504   3.932  15.610  0.00  0.00    +0.000 C 
ATOM      8  O   UNL     1      47.763   2.850  15.087  0.00  0.00    +0.000 OA
ATOM      9  H   UNL     1      46.260   5.585  15.583  0.00  0.00    +0.000 HD
BRANCH   7  10
ATOM     10  C   UNL     1      48.117   4.346  16.870  0.00  0.00    +0.000 A 
ATOM     11  C   UNL     1      47.872   3.652  18.048  0.00  0.00    +0.000 A 
ATOM     12  S   UNL     1      48.705   4.300  19.393  0.00  0.00    +0.000 S 
ATOM     13  C   UNL     1      49.385   5.541  18.446  0.00  0.00    +0.000 A 
ATOM     14  N   UNL     1      50.199   6.488  18.990  0.00  0.00    +0.000 NA
ATOM     15  C   UNL     1      50.618   7.373  18.153  0.00  0.00    +0.000 A 
ATOM     16  N   UNL     1      50.305   7.409  16.820  0.00  0.00    +0.000 N 
ATOM     17  C   UNL     1      49.477   6.483  16.226  0.00  0.00    +0.000 A 
ATOM     18  O   UNL     1      49.227   6.539  15.027  0.00  0.00    +0.000 OA
ATOM     19  C   UNL     1      48.991   5.458  17.128  0.00  0.00    +0.000 A 
ATOM     20  H   UNL     1      50.667   8.125  16.211  0.00  0.00    +0.000 HD
ENDBRANCH   7  10
ENDBRANCH   5   6
ENDBRANCH   2   5
BRANCH   3  21
ATOM     21  C   UNL     1      46.531   8.194  12.697  0.00  0.00    +0.000 C 
BRANCH  21  22
ATOM     22  C   UNL     1      47.931   8.516  12.239  0.00  0.00    +0.000 A 
ATOM     23  C   UNL     1      48.810   7.483  11.892  0.00  0.00    +0.000 A 
ATOM     24  C   UNL     1      50.083   7.766  11.383  0.00  0.00    +0.000 A 
ATOM     25  C   UNL     1      50.520   9.091  11.230  0.00  0.00    +0.000 A 
ATOM     26  C   UNL     1      49.646  10.122  11.607  0.00  0.00    +0.000 A 
ATOM     27  C   UNL     1      48.372   9.839  12.121  0.00  0.00    +0.000 A 
BRANCH  25  28
ATOM     28  C   UNL     1      51.903   9.426  10.712  0.00  0.00    +0.000 C 
BRANCH  28  29
ATOM     29  N   UNL     1      52.507   8.383   9.907  0.00  0.00    +0.000 N 
ATOM     30  C   UNL     1      53.010   8.655   8.656  0.00  0.00    +0.000 C 
ATOM     31  O   UNL     1      52.932   9.763   8.127  0.00  0.00    +0.000 OA
ATOM     32  H   UNL     1      52.522   7.432  10.251  0.00  0.00    +0.000 HD
BRANCH  30  33
ATOM     33  C   UNL     1      53.653   7.453   7.968  0.00  0.00    +0.000 C 
ATOM     34  C   UNL     1      52.624   6.600   7.227  0.00  0.00    +0.000 C 
ATOM     35  C   UNL     1      53.219   5.196   7.164  0.00  0.00    +0.000 C 
ATOM     36  C   UNL     1      54.350   5.155   8.187  0.00  0.00    +0.000 C 
ATOM     37  C   UNL     1      54.261   6.462   8.959  0.00  0.00    +0.000 C 
ENDBRANCH  30  33
ENDBRANCH  28  29
ENDBRANCH  25  28
ENDBRANCH  21  22
ENDBRANCH   3  21
TORSDOF 8
ENDMDL
MODEL 9
REMARK VINA RESULT:    -6.534      4.795      5.970
REMARK INTER + INTRA:         -10.913
REMARK INTER:                  -9.797
REMARK INTRA:                  -1.116
REMARK UNBOUND:                -1.324
REMARK  Name = 
REMARK  8 active torsions:
REMARK  status: ('A' for Active; 'I' for Inactive)
REMARK    1  A    between atoms: C_2  and  C_3
REMARK    2  A    between atoms: C_3  and  N_4
REMARK    3  A    between atoms: C_5  and  C_7
REMARK    4  A    between atoms: N_17  and  C_18
REMARK    5  A    between atoms: C_18  and  C_19
REMARK    6  A    between atoms: C_22  and  C_23
REMARK    7  A    between atoms: C_23  and  N_24
REMARK    8  A    between atoms: C_25  and  C_27
REMARK                            x       y       z     vdW  Elec       q    Type
REMARK                         _______ _______ _______ _____ _____    ______ ____
ROOT
ATOM      1  O   UNL     1      45.172   5.674  12.476  0.00  0.00    +0.000 OA
ATOM      2  C   UNL     1      45.951   5.683  13.415  0.00  0.00    +0.000 C 
ATOM      3  N   UNL     1      46.720   6.776  13.748  0.00  0.00    +0.000 N 
ATOM      4  H   UNL     1      47.374   6.691  14.522  0.00  0.00    +0.000 HD
ENDROOT
BRANCH   2   5
ATOM      5  C   UNL     1      46.220   4.439  14.274  0.00  0.00    +0.000 C 
BRANCH   5   6
ATOM      6  N   UNL     1      47.390   4.587  15.109  0.00  0.00    +0.000 N 
ATOM      7  C   UNL     1      47.430   4.062  16.375  0.00  0.00    +0.000 C 
ATOM      8  O   UNL     1      46.492   3.421  16.845  0.00  0.00    +0.000 OA
ATOM      9  H   UNL     1      48.041   5.323  14.853  0.00  0.00    +0.000 HD
BRANCH   7  10
ATOM     10  C   UNL     1      48.676   4.260  17.112  0.00  0.00    +0.000 A 
ATOM     11  C   UNL     1      48.933   5.452  17.776  0.00  0.00    +0.000 A 
ATOM     12  S   UNL     1      50.438   5.457  18.585  0.00  0.00    +0.000 S 
ATOM     13  C   UNL     1      50.800   3.883  18.043  0.00  0.00    +0.000 A 
ATOM     14  N   UNL     1      51.976   3.275  18.356  0.00  0.00    +0.000 NA
ATOM     15  C   UNL     1      52.115   2.096  17.855  0.00  0.00    +0.000 A 
ATOM     16  N   UNL     1      51.192   1.459  17.069  0.00  0.00    +0.000 N 
ATOM     17  C   UNL     1      49.993   2.038  16.714  0.00  0.00    +0.000 A 
ATOM     18  O   UNL     1      49.184   1.434  16.017  0.00  0.00    +0.000 OA
ATOM     19  C   UNL     1      49.788   3.362  17.266  0.00  0.00    +0.000 A 
ATOM     20  H   UNL     1      51.352   0.533  16.709  0.00  0.00    +0.000 HD
ENDBRANCH   7  10
ENDBRANCH   5   6
ENDBRANCH   2   5
BRANCH   3  21
ATOM     21  C   UNL     1      46.630   8.047  13.069  0.00  0.00    +0.000 C 
BRANCH  21  22
ATOM     22  C   UNL     1      47.967   8.464  12.509  0.00  0.00    +0.000 A 
ATOM     23  C   UNL     1      48.883   7.494  12.086  0.00  0.00    +0.000 A 
ATOM     24  C   UNL     1      50.092   7.864  11.484  0.00  0.00    +0.000 A 
ATOM     25  C   UNL     1      50.427   9.216  11.311  0.00  0.00    +0.000 A 
ATOM     26  C   UNL     1      49.517  10.185  11.763  0.00  0.00    +0.000 A 
ATOM     27  C   UNL     1      48.309   9.814  12.370  0.00  0.00    +0.000 A 
BRANCH  25  28
ATOM     28  C   UNL     1      51.741   9.644  10.692  0.00  0.00    +0.000 C 
BRANCH  28  29
ATOM     29  N   UNL     1      52.496   8.565  10.089  0.00  0.00    +0.000 N 
ATOM     30  C   UNL     1      52.900   8.629   8.776  0.00  0.00    +0.000 C 
ATOM     31  O   UNL     1      52.607   9.561   8.027  0.00  0.00    +0.000 OA
ATOM     32  H   UNL     1      52.694   7.733  10.628  0.00  0.00    +0.000 HD
BRANCH  30  33
ATOM     33  C   UNL     1      53.728   7.430   8.318  0.00  0.00    +0.000 C 
ATOM     34  C   UNL     1      53.041   6.659   7.192  0.00  0.00    +0.000 C 
ATOM     35  C   UNL     1      53.578   5.233   7.281  0.00  0.00    +0.000 C 
ATOM     36  C   UNL     1      54.226   5.095   8.655  0.00  0.00    +0.000 C 
ATOM     37  C   UNL     1      53.881   6.370   9.408  0.00  0.00    +0.000 C 
ENDBRANCH  30  33
ENDBRANCH  28  29
ENDBRANCH  25  28
ENDBRANCH  21  22
ENDBRANCH   3  21
TORSDOF 8
ENDMDL
