MODEL 1
REMARK VINA RESULT:    -7.734      0.000      0.000
REMARK INTER + INTRA:         -13.123
REMARK INTER:                 -12.029
REMARK INTRA:                  -1.094
REMARK UNBOUND:                -1.094
REMARK  Name = 
REMARK  10 active torsions:
REMARK  status: ('A' for Active; 'I' for Inactive)
REMARK    1  A    between atoms: N_1  and  C_2
REMARK    2  A    between atoms: C_2  and  C_3
REMARK    3  A    between atoms: C_3  and  N_4
REMARK    4  A    between atoms: N_4  and  C_5
REMARK    5  A    between atoms: C_5  and  C_6
REMARK    6  A    between atoms: C_8  and  C_9
REMARK    7  A    between atoms: C_9  and  N_10
REMARK    8  A    between atoms: C_11  and  C_13
REMARK    9  A    between atoms: C_25  and  C_26
REMARK   10  A    between atoms: C_26  and  N_27
REMARK                            x       y       z     vdW  Elec       q    Type
REMARK                         _______ _______ _______ _____ _____    ______ ____
ROOT
ATOM      1  C   UNL     1      45.279   5.754  11.934  0.00  0.00    +0.000 A 
ATOM      2  C   UNL     1      46.064   5.696  13.108  0.00  0.00    +0.000 A 
ATOM      3  C   UNL     1      46.425   4.480  13.701  0.00  0.00    +0.000 A 
ATOM      4  C   UNL     1      46.033   3.296  13.074  0.00  0.00    +0.000 A 
ATOM      5  C   UNL     1      45.296   3.333  11.884  0.00  0.00    +0.000 A 
ATOM      6  C   UNL     1      44.903   4.551  11.295  0.00  0.00    +0.000 A 
ENDROOT
BRANCH   1   7
ATOM      7  C   UNL     1      44.835   7.123  11.462  0.00  0.00    +0.000 C 
BRANCH   7   8
ATOM      8  N   UNL     1      44.725   8.122  12.533  0.00  0.00    +0.000 NA
ATOM      9  H   UNL     1      43.748   8.412  12.582  0.00  0.00    +0.000 HD
BRANCH   8  10
ATOM     10  C   UNL     1      45.523   9.331  12.266  0.00  0.00    +0.000 C 
BRANCH  10  11
ATOM     11  C   UNL     1      44.691  10.389  11.514  0.00  0.00    +0.000 C 
BRANCH  11  12
ATOM     12  N   UNL     1      43.364  10.579  12.109  0.00  0.00    +0.000 NA
ATOM     13  H   UNL     1      42.885   9.678  12.121  0.00  0.00    +0.000 HD
ATOM     14  H   UNL     1      42.814  11.165  11.482  0.00  0.00    +0.000 HD
ENDBRANCH  11  12
ENDBRANCH  10  11
ENDBRANCH   8  10
ENDBRANCH   7   8
ENDBRANCH   1   7
BRANCH   3  15
ATOM     15  C   UNL     1      47.241   4.465  14.970  0.00  0.00    +0.000 C 
BRANCH  15  16
ATOM     16  N   UNL     1      47.592   5.802  15.380  0.00  0.00    +0.000 N 
ATOM     17  C   UNL     1      48.677   6.047  16.186  0.00  0.00    +0.000 C 
ATOM     18  O   UNL     1      49.432   5.153  16.556  0.00  0.00    +0.000 OA
ATOM     19  H   UNL     1      46.876   6.512  15.275  0.00  0.00    +0.000 HD
BRANCH  17  20
ATOM     20  C   UNL     1      48.921   7.454  16.534  0.00  0.00    +0.000 A 
ATOM     21  C   UNL     1      49.681   8.252  15.691  0.00  0.00    +0.000 A 
ATOM     22  S   UNL     1      49.827   9.867  16.219  0.00  0.00    +0.000 S 
ATOM     23  C   UNL     1      48.927   9.544  17.627  0.00  0.00    +0.000 A 
ATOM     24  N   UNL     1      48.701  10.517  18.550  0.00  0.00    +0.000 NA
ATOM     25  C   UNL     1      48.021  10.131  19.577  0.00  0.00    +0.000 A 
ATOM     26  N   UNL     1      47.544   8.860  19.764  0.00  0.00    +0.000 N 
ATOM     27  C   UNL     1      47.726   7.847  18.850  0.00  0.00    +0.000 A 
ATOM     28  O   UNL     1      47.254   6.735  19.034  0.00  0.00    +0.000 OA
ATOM     29  C   UNL     1      48.497   8.229  17.679  0.00  0.00    +0.000 A 
ATOM     30  H   UNL     1      47.004   8.624  20.585  0.00  0.00    +0.000 HD
ENDBRANCH  17  20
ENDBRANCH  15  16
ENDBRANCH   3  15
BRANCH   6  31
ATOM     31  C   UNL     1      44.114   4.505   9.994  0.00  0.00    +0.000 C 
BRANCH  31  32
ATOM     32  N   UNL     1      44.213   3.181   9.409  0.00  0.00    +0.000 N 
ATOM     33  C   UNL     1      45.265   2.995   8.524  0.00  0.00    +0.000 A 
ATOM     34  N   UNL     1      45.706   1.733   8.412  0.00  0.00    +0.000 NA
ATOM     35  C   UNL     1      46.751   1.517   7.588  0.00  0.00    +0.000 A 
ATOM     36  C   UNL     1      47.387   2.512   6.893  0.00  0.00    +0.000 A 
ATOM     37  C   UNL     1      46.860   3.765   7.066  0.00  0.00    +0.000 A 
ATOM     38  N   UNL     1      45.805   4.029   7.862  0.00  0.00    +0.000 NA
ATOM     39  H   UNL     1      44.273   2.422  10.077  0.00  0.00    +0.000 HD
ENDBRANCH  31  32
ENDBRANCH   6  31
TORSDOF 10
ENDMDL
MODEL 2
REMARK VINA RESULT:    -7.500      4.073      8.797
REMARK INTER + INTRA:         -12.759
REMARK INTER:                 -11.294
REMARK INTRA:                  -1.466
REMARK UNBOUND:                -1.094
REMARK  Name = 
REMARK  10 active torsions:
REMARK  status: ('A' for Active; 'I' for Inactive)
REMARK    1  A    between atoms: N_1  and  C_2
REMARK    2  A    between atoms: C_2  and  C_3
REMARK    3  A    between atoms: C_3  and  N_4
REMARK    4  A    between atoms: N_4  and  C_5
REMARK    5  A    between atoms: C_5  and  C_6
REMARK    6  A    between atoms: C_8  and  C_9
REMARK    7  A    between atoms: C_9  and  N_10
REMARK    8  A    between atoms: C_11  and  C_13
REMARK    9  A    between atoms: C_25  and  C_26
REMARK   10  A    between atoms: C_26  and  N_27
REMARK                            x       y       z     vdW  Elec       q    Type
REMARK                         _______ _______ _______ _____ _____    ______ ____
ROOT
ATOM      1  C   UNL     1      49.132   5.606  17.746  0.00  0.00    +0.000 A 
ATOM      2  C   UNL     1      48.682   6.531  16.776  0.00  0.00    +0.000 A 
ATOM      3  C   UNL     1      49.564   7.187  15.910  0.00  0.00    +0.000 A 
ATOM      4  C   UNL     1      50.921   6.870  15.984  0.00  0.00    +0.000 A 
ATOM      5  C   UNL     1      51.380   5.921  16.905  0.00  0.00    +0.000 A 
ATOM      6  C   UNL     1      50.504   5.277  17.801  0.00  0.00    +0.000 A 
ENDROOT
BRANCH   1   7
ATOM      7  C   UNL     1      48.104   5.064  18.719  0.00  0.00    +0.000 C 
BRANCH   7   8
ATOM      8  N   UNL     1      47.085   4.206  18.103  0.00  0.00    +0.000 NA
ATOM      9  H   UNL     1      46.315   4.120  18.767  0.00  0.00    +0.000 HD
BRANCH   8  10
ATOM     10  C   UNL     1      47.577   2.845  17.831  0.00  0.00    +0.000 C 
BRANCH  10  11
ATOM     11  C   UNL     1      48.009   2.696  16.358  0.00  0.00    +0.000 C 
BRANCH  11  12
ATOM     12  N   UNL     1      49.208   1.864  16.210  0.00  0.00    +0.000 NA
ATOM     13  H   UNL     1      49.552   1.964  15.254  0.00  0.00    +0.000 HD
ATOM     14  H   UNL     1      48.930   0.887  16.293  0.00  0.00    +0.000 HD
ENDBRANCH  11  12
ENDBRANCH  10  11
ENDBRANCH   8  10
ENDBRANCH   7   8
ENDBRANCH   1   7
BRANCH   3  15
ATOM     15  C   UNL     1      49.043   8.187  14.908  0.00  0.00    +0.000 C 
BRANCH  15  16
ATOM     16  N   UNL     1      47.815   7.731  14.306  0.00  0.00    +0.000 N 
ATOM     17  C   UNL     1      47.811   6.837  13.263  0.00  0.00    +0.000 C 
ATOM     18  O   UNL     1      48.844   6.341  12.824  0.00  0.00    +0.000 OA
ATOM     19  H   UNL     1      46.984   8.280  14.497  0.00  0.00    +0.000 HD
BRANCH  17  20
ATOM     20  C   UNL     1      46.492   6.458  12.738  0.00  0.00    +0.000 A 
ATOM     21  C   UNL     1      45.631   7.438  12.263  0.00  0.00    +0.000 A 
ATOM     22  S   UNL     1      44.164   6.823  11.648  0.00  0.00    +0.000 S 
ATOM     23  C   UNL     1      44.601   5.228  12.049  0.00  0.00    +0.000 A 
ATOM     24  N   UNL     1      43.755   4.191  11.809  0.00  0.00    +0.000 NA
ATOM     25  C   UNL     1      44.205   3.039  12.179  0.00  0.00    +0.000 A 
ATOM     26  N   UNL     1      45.426   2.830  12.764  0.00  0.00    +0.000 N 
ATOM     27  C   UNL     1      46.326   3.842  13.007  0.00  0.00    +0.000 A 
ATOM     28  O   UNL     1      47.422   3.612  13.497  0.00  0.00    +0.000 OA
ATOM     29  C   UNL     1      45.862   5.163  12.618  0.00  0.00    +0.000 A 
ATOM     30  H   UNL     1      45.727   1.899  13.018  0.00  0.00    +0.000 HD
ENDBRANCH  17  20
ENDBRANCH  15  16
ENDBRANCH   3  15
BRANCH   6  31
ATOM     31  C   UNL     1      51.082   4.248  18.764  0.00  0.00    +0.000 C 
BRANCH  31  32
ATOM     32  N   UNL     1      51.048   2.933  18.152  0.00  0.00    +0.000 N 
ATOM     33  C   UNL     1      52.283   2.334  17.950  0.00  0.00    +0.000 A 
ATOM     34  N   UNL     1      52.275   0.994  17.924  0.00  0.00    +0.000 NA
ATOM     35  C   UNL     1      53.461   0.374  17.765  0.00  0.00    +0.000 A 
ATOM     36  C   UNL     1      54.656   1.037  17.658  0.00  0.00    +0.000 A 
ATOM     37  C   UNL     1      54.561   2.405  17.688  0.00  0.00    +0.000 A 
ATOM     38  N   UNL     1      53.397   3.070  17.824  0.00  0.00    +0.000 NA
ATOM     39  H   UNL     1      50.483   2.248  18.640  0.00  0.00    +0.000 HD
ENDBRANCH  31  32
ENDBRANCH   6  31
TORSDOF 10
ENDMDL
MODEL 3
REMARK VINA RESULT:    -7.384      1.745      2.090
REMARK INTER + INTRA:         -12.579
REMARK INTER:                 -11.317
REMARK INTRA:                  -1.261
REMARK UNBOUND:                -1.094
REMARK  Name = 
REMARK  10 active torsions:
REMARK  status: ('A' for Active; 'I' for Inactive)
REMARK    1  A    between atoms: N_1  and  C_2
REMARK    2  A    between atoms: C_2  and  C_3
REMARK    3  A    between atoms: C_3  and  N_4
REMARK    4  A    between atoms: N_4  and  C_5
REMARK    5  A    between atoms: C_5  and  C_6
REMARK    6  A    between atoms: C_8  and  C_9
REMARK    7  A    between atoms: C_9  and  N_10
REMARK    8  A    between atoms: C_11  and  C_13
REMARK    9  A    between atoms: C_25  and  C_26
REMARK   10  A    between atoms: C_26  and  N_27
REMARK                            x       y       z     vdW  Elec       q    Type
REMARK                         _______ _______ _______ _____ _____    ______ ____
ROOT
ATOM      1  C   UNL     1      45.266   5.903  11.847  0.00  0.00    +0.000 A 
ATOM      2  C   UNL     1      46.405   6.376  12.537  0.00  0.00    +0.000 A 
ATOM      3  C   UNL     1      47.130   5.564  13.417  0.00  0.00    +0.000 A 
ATOM      4  C   UNL     1      46.734   4.235  13.570  0.00  0.00    +0.000 A 
ATOM      5  C   UNL     1      45.638   3.734  12.858  0.00  0.00    +0.000 A 
ATOM      6  C   UNL     1      44.883   4.551  11.992  0.00  0.00    +0.000 A 
ENDROOT
BRANCH   1   7
ATOM      7  C   UNL     1      44.481   6.909  11.031  0.00  0.00    +0.000 C 
BRANCH   7   8
ATOM      8  N   UNL     1      44.052   8.093  11.785  0.00  0.00    +0.000 NA
ATOM      9  H   UNL     1      43.056   7.990  11.978  0.00  0.00    +0.000 HD
BRANCH   8  10
ATOM     10  C   UNL     1      44.219   9.343  11.023  0.00  0.00    +0.000 C 
BRANCH  10  11
ATOM     11  C   UNL     1      42.898   9.760  10.346  0.00  0.00    +0.000 C 
BRANCH  11  12
ATOM     12  N   UNL     1      41.722   9.363  11.128  0.00  0.00    +0.000 NA
ATOM     13  H   UNL     1      41.080   8.863  10.512  0.00  0.00    +0.000 HD
ATOM     14  H   UNL     1      41.223  10.207  11.405  0.00  0.00    +0.000 HD
ENDBRANCH  11  12
ENDBRANCH  10  11
ENDBRANCH   8  10
ENDBRANCH   7   8
ENDBRANCH   1   7
BRANCH   3  15
ATOM     15  C   UNL     1      48.325   6.118  14.154  0.00  0.00    +0.000 C 
BRANCH  15  16
ATOM     16  N   UNL     1      48.052   6.252  15.564  0.00  0.00    +0.000 N 
ATOM     17  C   UNL     1      49.038   6.093  16.507  0.00  0.00    +0.000 C 
ATOM     18  O   UNL     1      50.208   5.883  16.200  0.00  0.00    +0.000 OA
ATOM     19  H   UNL     1      47.078   6.205  15.845  0.00  0.00    +0.000 HD
BRANCH  17  20
ATOM     20  C   UNL     1      48.625   6.251  17.908  0.00  0.00    +0.000 A 
ATOM     21  C   UNL     1      48.671   5.161  18.768  0.00  0.00    +0.000 A 
ATOM     22  S   UNL     1      48.204   5.528  20.367  0.00  0.00    +0.000 S 
ATOM     23  C   UNL     1      47.868   7.145  19.955  0.00  0.00    +0.000 A 
ATOM     24  N   UNL     1      47.391   8.016  20.884  0.00  0.00    +0.000 NA
ATOM     25  C   UNL     1      47.163   9.204  20.432  0.00  0.00    +0.000 A 
ATOM     26  N   UNL     1      47.370   9.600  19.137  0.00  0.00    +0.000 N 
ATOM     27  C   UNL     1      47.871   8.762  18.167  0.00  0.00    +0.000 A 
ATOM     28  O   UNL     1      48.077   9.161  17.030  0.00  0.00    +0.000 OA
ATOM     29  C   UNL     1      48.136   7.408  18.622  0.00  0.00    +0.000 A 
ATOM     30  H   UNL     1      47.184  10.551  18.849  0.00  0.00    +0.000 HD
ENDBRANCH  17  20
ENDBRANCH  15  16
ENDBRANCH   3  15
BRANCH   6  31
ATOM     31  C   UNL     1      43.712   3.926  11.245  0.00  0.00    +0.000 C 
BRANCH  31  32
ATOM     32  N   UNL     1      44.122   2.662  10.664  0.00  0.00    +0.000 N 
ATOM     33  C   UNL     1      44.794   2.749   9.454  0.00  0.00    +0.000 A 
ATOM     34  N   UNL     1      45.631   1.736   9.186  0.00  0.00    +0.000 NA
ATOM     35  C   UNL     1      46.331   1.801   8.036  0.00  0.00    +0.000 A 
ATOM     36  C   UNL     1      46.247   2.849   7.157  0.00  0.00    +0.000 A 
ATOM     37  C   UNL     1      45.361   3.833   7.512  0.00  0.00    +0.000 A 
ATOM     38  N   UNL     1      44.624   3.802   8.641  0.00  0.00    +0.000 NA
ATOM     39  H   UNL     1      44.698   2.082  11.262  0.00  0.00    +0.000 HD
ENDBRANCH  31  32
ENDBRANCH   6  31
TORSDOF 10
ENDMDL
MODEL 4
REMARK VINA RESULT:    -7.154      5.194      8.740
REMARK INTER + INTRA:         -12.221
REMARK INTER:                  -9.970
REMARK INTRA:                  -2.250
REMARK UNBOUND:                -1.094
REMARK  Name = 
REMARK  10 active torsions:
REMARK  status: ('A' for Active; 'I' for Inactive)
REMARK    1  A    between atoms: N_1  and  C_2
REMARK    2  A    between atoms: C_2  and  C_3
REMARK    3  A    between atoms: C_3  and  N_4
REMARK    4  A    between atoms: N_4  and  C_5
REMARK    5  A    between atoms: C_5  and  C_6
REMARK    6  A    between atoms: C_8  and  C_9
REMARK    7  A    between atoms: C_9  and  N_10
REMARK    8  A    between atoms: C_11  and  C_13
REMARK    9  A    between atoms: C_25  and  C_26
REMARK   10  A    between atoms: C_26  and  N_27
REMARK                            x       y       z     vdW  Elec       q    Type
REMARK                         _______ _______ _______ _____ _____    ______ ____
ROOT
ATOM      1  C   UNL     1      50.921   4.424  17.688  0.00  0.00    +0.000 A 
ATOM      2  C   UNL     1      49.531   4.565  17.470  0.00  0.00    +0.000 A 
ATOM      3  C   UNL     1      48.724   3.483  17.102  0.00  0.00    +0.000 A 
ATOM      4  C   UNL     1      49.315   2.222  17.000  0.00  0.00    +0.000 A 
ATOM      5  C   UNL     1      50.680   2.054  17.259  0.00  0.00    +0.000 A 
ATOM      6  C   UNL     1      51.507   3.142  17.602  0.00  0.00    +0.000 A 
ENDROOT
BRANCH   1   7
ATOM      7  C   UNL     1      51.715   5.689  17.946  0.00  0.00    +0.000 C 
BRANCH   7   8
ATOM      8  N   UNL     1      51.948   6.508  16.750  0.00  0.00    +0.000 NA
ATOM      9  H   UNL     1      51.308   6.182  16.025  0.00  0.00    +0.000 HD
BRANCH   8  10
ATOM     10  C   UNL     1      53.314   6.363  16.218  0.00  0.00    +0.000 C 
BRANCH  10  11
ATOM     11  C   UNL     1      53.567   7.354  15.064  0.00  0.00    +0.000 C 
BRANCH  11  12
ATOM     12  N   UNL     1      52.325   7.773  14.407  0.00  0.00    +0.000 NA
ATOM     13  H   UNL     1      52.201   8.774  14.564  0.00  0.00    +0.000 HD
ATOM     14  H   UNL     1      51.544   7.329  14.888  0.00  0.00    +0.000 HD
ENDBRANCH  11  12
ENDBRANCH  10  11
ENDBRANCH   8  10
ENDBRANCH   7   8
ENDBRANCH   1   7
BRANCH   3  15
ATOM     15  C   UNL     1      47.250   3.683  16.853  0.00  0.00    +0.000 C 
BRANCH  15  16
ATOM     16  N   UNL     1      47.023   4.691  15.847  0.00  0.00    +0.000 N 
ATOM     17  C   UNL     1      47.057   4.393  14.507  0.00  0.00    +0.000 C 
ATOM     18  O   UNL     1      47.229   3.249  14.096  0.00  0.00    +0.000 OA
ATOM     19  H   UNL     1      47.100   5.658  16.147  0.00  0.00    +0.000 HD
BRANCH  17  20
ATOM     20  C   UNL     1      46.815   5.513  13.587  0.00  0.00    +0.000 A 
ATOM     21  C   UNL     1      45.681   5.516  12.787  0.00  0.00    +0.000 A 
ATOM     22  S   UNL     1      45.529   6.909  11.815  0.00  0.00    +0.000 S 
ATOM     23  C   UNL     1      47.006   7.534  12.386  0.00  0.00    +0.000 A 
ATOM     24  N   UNL     1      47.489   8.717  11.921  0.00  0.00    +0.000 NA
ATOM     25  C   UNL     1      48.627   9.063  12.425  0.00  0.00    +0.000 A 
ATOM     26  N   UNL     1      49.323   8.334  13.353  0.00  0.00    +0.000 N 
ATOM     27  C   UNL     1      48.865   7.144  13.870  0.00  0.00    +0.000 A 
ATOM     28  O   UNL     1      49.497   6.539  14.725  0.00  0.00    +0.000 OA
ATOM     29  C   UNL     1      47.592   6.704  13.327  0.00  0.00    +0.000 A 
ATOM     30  H   UNL     1      50.204   8.668  13.720  0.00  0.00    +0.000 HD
ENDBRANCH  17  20
ENDBRANCH  15  16
ENDBRANCH   3  15
BRANCH   6  31
ATOM     31  C   UNL     1      52.980   2.873  17.880  0.00  0.00    +0.000 C 
BRANCH  31  32
ATOM     32  N   UNL     1      53.109   1.729  18.763  0.00  0.00    +0.000 N 
ATOM     33  C   UNL     1      53.862   0.674  18.270  0.00  0.00    +0.000 A 
ATOM     34  N   UNL     1      54.445  -0.100  19.197  0.00  0.00    +0.000 NA
ATOM     35  C   UNL     1      55.215  -1.115  18.757  0.00  0.00    +0.000 A 
ATOM     36  C   UNL     1      55.446  -1.372  17.431  0.00  0.00    +0.000 A 
ATOM     37  C   UNL     1      54.802  -0.532  16.559  0.00  0.00    +0.000 A 
ATOM     38  N   UNL     1      54.006   0.483  16.950  0.00  0.00    +0.000 NA
ATOM     39  H   UNL     1      53.487   1.937  19.680  0.00  0.00    +0.000 HD
ENDBRANCH  31  32
ENDBRANCH   6  31
TORSDOF 10
ENDMDL
MODEL 5
REMARK VINA RESULT:    -6.940      4.977      9.025
REMARK INTER + INTRA:         -11.887
REMARK INTER:                 -10.839
REMARK INTRA:                  -1.048
REMARK UNBOUND:                -1.094
REMARK  Name = 
REMARK  10 active torsions:
REMARK  status: ('A' for Active; 'I' for Inactive)
REMARK    1  A    between atoms: N_1  and  C_2
REMARK    2  A    between atoms: C_2  and  C_3
REMARK    3  A    between atoms: C_3  and  N_4
REMARK    4  A    between atoms: N_4  and  C_5
REMARK    5  A    between atoms: C_5  and  C_6
REMARK    6  A    between atoms: C_8  and  C_9
REMARK    7  A    between atoms: C_9  and  N_10
REMARK    8  A    between atoms: C_11  and  C_13
REMARK    9  A    between atoms: C_25  and  C_26
REMARK   10  A    between atoms: C_26  and  N_27
REMARK                            x       y       z     vdW  Elec       q    Type
REMARK                         _______ _______ _______ _____ _____    ______ ____
ROOT
ATOM      1  C   UNL     1      50.650   4.393  18.045  0.00  0.00    +0.000 A 
ATOM      2  C   UNL     1      49.255   4.380  17.812  0.00  0.00    +0.000 A 
ATOM      3  C   UNL     1      48.613   3.289  17.214  0.00  0.00    +0.000 A 
ATOM      4  C   UNL     1      49.378   2.167  16.890  0.00  0.00    +0.000 A 
ATOM      5  C   UNL     1      50.752   2.142  17.158  0.00  0.00    +0.000 A 
ATOM      6  C   UNL     1      51.413   3.246  17.733  0.00  0.00    +0.000 A 
ENDROOT
BRANCH   1   7
ATOM      7  C   UNL     1      51.254   5.680  18.569  0.00  0.00    +0.000 C 
BRANCH   7   8
ATOM      8  N   UNL     1      50.385   6.421  19.492  0.00  0.00    +0.000 NA
ATOM      9  H   UNL     1      49.611   5.807  19.744  0.00  0.00    +0.000 HD
BRANCH   8  10
ATOM     10  C   UNL     1      49.802   7.627  18.879  0.00  0.00    +0.000 C 
BRANCH  10  11
ATOM     11  C   UNL     1      48.293   7.725  19.179  0.00  0.00    +0.000 C 
BRANCH  11  12
ATOM     12  N   UNL     1      47.566   8.466  18.143  0.00  0.00    +0.000 NA
ATOM     13  H   UNL     1      46.676   8.776  18.535  0.00  0.00    +0.000 HD
ATOM     14  H   UNL     1      47.319   7.816  17.399  0.00  0.00    +0.000 HD
ENDBRANCH  11  12
ENDBRANCH  10  11
ENDBRANCH   8  10
ENDBRANCH   7   8
ENDBRANCH   1   7
BRANCH   3  15
ATOM     15  C   UNL     1      47.127   3.328  16.958  0.00  0.00    +0.000 C 
BRANCH  15  16
ATOM     16  N   UNL     1      46.792   4.334  15.981  0.00  0.00    +0.000 N 
ATOM     17  C   UNL     1      46.928   4.104  14.634  0.00  0.00    +0.000 C 
ATOM     18  O   UNL     1      47.290   3.019  14.189  0.00  0.00    +0.000 OA
ATOM     19  H   UNL     1      46.707   5.287  16.321  0.00  0.00    +0.000 HD
BRANCH  17  20
ATOM     20  C   UNL     1      46.556   5.215  13.746  0.00  0.00    +0.000 A 
ATOM     21  C   UNL     1      47.432   6.277  13.565  0.00  0.00    +0.000 A 
ATOM     22  S   UNL     1      46.867   7.454  12.469  0.00  0.00    +0.000 S 
ATOM     23  C   UNL     1      45.403   6.617  12.241  0.00  0.00    +0.000 A 
ATOM     24  N   UNL     1      44.436   7.112  11.423  0.00  0.00    +0.000 NA
ATOM     25  C   UNL     1      43.371   6.386  11.356  0.00  0.00    +0.000 A 
ATOM     26  N   UNL     1      43.186   5.207  12.030  0.00  0.00    +0.000 N 
ATOM     27  C   UNL     1      44.143   4.654  12.851  0.00  0.00    +0.000 A 
ATOM     28  O   UNL     1      43.956   3.582  13.408  0.00  0.00    +0.000 OA
ATOM     29  C   UNL     1      45.359   5.440  12.969  0.00  0.00    +0.000 A 
ATOM     30  H   UNL     1      42.332   4.677  11.924  0.00  0.00    +0.000 HD
ENDBRANCH  17  20
ENDBRANCH  15  16
ENDBRANCH   3  15
BRANCH   6  31
ATOM     31  C   UNL     1      52.907   3.134  18.003  0.00  0.00    +0.000 C 
BRANCH  31  32
ATOM     32  N   UNL     1      53.158   2.035  18.916  0.00  0.00    +0.000 N 
ATOM     33  C   UNL     1      54.006   1.045  18.442  0.00  0.00    +0.000 A 
ATOM     34  N   UNL     1      54.672   0.358  19.381  0.00  0.00    +0.000 NA
ATOM     35  C   UNL     1      55.533  -0.588  18.959  0.00  0.00    +0.000 A 
ATOM     36  C   UNL     1      55.775  -0.859  17.638  0.00  0.00    +0.000 A 
ATOM     37  C   UNL     1      55.042  -0.112  16.752  0.00  0.00    +0.000 A 
ATOM     38  N   UNL     1      54.154   0.831  17.125  0.00  0.00    +0.000 NA
ATOM     39  H   UNL     1      53.523   2.305  19.821  0.00  0.00    +0.000 HD
ENDBRANCH  31  32
ENDBRANCH   6  31
TORSDOF 10
ENDMDL
MODEL 6
REMARK VINA RESULT:    -6.534      5.391      8.515
REMARK INTER + INTRA:         -11.257
REMARK INTER:                 -10.071
REMARK INTRA:                  -1.186
REMARK UNBOUND:                -1.094
REMARK  Name = 
REMARK  10 active torsions:
REMARK  status: ('A' for Active; 'I' for Inactive)
REMARK    1  A    between atoms: N_1  and  C_2
REMARK    2  A    between atoms: C_2  and  C_3
REMARK    3  A    between atoms: C_3  and  N_4
REMARK    4  A    between atoms: N_4  and  C_5
REMARK    5  A    between atoms: C_5  and  C_6
REMARK    6  A    between atoms: C_8  and  C_9
REMARK    7  A    between atoms: C_9  and  N_10
REMARK    8  A    between atoms: C_11  and  C_13
REMARK    9  A    between atoms: C_25  and  C_26
REMARK   10  A    between atoms: C_26  and  N_27
REMARK                            x       y       z     vdW  Elec       q    Type
REMARK                         _______ _______ _______ _____ _____    ______ ____
ROOT
ATOM      1  C   UNL     1      48.872   7.242  14.074  0.00  0.00    +0.000 A 
ATOM      2  C   UNL     1      50.104   7.759  13.612  0.00  0.00    +0.000 A 
ATOM      3  C   UNL     1      50.335   8.028  12.258  0.00  0.00    +0.000 A 
ATOM      4  C   UNL     1      49.291   7.820  11.355  0.00  0.00    +0.000 A 
ATOM      5  C   UNL     1      48.048   7.353  11.800  0.00  0.00    +0.000 A 
ATOM      6  C   UNL     1      47.815   7.053  13.157  0.00  0.00    +0.000 A 
ENDROOT
BRANCH   1   7
ATOM      7  C   UNL     1      48.785   6.860  15.538  0.00  0.00    +0.000 C 
BRANCH   7   8
ATOM      8  N   UNL     1      48.860   5.416  15.790  0.00  0.00    +0.000 NA
ATOM      9  H   UNL     1      48.721   4.942  14.897  0.00  0.00    +0.000 HD
BRANCH   8  10
ATOM     10  C   UNL     1      47.804   4.942  16.701  0.00  0.00    +0.000 C 
BRANCH  10  11
ATOM     11  C   UNL     1      47.802   3.403  16.792  0.00  0.00    +0.000 C 
BRANCH  11  12
ATOM     12  N   UNL     1      46.697   2.895  17.612  0.00  0.00    +0.000 NA
ATOM     13  H   UNL     1      47.047   2.122  18.180  0.00  0.00    +0.000 HD
ATOM     14  H   UNL     1      46.004   2.478  16.992  0.00  0.00    +0.000 HD
ENDBRANCH  11  12
ENDBRANCH  10  11
ENDBRANCH   8  10
ENDBRANCH   7   8
ENDBRANCH   1   7
BRANCH   3  15
ATOM     15  C   UNL     1      51.674   8.554  11.804  0.00  0.00    +0.000 C 
BRANCH  15  16
ATOM     16  N   UNL     1      51.979   8.117  10.464  0.00  0.00    +0.000 N 
ATOM     17  C   UNL     1      52.955   8.725   9.713  0.00  0.00    +0.000 C 
ATOM     18  O   UNL     1      53.651   9.633  10.156  0.00  0.00    +0.000 OA
ATOM     19  H   UNL     1      51.287   7.533  10.007  0.00  0.00    +0.000 HD
BRANCH  17  20
ATOM     20  C   UNL     1      53.163   8.186   8.361  0.00  0.00    +0.000 A 
ATOM     21  C   UNL     1      53.068   9.026   7.261  0.00  0.00    +0.000 A 
ATOM     22  S   UNL     1      53.383   8.250   5.775  0.00  0.00    +0.000 S 
ATOM     23  C   UNL     1      53.600   6.747   6.544  0.00  0.00    +0.000 A 
ATOM     24  N   UNL     1      53.873   5.628   5.823  0.00  0.00    +0.000 NA
ATOM     25  C   UNL     1      53.996   4.554   6.531  0.00  0.00    +0.000 A 
ATOM     26  N   UNL     1      53.874   4.501   7.894  0.00  0.00    +0.000 N 
ATOM     27  C   UNL     1      53.621   5.609   8.670  0.00  0.00    +0.000 A 
ATOM     28  O   UNL     1      53.554   5.529   9.888  0.00  0.00    +0.000 OA
ATOM     29  C   UNL     1      53.463   6.843   7.919  0.00  0.00    +0.000 A 
ATOM     30  H   UNL     1      53.996   3.629   8.392  0.00  0.00    +0.000 HD
ENDBRANCH  17  20
ENDBRANCH  15  16
ENDBRANCH   3  15
BRANCH   6  31
ATOM     31  C   UNL     1      46.432   6.561  13.562  0.00  0.00    +0.000 C 
BRANCH  31  32
ATOM     32  N   UNL     1      45.525   6.669  12.434  0.00  0.00    +0.000 N 
ATOM     33  C   UNL     1      44.836   5.511  12.108  0.00  0.00    +0.000 A 
ATOM     34  N   UNL     1      43.657   5.696  11.494  0.00  0.00    +0.000 NA
ATOM     35  C   UNL     1      42.940   4.596  11.193  0.00  0.00    +0.000 A 
ATOM     36  C   UNL     1      43.339   3.322  11.502  0.00  0.00    +0.000 A 
ATOM     37  C   UNL     1      44.559   3.233  12.121  0.00  0.00    +0.000 A 
ATOM     38  N   UNL     1      45.323   4.302  12.424  0.00  0.00    +0.000 NA
ATOM     39  H   UNL     1      44.826   7.397  12.516  0.00  0.00    +0.000 HD
ENDBRANCH  31  32
ENDBRANCH   6  31
TORSDOF 10
ENDMDL
MODEL 7
REMARK VINA RESULT:    -6.454      3.718      9.922
REMARK INTER + INTRA:         -11.132
REMARK INTER:                  -9.730
REMARK INTRA:                  -1.402
REMARK UNBOUND:                -1.094
REMARK  Name = 
REMARK  10 active torsions:
REMARK  status: ('A' for Active; 'I' for Inactive)
REMARK    1  A    between atoms: N_1  and  C_2
REMARK    2  A    between atoms: C_2  and  C_3
REMARK    3  A    between atoms: C_3  and  N_4
REMARK    4  A    between atoms: N_4  and  C_5
REMARK    5  A    between atoms: C_5  and  C_6
REMARK    6  A    between atoms: C_8  and  C_9
REMARK    7  A    between atoms: C_9  and  N_10
REMARK    8  A    between atoms: C_11  and  C_13
REMARK    9  A    between atoms: C_25  and  C_26
REMARK   10  A    between atoms: C_26  and  N_27
REMARK                            x       y       z     vdW  Elec       q    Type
REMARK                         _______ _______ _______ _____ _____    ______ ____
ROOT
ATOM      1  C   UNL     1      49.227   6.737  15.252  0.00  0.00    +0.000 A 
ATOM      2  C   UNL     1      48.282   6.847  14.206  0.00  0.00    +0.000 A 
ATOM      3  C   UNL     1      48.360   7.856  13.239  0.00  0.00    +0.000 A 
ATOM      4  C   UNL     1      49.436   8.743  13.293  0.00  0.00    +0.000 A 
ATOM      5  C   UNL     1      50.408   8.620  14.293  0.00  0.00    +0.000 A 
ATOM      6  C   UNL     1      50.324   7.626  15.288  0.00  0.00    +0.000 A 
ENDROOT
BRANCH   1   7
ATOM      7  C   UNL     1      48.964   5.693  16.319  0.00  0.00    +0.000 C 
BRANCH   7   8
ATOM      8  N   UNL     1      48.178   6.181  17.458  0.00  0.00    +0.000 NA
ATOM      9  H   UNL     1      48.829   6.379  18.218  0.00  0.00    +0.000 HD
BRANCH   8  10
ATOM     10  C   UNL     1      47.219   5.181  17.958  0.00  0.00    +0.000 C 
BRANCH  10  11
ATOM     11  C   UNL     1      47.266   3.896  17.106  0.00  0.00    +0.000 C 
BRANCH  11  12
ATOM     12  N   UNL     1      46.570   2.776  17.748  0.00  0.00    +0.000 NA
ATOM     13  H   UNL     1      46.731   1.936  17.191  0.00  0.00    +0.000 HD
ATOM     14  H   UNL     1      45.568   2.948  17.691  0.00  0.00    +0.000 HD
ENDBRANCH  11  12
ENDBRANCH  10  11
ENDBRANCH   8  10
ENDBRANCH   7   8
ENDBRANCH   1   7
BRANCH   3  15
ATOM     15  C   UNL     1      47.315   7.953  12.156  0.00  0.00    +0.000 C 
BRANCH  15  16
ATOM     16  N   UNL     1      46.655   6.687  11.953  0.00  0.00    +0.000 N 
ATOM     17  C   UNL     1      45.326   6.613  11.612  0.00  0.00    +0.000 C 
ATOM     18  O   UNL     1      44.646   7.615  11.411  0.00  0.00    +0.000 OA
ATOM     19  H   UNL     1      47.123   5.866  12.322  0.00  0.00    +0.000 HD
BRANCH  17  20
ATOM     20  C   UNL     1      44.775   5.261  11.440  0.00  0.00    +0.000 A 
ATOM     21  C   UNL     1      44.061   4.671  12.473  0.00  0.00    +0.000 A 
ATOM     22  S   UNL     1      43.452   3.124  12.091  0.00  0.00    +0.000 S 
ATOM     23  C   UNL     1      44.174   3.162  10.550  0.00  0.00    +0.000 A 
ATOM     24  N   UNL     1      44.061   2.106   9.701  0.00  0.00    +0.000 NA
ATOM     25  C   UNL     1      44.671   2.261   8.573  0.00  0.00    +0.000 A 
ATOM     26  N   UNL     1      45.380   3.377   8.217  0.00  0.00    +0.000 N 
ATOM     27  C   UNL     1      45.505   4.480   9.032  0.00  0.00    +0.000 A 
ATOM     28  O   UNL     1      46.116   5.473   8.666  0.00  0.00    +0.000 OA
ATOM     29  C   UNL     1      44.844   4.351  10.319  0.00  0.00    +0.000 A 
ATOM     30  H   UNL     1      45.824   3.442   7.312  0.00  0.00    +0.000 HD
ENDBRANCH  17  20
ENDBRANCH  15  16
ENDBRANCH   3  15
BRANCH   6  31
ATOM     31  C   UNL     1      51.429   7.553  16.334  0.00  0.00    +0.000 C 
BRANCH  31  32
ATOM     32  N   UNL     1      50.939   8.066  17.599  0.00  0.00    +0.000 N 
ATOM     33  C   UNL     1      51.434   7.438  18.732  0.00  0.00    +0.000 A 
ATOM     34  N   UNL     1      51.458   8.188  19.843  0.00  0.00    +0.000 NA
ATOM     35  C   UNL     1      51.966   7.625  20.957  0.00  0.00    +0.000 A 
ATOM     36  C   UNL     1      52.473   6.352  21.000  0.00  0.00    +0.000 A 
ATOM     37  C   UNL     1      52.399   5.661  19.818  0.00  0.00    +0.000 A 
ATOM     38  N   UNL     1      51.882   6.174  18.684  0.00  0.00    +0.000 NA
ATOM     39  H   UNL     1      51.085   9.058  17.744  0.00  0.00    +0.000 HD
ENDBRANCH  31  32
ENDBRANCH   6  31
TORSDOF 10
ENDMDL
MODEL 8
REMARK VINA RESULT:    -6.377      3.220      9.813
REMARK INTER + INTRA:         -11.012
REMARK INTER:                  -9.735
REMARK INTRA:                  -1.277
REMARK UNBOUND:                -1.094
REMARK  Name = 
REMARK  10 active torsions:
REMARK  status: ('A' for Active; 'I' for Inactive)
REMARK    1  A    between atoms: N_1  and  C_2
REMARK    2  A    between atoms: C_2  and  C_3
REMARK    3  A    between atoms: C_3  and  N_4
REMARK    4  A    between atoms: N_4  and  C_5
REMARK    5  A    between atoms: C_5  and  C_6
REMARK    6  A    between atoms: C_8  and  C_9
REMARK    7  A    between atoms: C_9  and  N_10
REMARK    8  A    between atoms: C_11  and  C_13
REMARK    9  A    between atoms: C_25  and  C_26
REMARK   10  A    between atoms: C_26  and  N_27
REMARK                            x       y       z     vdW  Elec       q    Type
REMARK                         _______ _______ _______ _____ _____    ______ ____
ROOT
ATOM      1  C   UNL     1      48.827   6.798  15.279  0.00  0.00    +0.000 A 
ATOM      2  C   UNL     1      48.009   6.853  14.127  0.00  0.00    +0.000 A 
ATOM      3  C   UNL     1      47.901   8.011  13.348  0.00  0.00    +0.000 A 
ATOM      4  C   UNL     1      48.669   9.121  13.702  0.00  0.00    +0.000 A 
ATOM      5  C   UNL     1      49.522   9.070  14.812  0.00  0.00    +0.000 A 
ATOM      6  C   UNL     1      49.616   7.919  15.619  0.00  0.00    +0.000 A 
ENDROOT
BRANCH   1   7
ATOM      7  C   UNL     1      48.758   5.540  16.120  0.00  0.00    +0.000 C 
BRANCH   7   8
ATOM      8  N   UNL     1      47.670   5.535  17.106  0.00  0.00    +0.000 NA
ATOM      9  H   UNL     1      48.054   5.875  17.988  0.00  0.00    +0.000 HD
BRANCH   8  10
ATOM     10  C   UNL     1      47.137   4.185  17.357  0.00  0.00    +0.000 C 
BRANCH  10  11
ATOM     11  C   UNL     1      48.238   3.244  17.886  0.00  0.00    +0.000 C 
BRANCH  11  12
ATOM     12  N   UNL     1      48.382   3.318  19.344  0.00  0.00    +0.000 NA
ATOM     13  H   UNL     1      49.062   4.048  19.563  0.00  0.00    +0.000 HD
ATOM     14  H   UNL     1      48.808   2.451  19.667  0.00  0.00    +0.000 HD
ENDBRANCH  11  12
ENDBRANCH  10  11
ENDBRANCH   8  10
ENDBRANCH   7   8
ENDBRANCH   1   7
BRANCH   3  15
ATOM     15  C   UNL     1      46.996   8.035  12.141  0.00  0.00    +0.000 C 
BRANCH  15  16
ATOM     16  N   UNL     1      46.445   6.729  11.877  0.00  0.00    +0.000 N 
ATOM     17  C   UNL     1      45.120   6.556  11.560  0.00  0.00    +0.000 C 
ATOM     18  O   UNL     1      44.349   7.503  11.433  0.00  0.00    +0.000 OA
ATOM     19  H   UNL     1      46.993   5.933  12.186  0.00  0.00    +0.000 HD
BRANCH  17  20
ATOM     20  C   UNL     1      44.686   5.173  11.319  0.00  0.00    +0.000 A 
ATOM     21  C   UNL     1      43.923   4.513  12.273  0.00  0.00    +0.000 A 
ATOM     22  S   UNL     1      43.466   2.935  11.815  0.00  0.00    +0.000 S 
ATOM     23  C   UNL     1      44.321   3.054  10.349  0.00  0.00    +0.000 A 
ATOM     24  N   UNL     1      44.363   2.010   9.478  0.00  0.00    +0.000 NA
ATOM     25  C   UNL     1      45.061   2.231   8.415  0.00  0.00    +0.000 A 
ATOM     26  N   UNL     1      45.719   3.401   8.142  0.00  0.00    +0.000 N 
ATOM     27  C   UNL     1      45.688   4.493   8.979  0.00  0.00    +0.000 A 
ATOM     28  O   UNL     1      46.258   5.534   8.685  0.00  0.00    +0.000 OA
ATOM     29  C   UNL     1      44.923   4.292  10.197  0.00  0.00    +0.000 A 
ATOM     30  H   UNL     1      46.238   3.516   7.282  0.00  0.00    +0.000 HD
ENDBRANCH  17  20
ENDBRANCH  15  16
ENDBRANCH   3  15
BRANCH   6  31
ATOM     31  C   UNL     1      50.576   7.941  16.801  0.00  0.00    +0.000 C 
BRANCH  31  32
ATOM     32  N   UNL     1      49.868   7.571  18.013  0.00  0.00    +0.000 N 
ATOM     33  C   UNL     1      49.054   8.555  18.553  0.00  0.00    +0.000 A 
ATOM     34  N   UNL     1      48.020   8.111  19.283  0.00  0.00    +0.000 NA
ATOM     35  C   UNL     1      47.185   9.035  19.796  0.00  0.00    +0.000 A 
ATOM     36  C   UNL     1      47.326  10.383  19.589  0.00  0.00    +0.000 A 
ATOM     37  C   UNL     1      48.415  10.741  18.838  0.00  0.00    +0.000 A 
ATOM     38  N   UNL     1      49.290   9.855  18.320  0.00  0.00    +0.000 NA
ATOM     39  H   UNL     1      49.291   6.743  17.935  0.00  0.00    +0.000 HD
ENDBRANCH  31  32
ENDBRANCH   6  31
TORSDOF 10
ENDMDL
MODEL 9
REMARK VINA RESULT:    -6.373      4.602      8.938
REMARK INTER + INTRA:         -11.006
REMARK INTER:                  -9.837
REMARK INTRA:                  -1.169
REMARK UNBOUND:                -1.094
REMARK  Name = 
REMARK  10 active torsions:
REMARK  status: ('A' for Active; 'I' for Inactive)
REMARK    1  A    between atoms: N_1  and  C_2
REMARK    2  A    between atoms: C_2  and  C_3
REMARK    3  A    between atoms: C_3  and  N_4
REMARK    4  A    between atoms: N_4  and  C_5
REMARK    5  A    between atoms: C_5  and  C_6
REMARK    6  A    between atoms: C_8  and  C_9
REMARK    7  A    between atoms: C_9  and  N_10
REMARK    8  A    between atoms: C_11  and  C_13
REMARK    9  A    between atoms: C_25  and  C_26
REMARK   10  A    between atoms: C_26  and  N_27
REMARK                            x       y       z     vdW  Elec       q    Type
REMARK                         _______ _______ _______ _____ _____    ______ ____
ROOT
ATOM      1  C   UNL     1      50.523   5.735  17.044  0.00  0.00    +0.000 A 
ATOM      2  C   UNL     1      49.206   5.314  16.746  0.00  0.00    +0.000 A 
ATOM      3  C   UNL     1      48.768   4.010  17.002  0.00  0.00    +0.000 A 
ATOM      4  C   UNL     1      49.653   3.123  17.618  0.00  0.00    +0.000 A 
ATOM      5  C   UNL     1      50.945   3.536  17.966  0.00  0.00    +0.000 A 
ATOM      6  C   UNL     1      51.405   4.838  17.685  0.00  0.00    +0.000 A 
ENDROOT
BRANCH   1   7
ATOM      7  C   UNL     1      50.926   7.125  16.596  0.00  0.00    +0.000 C 
BRANCH   7   8
ATOM      8  N   UNL     1      51.274   7.221  15.173  0.00  0.00    +0.000 NA
ATOM      9  H   UNL     1      52.055   7.872  15.092  0.00  0.00    +0.000 HD
BRANCH   8  10
ATOM     10  C   UNL     1      50.174   7.760  14.354  0.00  0.00    +0.000 C 
BRANCH  10  11
ATOM     11  C   UNL     1      50.709   8.378  13.047  0.00  0.00    +0.000 C 
BRANCH  11  12
ATOM     12  N   UNL     1      49.657   8.549  12.039  0.00  0.00    +0.000 NA
ATOM     13  H   UNL     1      49.667   9.520  11.725  0.00  0.00    +0.000 HD
ATOM     14  H   UNL     1      48.755   8.424  12.496  0.00  0.00    +0.000 HD
ENDBRANCH  11  12
ENDBRANCH  10  11
ENDBRANCH   8  10
ENDBRANCH   7   8
ENDBRANCH   1   7
BRANCH   3  15
ATOM     15  C   UNL     1      47.363   3.595  16.643  0.00  0.00    +0.000 C 
BRANCH  15  16
ATOM     16  N   UNL     1      46.781   4.502  15.684  0.00  0.00    +0.000 N 
ATOM     17  C   UNL     1      46.764   4.216  14.340  0.00  0.00    +0.000 C 
ATOM     18  O   UNL     1      47.193   3.158  13.891  0.00  0.00    +0.000 OA
ATOM     19  H   UNL     1      46.626   5.455  15.995  0.00  0.00    +0.000 HD
BRANCH  17  20
ATOM     20  C   UNL     1      46.145   5.227  13.471  0.00  0.00    +0.000 A 
ATOM     21  C   UNL     1      46.839   6.388  13.159  0.00  0.00    +0.000 A 
ATOM     22  S   UNL     1      45.997   7.429  12.103  0.00  0.00    +0.000 S 
ATOM     23  C   UNL     1      44.648   6.393  12.071  0.00  0.00    +0.000 A 
ATOM     24  N   UNL     1      43.536   6.717  11.358  0.00  0.00    +0.000 NA
ATOM     25  C   UNL     1      42.581   5.851  11.436  0.00  0.00    +0.000 A 
ATOM     26  N   UNL     1      42.639   4.689  12.159  0.00  0.00    +0.000 N 
ATOM     27  C   UNL     1      43.748   4.307  12.878  0.00  0.00    +0.000 A 
ATOM     28  O   UNL     1      43.776   3.245  13.483  0.00  0.00    +0.000 OA
ATOM     29  C   UNL     1      44.849   5.254  12.832  0.00  0.00    +0.000 A 
ATOM     30  H   UNL     1      41.860   4.045  12.168  0.00  0.00    +0.000 HD
ENDBRANCH  17  20
ENDBRANCH  15  16
ENDBRANCH   3  15
BRANCH   6  31
ATOM     31  C   UNL     1      52.820   5.212  18.107  0.00  0.00    +0.000 C 
BRANCH  31  32
ATOM     32  N   UNL     1      53.777   4.389  17.390  0.00  0.00    +0.000 N 
ATOM     33  C   UNL     1      54.341   3.353  18.119  0.00  0.00    +0.000 A 
ATOM     34  N   UNL     1      54.757   2.302  17.399  0.00  0.00    +0.000 NA
ATOM     35  C   UNL     1      55.279   1.259  18.074  0.00  0.00    +0.000 A 
ATOM     36  C   UNL     1      55.377   1.213  19.440  0.00  0.00    +0.000 A 
ATOM     37  C   UNL     1      54.933   2.336  20.089  0.00  0.00    +0.000 A 
ATOM     38  N   UNL     1      54.423   3.412  19.457  0.00  0.00    +0.000 NA
ATOM     39  H   UNL     1      53.426   3.971  16.537  0.00  0.00    +0.000 HD
ENDBRANCH  31  32
ENDBRANCH   6  31
TORSDOF 10
ENDMDL
