MODEL 1
REMARK VINA RESULT:    -7.850      0.000      0.000
REMARK INTER + INTRA:         -12.058
REMARK INTER:                 -11.063
REMARK INTRA:                  -0.995
REMARK UNBOUND:                -0.995
REMARK  Name = 
REMARK  8 active torsions:
REMARK  status: ('A' for Active; 'I' for Inactive)
REMARK    1  A    between atoms: C_1  and  C_2
REMARK    2  A    between atoms: C_2  and  O_3
REMARK    3  A    between atoms: O_3  and  C_4
REMARK    4  A    between atoms: C_8  and  C_9
REMARK    5  A    between atoms: C_9  and  C_10
REMARK    6  A    between atoms: C_13  and  C_14
REMARK    7  A    between atoms: C_14  and  N_15
REMARK    8  A    between atoms: C_16  and  C_18
REMARK                            x       y       z     vdW  Elec       q    Type
REMARK                         _______ _______ _______ _____ _____    ______ ____
ROOT
ATOM      1  C   UNL     1      44.858   6.037  11.316  0.00  0.00    +0.000 A 
ATOM      2  C   UNL     1      46.087   5.479  11.651  0.00  0.00    +0.000 A 
ATOM      3  C   UNL     1      46.961   6.206  12.464  0.00  0.00    +0.000 A 
ATOM      4  C   UNL     1      46.622   7.500  12.877  0.00  0.00    +0.000 A 
ATOM      5  C   UNL     1      45.399   7.989  12.447  0.00  0.00    +0.000 A 
ATOM      6  N   UNL     1      44.512   7.295  11.689  0.00  0.00    +0.000 NA
ENDROOT
BRANCH   1   7
ATOM      7  C   UNL     1      43.808   5.191  10.634  0.00  0.00    +0.000 C 
BRANCH   7  12
ATOM      8  C   UNL     1      45.688   3.453   7.800  0.00  0.00    +0.000 A 
ATOM      9  C   UNL     1      45.587   2.119   8.195  0.00  0.00    +0.000 A 
ATOM     10  C   UNL     1      44.809   1.771   9.294  0.00  0.00    +0.000 A 
ATOM     11  C   UNL     1      44.157   2.756  10.033  0.00  0.00    +0.000 A 
ATOM     12  C   UNL     1      44.309   4.108   9.706  0.00  0.00    +0.000 A 
ATOM     13  C   UNL     1      45.050   4.444   8.557  0.00  0.00    +0.000 A 
BRANCH   8  14
ATOM     14  O   UNL     1      46.406   3.897   6.720  0.00  0.00    +0.000 OA
BRANCH  14  16
ATOM     15  C   UNL     1      48.031   2.264   6.075  0.00  0.00    +0.000 C 
ATOM     16  C   UNL     1      46.704   2.906   5.734  0.00  0.00    +0.000 C 
ENDBRANCH  14  16
ENDBRANCH   8  14
ENDBRANCH   7  12
ENDBRANCH   1   7
BRANCH   4  17
ATOM     17  C   UNL     1      47.527   8.335  13.745  0.00  0.00    +0.000 C 
BRANCH  17  18
ATOM     18  N   UNL     1      47.912   7.668  14.968  0.00  0.00    +0.000 N 
ATOM     19  C   UNL     1      49.158   7.091  15.106  0.00  0.00    +0.000 C 
ATOM     20  O   UNL     1      50.006   7.132  14.225  0.00  0.00    +0.000 OA
ATOM     21  H   UNL     1      47.165   7.319  15.556  0.00  0.00    +0.000 HD
BRANCH  19  22
ATOM     22  C   UNL     1      49.428   6.470  16.415  0.00  0.00    +0.000 A 
ATOM     23  C   UNL     1      50.371   7.027  17.269  0.00  0.00    +0.000 A 
ATOM     24  S   UNL     1      50.548   6.176  18.738  0.00  0.00    +0.000 S 
ATOM     25  C   UNL     1      49.398   5.013  18.269  0.00  0.00    +0.000 A 
ATOM     26  N   UNL     1      49.102   3.956  19.073  0.00  0.00    +0.000 NA
ATOM     27  C   UNL     1      48.231   3.135  18.579  0.00  0.00    +0.000 A 
ATOM     28  N   UNL     1      47.623   3.287  17.358  0.00  0.00    +0.000 N 
ATOM     29  C   UNL     1      47.849   4.368  16.543  0.00  0.00    +0.000 A 
ATOM     30  O   UNL     1      47.219   4.526  15.500  0.00  0.00    +0.000 OA
ATOM     31  C   UNL     1      48.854   5.293  17.028  0.00  0.00    +0.000 A 
ATOM     32  H   UNL     1      46.926   2.626  17.044  0.00  0.00    +0.000 HD
ENDBRANCH  19  22
ENDBRANCH  17  18
ENDBRANCH   4  17
TORSDOF 7
ENDMDL
MODEL 2
REMARK VINA RESULT:    -7.420      2.259      2.800
REMARK INTER + INTRA:         -11.451
REMARK INTER:                 -10.414
REMARK INTRA:                  -1.038
REMARK UNBOUND:                -0.995
REMARK  Name = 
REMARK  8 active torsions:
REMARK  status: ('A' for Active; 'I' for Inactive)
REMARK    1  A    between atoms: C_1  and  C_2
REMARK    2  A    between atoms: C_2  and  O_3
REMARK    3  A    between atoms: O_3  and  C_4
REMARK    4  A    between atoms: C_8  and  C_9
REMARK    5  A    between atoms: C_9  and  C_10
REMARK    6  A    between atoms: C_13  and  C_14
REMARK    7  A    between atoms: C_14  and  N_15
REMARK    8  A    between atoms: C_16  and  C_18
REMARK                            x       y       z     vdW  Elec       q    Type
REMARK                         _______ _______ _______ _____ _____    ______ ____
ROOT
ATOM      1  C   UNL     1      45.074   5.703  12.017  0.00  0.00    +0.000 A 
ATOM      2  C   UNL     1      45.506   7.024  12.008  0.00  0.00    +0.000 A 
ATOM      3  C   UNL     1      46.641   7.371  12.746  0.00  0.00    +0.000 A 
ATOM      4  C   UNL     1      47.289   6.408  13.528  0.00  0.00    +0.000 A 
ATOM      5  C   UNL     1      46.752   5.131  13.513  0.00  0.00    +0.000 A 
ATOM      6  N   UNL     1      45.674   4.753  12.779  0.00  0.00    +0.000 NA
ENDROOT
BRANCH   1   7
ATOM      7  C   UNL     1      43.996   5.257  11.057  0.00  0.00    +0.000 C 
BRANCH   7  12
ATOM      8  C   UNL     1      45.729   3.536   8.122  0.00  0.00    +0.000 A 
ATOM      9  C   UNL     1      45.441   2.198   8.392  0.00  0.00    +0.000 A 
ATOM     10  C   UNL     1      44.587   1.862   9.438  0.00  0.00    +0.000 A 
ATOM     11  C   UNL     1      44.045   2.858  10.247  0.00  0.00    +0.000 A 
ATOM     12  C   UNL     1      44.383   4.201  10.047  0.00  0.00    +0.000 A 
ATOM     13  C   UNL     1      45.200   4.533   8.949  0.00  0.00    +0.000 A 
BRANCH   8  14
ATOM     14  O   UNL     1      46.535   3.972   7.102  0.00  0.00    +0.000 OA
BRANCH  14  16
ATOM     15  C   UNL     1      47.905   2.435   5.884  0.00  0.00    +0.000 C 
ATOM     16  C   UNL     1      46.564   3.135   5.944  0.00  0.00    +0.000 C 
ENDBRANCH  14  16
ENDBRANCH   8  14
ENDBRANCH   7  12
ENDBRANCH   1   7
BRANCH   4  17
ATOM     17  C   UNL     1      48.511   6.723  14.352  0.00  0.00    +0.000 C 
BRANCH  17  18
ATOM     18  N   UNL     1      48.256   6.701  15.774  0.00  0.00    +0.000 N 
ATOM     19  C   UNL     1      49.219   6.278  16.667  0.00  0.00    +0.000 C 
ATOM     20  O   UNL     1      50.337   5.926  16.314  0.00  0.00    +0.000 OA
ATOM     21  H   UNL     1      47.288   6.648  16.067  0.00  0.00    +0.000 HD
BRANCH  19  22
ATOM     22  C   UNL     1      48.835   6.334  18.089  0.00  0.00    +0.000 A 
ATOM     23  C   UNL     1      49.005   5.220  18.899  0.00  0.00    +0.000 A 
ATOM     24  S   UNL     1      48.509   5.469  20.513  0.00  0.00    +0.000 S 
ATOM     25  C   UNL     1      48.016   7.062  20.177  0.00  0.00    +0.000 A 
ATOM     26  N   UNL     1      47.447   7.838  21.139  0.00  0.00    +0.000 NA
ATOM     27  C   UNL     1      47.095   9.017  20.736  0.00  0.00    +0.000 A 
ATOM     28  N   UNL     1      47.275   9.490  19.461  0.00  0.00    +0.000 N 
ATOM     29  C   UNL     1      47.896   8.762  18.477  0.00  0.00    +0.000 A 
ATOM     30  O   UNL     1      48.129   9.247  17.372  0.00  0.00    +0.000 OA
ATOM     31  C   UNL     1      48.265   7.415  18.862  0.00  0.00    +0.000 A 
ATOM     32  H   UNL     1      47.006  10.434  19.219  0.00  0.00    +0.000 HD
ENDBRANCH  19  22
ENDBRANCH  17  18
ENDBRANCH   4  17
TORSDOF 7
ENDMDL
MODEL 3
REMARK VINA RESULT:    -7.173      1.655      2.375
REMARK INTER + INTRA:         -11.104
REMARK INTER:                  -9.567
REMARK INTRA:                  -1.537
REMARK UNBOUND:                -0.995
REMARK  Name = 
REMARK  8 active torsions:
REMARK  status: ('A' for Active; 'I' for Inactive)
REMARK    1  A    between atoms: C_1  and  C_2
REMARK    2  A    between atoms: C_2  and  O_3
REMARK    3  A    between atoms: O_3  and  C_4
REMARK    4  A    between atoms: C_8  and  C_9
REMARK    5  A    between atoms: C_9  and  C_10
REMARK    6  A    between atoms: C_13  and  C_14
REMARK    7  A    between atoms: C_14  and  N_15
REMARK    8  A    between atoms: C_16  and  C_18
REMARK                            x       y       z     vdW  Elec       q    Type
REMARK                         _______ _______ _______ _____ _____    ______ ____
ROOT
ATOM      1  C   UNL     1      45.693   7.468  11.757  0.00  0.00    +0.000 A 
ATOM      2  C   UNL     1      46.824   6.668  11.637  0.00  0.00    +0.000 A 
ATOM      3  C   UNL     1      47.959   6.984  12.388  0.00  0.00    +0.000 A 
ATOM      4  C   UNL     1      47.969   8.126  13.197  0.00  0.00    +0.000 A 
ATOM      5  C   UNL     1      46.812   8.889  13.209  0.00  0.00    +0.000 A 
ATOM      6  N   UNL     1      45.681   8.589  12.521  0.00  0.00    +0.000 NA
ENDROOT
BRANCH   1   7
ATOM      7  C   UNL     1      44.388   7.024  11.137  0.00  0.00    +0.000 C 
BRANCH   7  12
ATOM      8  C   UNL     1      43.827   3.266  10.765  0.00  0.00    +0.000 A 
ATOM      9  C   UNL     1      43.510   2.914  12.077  0.00  0.00    +0.000 A 
ATOM     10  C   UNL     1      43.352   3.898  13.048  0.00  0.00    +0.000 A 
ATOM     11  C   UNL     1      43.547   5.239  12.725  0.00  0.00    +0.000 A 
ATOM     12  C   UNL     1      43.944   5.610  11.434  0.00  0.00    +0.000 A 
ATOM     13  C   UNL     1      44.043   4.612  10.447  0.00  0.00    +0.000 A 
BRANCH   8  14
ATOM     14  O   UNL     1      43.979   2.376   9.732  0.00  0.00    +0.000 OA
BRANCH  14  16
ATOM     15  C   UNL     1      45.904   1.777   8.445  0.00  0.00    +0.000 C 
ATOM     16  C   UNL     1      44.825   2.815   8.667  0.00  0.00    +0.000 C 
ENDBRANCH  14  16
ENDBRANCH   8  14
ENDBRANCH   7  12
ENDBRANCH   1   7
BRANCH   4  17
ATOM     17  C   UNL     1      49.165   8.523  14.022  0.00  0.00    +0.000 C 
BRANCH  17  18
ATOM     18  N   UNL     1      49.309   7.737  15.226  0.00  0.00    +0.000 N 
ATOM     19  C   UNL     1      48.741   8.142  16.417  0.00  0.00    +0.000 C 
ATOM     20  O   UNL     1      48.071   9.162  16.516  0.00  0.00    +0.000 OA
ATOM     21  H   UNL     1      50.102   7.110  15.274  0.00  0.00    +0.000 HD
BRANCH  19  22
ATOM     22  C   UNL     1      48.942   7.231  17.558  0.00  0.00    +0.000 A 
ATOM     23  C   UNL     1      49.407   7.726  18.769  0.00  0.00    +0.000 A 
ATOM     24  S   UNL     1      49.575   6.529  19.975  0.00  0.00    +0.000 S 
ATOM     25  C   UNL     1      49.069   5.303  18.910  0.00  0.00    +0.000 A 
ATOM     26  N   UNL     1      49.027   4.003  19.308  0.00  0.00    +0.000 NA
ATOM     27  C   UNL     1      48.651   3.174  18.387  0.00  0.00    +0.000 A 
ATOM     28  N   UNL     1      48.301   3.535  17.111  0.00  0.00    +0.000 N 
ATOM     29  C   UNL     1      48.273   4.840  16.686  0.00  0.00    +0.000 A 
ATOM     30  O   UNL     1      47.863   5.141  15.567  0.00  0.00    +0.000 OA
ATOM     31  C   UNL     1      48.734   5.804  17.664  0.00  0.00    +0.000 A 
ATOM     32  H   UNL     1      47.983   2.841  16.448  0.00  0.00    +0.000 HD
ENDBRANCH  19  22
ENDBRANCH  17  18
ENDBRANCH   4  17
TORSDOF 7
ENDMDL
MODEL 4
REMARK VINA RESULT:    -7.001      3.069      8.744
REMARK INTER + INTRA:         -10.861
REMARK INTER:                  -9.481
REMARK INTRA:                  -1.380
REMARK UNBOUND:                -0.995
REMARK  Name = 
REMARK  8 active torsions:
REMARK  status: ('A' for Active; 'I' for Inactive)
REMARK    1  A    between atoms: C_1  and  C_2
REMARK    2  A    between atoms: C_2  and  O_3
REMARK    3  A    between atoms: O_3  and  C_4
REMARK    4  A    between atoms: C_8  and  C_9
REMARK    5  A    between atoms: C_9  and  C_10
REMARK    6  A    between atoms: C_13  and  C_14
REMARK    7  A    between atoms: C_14  and  N_15
REMARK    8  A    between atoms: C_16  and  C_18
REMARK                            x       y       z     vdW  Elec       q    Type
REMARK                         _______ _______ _______ _____ _____    ______ ____
ROOT
ATOM      1  C   UNL     1      49.378   8.323  15.829  0.00  0.00    +0.000 A 
ATOM      2  C   UNL     1      48.354   9.164  15.408  0.00  0.00    +0.000 A 
ATOM      3  C   UNL     1      47.830   9.003  14.123  0.00  0.00    +0.000 A 
ATOM      4  C   UNL     1      48.376   8.047  13.259  0.00  0.00    +0.000 A 
ATOM      5  C   UNL     1      49.429   7.293  13.751  0.00  0.00    +0.000 A 
ATOM      6  N   UNL     1      49.936   7.399  15.006  0.00  0.00    +0.000 NA
ENDROOT
BRANCH   1   7
ATOM      7  C   UNL     1      49.805   8.323  17.278  0.00  0.00    +0.000 C 
BRANCH   7  12
ATOM      8  C   UNL     1      47.474   5.748  18.865  0.00  0.00    +0.000 A 
ATOM      9  C   UNL     1      47.446   6.195  20.186  0.00  0.00    +0.000 A 
ATOM     10  C   UNL     1      48.067   7.390  20.535  0.00  0.00    +0.000 A 
ATOM     11  C   UNL     1      48.756   8.129  19.575  0.00  0.00    +0.000 A 
ATOM     12  C   UNL     1      48.867   7.660  18.261  0.00  0.00    +0.000 A 
ATOM     13  C   UNL     1      48.184   6.480  17.907  0.00  0.00    +0.000 A 
BRANCH   8  14
ATOM     14  O   UNL     1      46.873   4.601  18.415  0.00  0.00    +0.000 OA
BRANCH  14  16
ATOM     15  C   UNL     1      47.849   2.847  17.113  0.00  0.00    +0.000 C 
ATOM     16  C   UNL     1      47.207   4.218  17.079  0.00  0.00    +0.000 C 
ENDBRANCH  14  16
ENDBRANCH   8  14
ENDBRANCH   7  12
ENDBRANCH   1   7
BRANCH   4  17
ATOM     17  C   UNL     1      47.860   7.832  11.859  0.00  0.00    +0.000 C 
BRANCH  17  18
ATOM     18  N   UNL     1      47.055   6.639  11.730  0.00  0.00    +0.000 N 
ATOM     19  C   UNL     1      45.676   6.704  11.712  0.00  0.00    +0.000 C 
ATOM     20  O   UNL     1      45.064   7.762  11.778  0.00  0.00    +0.000 OA
ATOM     21  H   UNL     1      47.480   5.765  12.013  0.00  0.00    +0.000 HD
BRANCH  19  22
ATOM     22  C   UNL     1      44.982   5.415  11.546  0.00  0.00    +0.000 A 
ATOM     23  C   UNL     1      44.227   4.892  12.588  0.00  0.00    +0.000 A 
ATOM     24  S   UNL     1      43.494   3.397  12.214  0.00  0.00    +0.000 S 
ATOM     25  C   UNL     1      44.190   3.377  10.662  0.00  0.00    +0.000 A 
ATOM     26  N   UNL     1      43.994   2.327   9.820  0.00  0.00    +0.000 NA
ATOM     27  C   UNL     1      44.605   2.432   8.683  0.00  0.00    +0.000 A 
ATOM     28  N   UNL     1      45.384   3.500   8.314  0.00  0.00    +0.000 N 
ATOM     29  C   UNL     1      45.560   4.604   9.110  0.00  0.00    +0.000 A 
ATOM     30  O   UNL     1      46.183   5.586   8.713  0.00  0.00    +0.000 OA
ATOM     31  C   UNL     1      44.936   4.516  10.415  0.00  0.00    +0.000 A 
ATOM     32  H   UNL     1      45.808   3.536   7.397  0.00  0.00    +0.000 HD
ENDBRANCH  19  22
ENDBRANCH  17  18
ENDBRANCH   4  17
TORSDOF 7
ENDMDL
MODEL 5
REMARK VINA RESULT:    -6.897      2.456      3.869
REMARK INTER + INTRA:         -10.714
REMARK INTER:                  -9.663
REMARK INTRA:                  -1.051
REMARK UNBOUND:                -0.995
REMARK  Name = 
REMARK  8 active torsions:
REMARK  status: ('A' for Active; 'I' for Inactive)
REMARK    1  A    between atoms: C_1  and  C_2
REMARK    2  A    between atoms: C_2  and  O_3
REMARK    3  A    between atoms: O_3  and  C_4
REMARK    4  A    between atoms: C_8  and  C_9
REMARK    5  A    between atoms: C_9  and  C_10
REMARK    6  A    between atoms: C_13  and  C_14
REMARK    7  A    between atoms: C_14  and  N_15
REMARK    8  A    between atoms: C_16  and  C_18
REMARK                            x       y       z     vdW  Elec       q    Type
REMARK                         _______ _______ _______ _____ _____    ______ ____
ROOT
ATOM      1  C   UNL     1      47.604   7.116  13.280  0.00  0.00    +0.000 A 
ATOM      2  C   UNL     1      47.655   8.430  13.732  0.00  0.00    +0.000 A 
ATOM      3  C   UNL     1      48.275   8.703  14.954  0.00  0.00    +0.000 A 
ATOM      4  C   UNL     1      48.778   7.655  15.734  0.00  0.00    +0.000 A 
ATOM      5  C   UNL     1      48.632   6.375  15.223  0.00  0.00    +0.000 A 
ATOM      6  N   UNL     1      48.069   6.080  14.024  0.00  0.00    +0.000 NA
ENDROOT
BRANCH   1   7
ATOM      7  C   UNL     1      47.147   6.821  11.871  0.00  0.00    +0.000 C 
BRANCH   7  12
ATOM      8  C   UNL     1      44.333   4.611  10.536  0.00  0.00    +0.000 A 
ATOM      9  C   UNL     1      43.446   4.635  11.611  0.00  0.00    +0.000 A 
ATOM     10  C   UNL     1      43.691   5.460  12.705  0.00  0.00    +0.000 A 
ATOM     11  C   UNL     1      44.845   6.238  12.751  0.00  0.00    +0.000 A 
ATOM     12  C   UNL     1      45.791   6.171  11.721  0.00  0.00    +0.000 A 
ATOM     13  C   UNL     1      45.503   5.378  10.594  0.00  0.00    +0.000 A 
BRANCH   8  14
ATOM     14  O   UNL     1      44.171   3.855   9.404  0.00  0.00    +0.000 OA
BRANCH  14  16
ATOM     15  C   UNL     1      45.603   2.091   8.654  0.00  0.00    +0.000 C 
ATOM     16  C   UNL     1      44.443   2.460   9.555  0.00  0.00    +0.000 C 
ENDBRANCH  14  16
ENDBRANCH   8  14
ENDBRANCH   7  12
ENDBRANCH   1   7
BRANCH   4  17
ATOM     17  C   UNL     1      49.449   7.885  17.063  0.00  0.00    +0.000 C 
BRANCH  17  18
ATOM     18  N   UNL     1      50.407   6.857  17.399  0.00  0.00    +0.000 N 
ATOM     19  C   UNL     1      50.157   5.947  18.406  0.00  0.00    +0.000 C 
ATOM     20  O   UNL     1      49.114   5.942  19.047  0.00  0.00    +0.000 OA
ATOM     21  H   UNL     1      51.374   7.032  17.153  0.00  0.00    +0.000 HD
BRANCH  19  22
ATOM     22  C   UNL     1      51.207   4.936  18.624  0.00  0.00    +0.000 A 
ATOM     23  C   UNL     1      52.326   5.248  19.384  0.00  0.00    +0.000 A 
ATOM     24  S   UNL     1      53.432   3.956  19.531  0.00  0.00    +0.000 S 
ATOM     25  C   UNL     1      52.472   2.947  18.554  0.00  0.00    +0.000 A 
ATOM     26  N   UNL     1      52.875   1.686  18.240  0.00  0.00    +0.000 NA
ATOM     27  C   UNL     1      52.061   1.042  17.466  0.00  0.00    +0.000 A 
ATOM     28  N   UNL     1      50.876   1.545  16.992  0.00  0.00    +0.000 N 
ATOM     29  C   UNL     1      50.405   2.789  17.331  0.00  0.00    +0.000 A 
ATOM     30  O   UNL     1      49.296   3.174  16.968  0.00  0.00    +0.000 OA
ATOM     31  C   UNL     1      51.303   3.572  18.156  0.00  0.00    +0.000 A 
ATOM     32  H   UNL     1      50.268   0.977  16.416  0.00  0.00    +0.000 HD
ENDBRANCH  19  22
ENDBRANCH  17  18
ENDBRANCH   4  17
TORSDOF 7
ENDMDL
MODEL 6
REMARK VINA RESULT:    -6.598      3.032      8.554
REMARK INTER + INTRA:         -10.293
REMARK INTER:                  -9.541
REMARK INTRA:                  -0.752
REMARK UNBOUND:                -0.995
REMARK  Name = 
REMARK  8 active torsions:
REMARK  status: ('A' for Active; 'I' for Inactive)
REMARK    1  A    between atoms: C_1  and  C_2
REMARK    2  A    between atoms: C_2  and  O_3
REMARK    3  A    between atoms: O_3  and  C_4
REMARK    4  A    between atoms: C_8  and  C_9
REMARK    5  A    between atoms: C_9  and  C_10
REMARK    6  A    between atoms: C_13  and  C_14
REMARK    7  A    between atoms: C_14  and  N_15
REMARK    8  A    between atoms: C_16  and  C_18
REMARK                            x       y       z     vdW  Elec       q    Type
REMARK                         _______ _______ _______ _____ _____    ______ ____
ROOT
ATOM      1  C   UNL     1      49.940   7.676  15.644  0.00  0.00    +0.000 A 
ATOM      2  C   UNL     1      49.021   8.681  15.924  0.00  0.00    +0.000 A 
ATOM      3  C   UNL     1      47.880   8.797  15.125  0.00  0.00    +0.000 A 
ATOM      4  C   UNL     1      47.706   7.951  14.024  0.00  0.00    +0.000 A 
ATOM      5  C   UNL     1      48.704   7.016  13.795  0.00  0.00    +0.000 A 
ATOM      6  N   UNL     1      49.804   6.852  14.573  0.00  0.00    +0.000 NA
ENDROOT
BRANCH   1   7
ATOM      7  C   UNL     1      51.056   7.383  16.619  0.00  0.00    +0.000 C 
BRANCH   7  12
ATOM      8  C   UNL     1      49.977   3.889  17.717  0.00  0.00    +0.000 A 
ATOM      9  C   UNL     1      51.214   3.256  17.838  0.00  0.00    +0.000 A 
ATOM     10  C   UNL     1      52.391   3.984  17.694  0.00  0.00    +0.000 A 
ATOM     11  C   UNL     1      52.342   5.342  17.389  0.00  0.00    +0.000 A 
ATOM     12  C   UNL     1      51.114   5.982  17.181  0.00  0.00    +0.000 A 
ATOM     13  C   UNL     1      49.930   5.249  17.388  0.00  0.00    +0.000 A 
BRANCH   8  14
ATOM     14  O   UNL     1      48.763   3.269  17.865  0.00  0.00    +0.000 OA
BRANCH  14  16
ATOM     15  C   UNL     1      47.202   3.968  16.193  0.00  0.00    +0.000 C 
ATOM     16  C   UNL     1      48.130   2.863  16.650  0.00  0.00    +0.000 C 
ENDBRANCH  14  16
ENDBRANCH   8  14
ENDBRANCH   7  12
ENDBRANCH   1   7
BRANCH   4  17
ATOM     17  C   UNL     1      46.503   8.034  13.121  0.00  0.00    +0.000 C 
BRANCH  17  18
ATOM     18  N   UNL     1      45.971   6.738  12.766  0.00  0.00    +0.000 N 
ATOM     19  C   UNL     1      45.057   6.596  11.742  0.00  0.00    +0.000 C 
ATOM     20  O   UNL     1      44.668   7.541  11.069  0.00  0.00    +0.000 OA
ATOM     21  H   UNL     1      45.990   6.022  13.481  0.00  0.00    +0.000 HD
BRANCH  19  22
ATOM     22  C   UNL     1      44.619   5.215  11.469  0.00  0.00    +0.000 A 
ATOM     23  C   UNL     1      43.848   4.533  12.400  0.00  0.00    +0.000 A 
ATOM     24  S   UNL     1      43.433   2.951  11.912  0.00  0.00    +0.000 S 
ATOM     25  C   UNL     1      44.300   3.109  10.457  0.00  0.00    +0.000 A 
ATOM     26  N   UNL     1      44.389   2.075   9.578  0.00  0.00    +0.000 NA
ATOM     27  C   UNL     1      45.103   2.326   8.528  0.00  0.00    +0.000 A 
ATOM     28  N   UNL     1      45.724   3.523   8.276  0.00  0.00    +0.000 N 
ATOM     29  C   UNL     1      45.612   4.609   9.108  0.00  0.00    +0.000 A 
ATOM     30  O   UNL     1      46.099   5.697   8.809  0.00  0.00    +0.000 OA
ATOM     31  C   UNL     1      44.863   4.366  10.325  0.00  0.00    +0.000 A 
ATOM     32  H   UNL     1      46.241   3.666   7.420  0.00  0.00    +0.000 HD
ENDBRANCH  19  22
ENDBRANCH  17  18
ENDBRANCH   4  17
TORSDOF 7
ENDMDL
MODEL 7
REMARK VINA RESULT:    -6.290      2.618      3.767
REMARK INTER + INTRA:          -9.860
REMARK INTER:                  -8.935
REMARK INTRA:                  -0.924
REMARK UNBOUND:                -0.995
REMARK  Name = 
REMARK  8 active torsions:
REMARK  status: ('A' for Active; 'I' for Inactive)
REMARK    1  A    between atoms: C_1  and  C_2
REMARK    2  A    between atoms: C_2  and  O_3
REMARK    3  A    between atoms: O_3  and  C_4
REMARK    4  A    between atoms: C_8  and  C_9
REMARK    5  A    between atoms: C_9  and  C_10
REMARK    6  A    between atoms: C_13  and  C_14
REMARK    7  A    between atoms: C_14  and  N_15
REMARK    8  A    between atoms: C_16  and  C_18
REMARK                            x       y       z     vdW  Elec       q    Type
REMARK                         _______ _______ _______ _____ _____    ______ ____
ROOT
ATOM      1  C   UNL     1      46.499   7.004  12.639  0.00  0.00    +0.000 A 
ATOM      2  C   UNL     1      46.613   8.277  13.185  0.00  0.00    +0.000 A 
ATOM      3  C   UNL     1      47.525   8.490  14.222  0.00  0.00    +0.000 A 
ATOM      4  C   UNL     1      48.262   7.418  14.738  0.00  0.00    +0.000 A 
ATOM      5  C   UNL     1      48.038   6.176  14.164  0.00  0.00    +0.000 A 
ATOM      6  N   UNL     1      47.188   5.943  13.132  0.00  0.00    +0.000 NA
ENDROOT
BRANCH   1   7
ATOM      7  C   UNL     1      45.695   6.795  11.377  0.00  0.00    +0.000 C 
BRANCH   7  12
ATOM      8  C   UNL     1      44.121   3.486  10.302  0.00  0.00    +0.000 A 
ATOM      9  C   UNL     1      43.402   3.149  11.449  0.00  0.00    +0.000 A 
ATOM     10  C   UNL     1      43.320   4.043  12.512  0.00  0.00    +0.000 A 
ATOM     11  C   UNL     1      43.988   5.265  12.454  0.00  0.00    +0.000 A 
ATOM     12  C   UNL     1      44.782   5.590  11.348  0.00  0.00    +0.000 A 
ATOM     13  C   UNL     1      44.809   4.704  10.254  0.00  0.00    +0.000 A 
BRANCH   8  14
ATOM     14  O   UNL     1      44.241   2.689   9.192  0.00  0.00    +0.000 OA
BRANCH  14  16
ATOM     15  C   UNL     1      46.075   2.708   7.657  0.00  0.00    +0.000 C 
ATOM     16  C   UNL     1      45.546   2.153   8.962  0.00  0.00    +0.000 C 
ENDBRANCH  14  16
ENDBRANCH   8  14
ENDBRANCH   7  12
ENDBRANCH   1   7
BRANCH   4  17
ATOM     17  C   UNL     1      49.253   7.583  15.861  0.00  0.00    +0.000 C 
BRANCH  17  18
ATOM     18  N   UNL     1      49.962   6.364  16.174  0.00  0.00    +0.000 N 
ATOM     19  C   UNL     1      49.546   5.536  17.197  0.00  0.00    +0.000 C 
ATOM     20  O   UNL     1      48.553   5.770  17.873  0.00  0.00    +0.000 OA
ATOM     21  H   UNL     1      50.934   6.313  15.894  0.00  0.00    +0.000 HD
BRANCH  19  22
ATOM     22  C   UNL     1      50.345   4.312  17.388  0.00  0.00    +0.000 A 
ATOM     23  C   UNL     1      49.775   3.067  17.159  0.00  0.00    +0.000 A 
ATOM     24  S   UNL     1      50.849   1.767  17.428  0.00  0.00    +0.000 S 
ATOM     25  C   UNL     1      52.100   2.821  17.895  0.00  0.00    +0.000 A 
ATOM     26  N   UNL     1      53.306   2.340  18.300  0.00  0.00    +0.000 NA
ATOM     27  C   UNL     1      54.154   3.252  18.653  0.00  0.00    +0.000 A 
ATOM     28  N   UNL     1      53.904   4.601  18.624  0.00  0.00    +0.000 N 
ATOM     29  C   UNL     1      52.722   5.130  18.168  0.00  0.00    +0.000 A 
ATOM     30  O   UNL     1      52.562   6.344  18.062  0.00  0.00    +0.000 OA
ATOM     31  C   UNL     1      51.719   4.148  17.806  0.00  0.00    +0.000 A 
ATOM     32  H   UNL     1      54.622   5.264  18.883  0.00  0.00    +0.000 HD
ENDBRANCH  19  22
ENDBRANCH  17  18
ENDBRANCH   4  17
TORSDOF 7
ENDMDL
MODEL 8
REMARK VINA RESULT:    -6.284      3.472      5.079
REMARK INTER + INTRA:          -9.851
REMARK INTER:                  -8.889
REMARK INTRA:                  -0.961
REMARK UNBOUND:                -0.995
REMARK  Name = 
REMARK  8 active torsions:
REMARK  status: ('A' for Active; 'I' for Inactive)
REMARK    1  A    between atoms: C_1  and  C_2
REMARK    2  A    between atoms: C_2  and  O_3
REMARK    3  A    between atoms: O_3  and  C_4
REMARK    4  A    between atoms: C_8  and  C_9
REMARK    5  A    between atoms: C_9  and  C_10
REMARK    6  A    between atoms: C_13  and  C_14
REMARK    7  A    between atoms: C_14  and  N_15
REMARK    8  A    between atoms: C_16  and  C_18
REMARK                            x       y       z     vdW  Elec       q    Type
REMARK                         _______ _______ _______ _____ _____    ______ ____
ROOT
ATOM      1  C   UNL     1      47.063   4.305  13.946  0.00  0.00    +0.000 A 
ATOM      2  C   UNL     1      47.111   3.433  15.028  0.00  0.00    +0.000 A 
ATOM      3  C   UNL     1      47.675   3.874  16.228  0.00  0.00    +0.000 A 
ATOM      4  C   UNL     1      48.237   5.153  16.311  0.00  0.00    +0.000 A 
ATOM      5  C   UNL     1      48.188   5.928  15.163  0.00  0.00    +0.000 A 
ATOM      6  N   UNL     1      47.615   5.545  13.994  0.00  0.00    +0.000 NA
ENDROOT
BRANCH   1   7
ATOM      7  C   UNL     1      46.263   3.939  12.718  0.00  0.00    +0.000 C 
BRANCH   7  12
ATOM      8  C   UNL     1      44.187   6.917  11.534  0.00  0.00    +0.000 A 
ATOM      9  C   UNL     1      42.925   6.333  11.424  0.00  0.00    +0.000 A 
ATOM     10  C   UNL     1      42.719   5.025  11.851  0.00  0.00    +0.000 A 
ATOM     11  C   UNL     1      43.779   4.277  12.356  0.00  0.00    +0.000 A 
ATOM     12  C   UNL     1      45.072   4.813  12.401  0.00  0.00    +0.000 A 
ATOM     13  C   UNL     1      45.256   6.156  12.022  0.00  0.00    +0.000 A 
BRANCH   8  14
ATOM     14  O   UNL     1      44.488   8.204  11.167  0.00  0.00    +0.000 OA
BRANCH  14  16
ATOM     15  C   UNL     1      45.294  10.404  11.649  0.00  0.00    +0.000 C 
ATOM     16  C   UNL     1      45.133   8.992  12.170  0.00  0.00    +0.000 C 
ENDBRANCH  14  16
ENDBRANCH   8  14
ENDBRANCH   7  12
ENDBRANCH   1   7
BRANCH   4  17
ATOM     17  C   UNL     1      48.866   5.680  17.574  0.00  0.00    +0.000 C 
BRANCH  17  18
ATOM     18  N   UNL     1      49.966   4.867  18.041  0.00  0.00    +0.000 N 
ATOM     19  C   UNL     1      51.225   4.978  17.488  0.00  0.00    +0.000 C 
ATOM     20  O   UNL     1      51.486   5.778  16.599  0.00  0.00    +0.000 OA
ATOM     21  H   UNL     1      49.730   3.995  18.500  0.00  0.00    +0.000 HD
BRANCH  19  22
ATOM     22  C   UNL     1      52.258   4.109  18.078  0.00  0.00    +0.000 A 
ATOM     23  C   UNL     1      53.280   4.661  18.839  0.00  0.00    +0.000 A 
ATOM     24  S   UNL     1      54.380   3.504  19.444  0.00  0.00    +0.000 S 
ATOM     25  C   UNL     1      53.551   2.231  18.680  0.00  0.00    +0.000 A 
ATOM     26  N   UNL     1      54.004   0.951  18.761  0.00  0.00    +0.000 NA
ATOM     27  C   UNL     1      53.292   0.089  18.109  0.00  0.00    +0.000 A 
ATOM     28  N   UNL     1      52.161   0.394  17.395  0.00  0.00    +0.000 N 
ATOM     29  C   UNL     1      51.638   1.662  17.335  0.00  0.00    +0.000 A 
ATOM     30  O   UNL     1      50.571   1.888  16.767  0.00  0.00    +0.000 OA
ATOM     31  C   UNL     1      52.425   2.675  18.008  0.00  0.00    +0.000 A 
ATOM     32  H   UNL     1      51.631  -0.332  16.933  0.00  0.00    +0.000 HD
ENDBRANCH  19  22
ENDBRANCH  17  18
ENDBRANCH   4  17
TORSDOF 7
ENDMDL
MODEL 9
REMARK VINA RESULT:    -6.232      3.638      8.464
REMARK INTER + INTRA:          -9.778
REMARK INTER:                  -8.942
REMARK INTRA:                  -0.835
REMARK UNBOUND:                -0.995
REMARK  Name = 
REMARK  8 active torsions:
REMARK  status: ('A' for Active; 'I' for Inactive)
REMARK    1  A    between atoms: C_1  and  C_2
REMARK    2  A    between atoms: C_2  and  O_3
REMARK    3  A    between atoms: O_3  and  C_4
REMARK    4  A    between atoms: C_8  and  C_9
REMARK    5  A    between atoms: C_9  and  C_10
REMARK    6  A    between atoms: C_13  and  C_14
REMARK    7  A    between atoms: C_14  and  N_15
REMARK    8  A    between atoms: C_16  and  C_18
REMARK                            x       y       z     vdW  Elec       q    Type
REMARK                         _______ _______ _______ _____ _____    ______ ____
ROOT
ATOM      1  C   UNL     1      48.941   8.186  16.016  0.00  0.00    +0.000 A 
ATOM      2  C   UNL     1      49.097   6.985  15.333  0.00  0.00    +0.000 A 
ATOM      3  C   UNL     1      48.910   6.964  13.948  0.00  0.00    +0.000 A 
ATOM      4  C   UNL     1      48.511   8.126  13.277  0.00  0.00    +0.000 A 
ATOM      5  C   UNL     1      48.329   9.260  14.053  0.00  0.00    +0.000 A 
ATOM      6  N   UNL     1      48.539   9.323  15.392  0.00  0.00    +0.000 NA
ENDROOT
BRANCH   1   7
ATOM      7  C   UNL     1      49.355   8.287  17.465  0.00  0.00    +0.000 C 
BRANCH   7  12
ATOM      8  C   UNL     1      48.290   5.060  19.206  0.00  0.00    +0.000 A 
ATOM      9  C   UNL     1      47.783   5.561  20.405  0.00  0.00    +0.000 A 
ATOM     10  C   UNL     1      47.666   6.934  20.597  0.00  0.00    +0.000 A 
ATOM     11  C   UNL     1      48.091   7.819  19.609  0.00  0.00    +0.000 A 
ATOM     12  C   UNL     1      48.678   7.342  18.430  0.00  0.00    +0.000 A 
ATOM     13  C   UNL     1      48.736   5.951  18.223  0.00  0.00    +0.000 A 
BRANCH   8  14
ATOM     14  O   UNL     1      48.422   3.728  18.909  0.00  0.00    +0.000 OA
BRANCH  14  16
ATOM     15  C   UNL     1      49.165   2.439  17.036  0.00  0.00    +0.000 C 
ATOM     16  C   UNL     1      48.091   3.365  17.567  0.00  0.00    +0.000 C 
ENDBRANCH  14  16
ENDBRANCH   8  14
ENDBRANCH   7  12
ENDBRANCH   1   7
BRANCH   4  17
ATOM     17  C   UNL     1      48.285   8.164  11.788  0.00  0.00    +0.000 C 
BRANCH  17  18
ATOM     18  N   UNL     1      47.576   7.006  11.294  0.00  0.00    +0.000 N 
ATOM     19  C   UNL     1      46.198   6.944  11.320  0.00  0.00    +0.000 C 
ATOM     20  O   UNL     1      45.504   7.864  11.735  0.00  0.00    +0.000 OA
ATOM     21  H   UNL     1      48.085   6.130  11.272  0.00  0.00    +0.000 HD
BRANCH  19  22
ATOM     22  C   UNL     1      45.605   5.717  10.758  0.00  0.00    +0.000 A 
ATOM     23  C   UNL     1      45.726   5.444   9.402  0.00  0.00    +0.000 A 
ATOM     24  S   UNL     1      44.983   3.981   8.933  0.00  0.00    +0.000 S 
ATOM     25  C   UNL     1      44.441   3.681  10.518  0.00  0.00    +0.000 A 
ATOM     26  N   UNL     1      43.687   2.586  10.805  0.00  0.00    +0.000 NA
ATOM     27  C   UNL     1      43.321   2.498  12.044  0.00  0.00    +0.000 A 
ATOM     28  N   UNL     1      43.656   3.403  13.020  0.00  0.00    +0.000 N 
ATOM     29  C   UNL     1      44.462   4.488  12.785  0.00  0.00    +0.000 A 
ATOM     30  O   UNL     1      44.822   5.227  13.698  0.00  0.00    +0.000 OA
ATOM     31  C   UNL     1      44.858   4.660  11.402  0.00  0.00    +0.000 A 
ATOM     32  H   UNL     1      43.364   3.259  13.977  0.00  0.00    +0.000 HD
ENDBRANCH  19  22
ENDBRANCH  17  18
ENDBRANCH   4  17
TORSDOF 7
ENDMDL
