MODEL 1
REMARK VINA RESULT:    -8.001      0.000      0.000
REMARK INTER + INTRA:         -13.823
REMARK INTER:                 -12.211
REMARK INTRA:                  -1.612
REMARK UNBOUND:                -1.612
REMARK  Name = 
REMARK  10 active torsions:
REMARK  status: ('A' for Active; 'I' for Inactive)
REMARK    1  A    between atoms: C_1  and  C_2
REMARK    2  A    between atoms: C_2  and  C_3
REMARK    3  A    between atoms: C_3  and  C_4
REMARK    4  A    between atoms: C_4  and  N_5
REMARK    5  A    between atoms: C_4  and  C_27
REMARK    6  A    between atoms: N_5  and  C_6
REMARK    7  A    between atoms: C_6  and  C_7
REMARK    8  A    between atoms: C_10  and  C_11
REMARK    9  A    between atoms: C_11  and  N_12
REMARK   10  A    between atoms: C_13  and  C_15
REMARK                            x       y       z     vdW  Elec       q    Type
REMARK                         _______ _______ _______ _____ _____    ______ ____
ROOT
ATOM      1  C   UNL     1      45.291   6.645  11.149  0.00  0.00    +0.000 A 
ATOM      2  C   UNL     1      46.627   6.247  11.299  0.00  0.00    +0.000 A 
ATOM      3  C   UNL     1      47.450   6.865  12.242  0.00  0.00    +0.000 A 
ATOM      4  C   UNL     1      46.957   7.898  13.049  0.00  0.00    +0.000 A 
ATOM      5  C   UNL     1      45.643   8.341  12.854  0.00  0.00    +0.000 A 
ATOM      6  C   UNL     1      44.815   7.715  11.921  0.00  0.00    +0.000 A 
ENDROOT
BRANCH   1   7
ATOM      7  C   UNL     1      44.370   5.930  10.184  0.00  0.00    +0.000 C 
BRANCH   7   8
ATOM      8  N   UNL     1      45.144   5.130   9.229  0.00  0.00    +0.000 NA
ATOM      9  H   UNL     1      44.995   5.499   8.295  0.00  0.00    +0.000 HD
BRANCH   8  10
ATOM     10  C   UNL     1      44.812   3.691   9.246  0.00  0.00    +0.000 C 
BRANCH  10  11
ATOM     11  C   UNL     1      45.654   2.893   8.243  0.00  0.00    +0.000 A 
ATOM     12  C   UNL     1      46.188   3.520   7.120  0.00  0.00    +0.000 A 
ATOM     13  C   UNL     1      47.016   2.789   6.271  0.00  0.00    +0.000 A 
ATOM     14  C   UNL     1      47.301   1.462   6.571  0.00  0.00    +0.000 A 
ATOM     15  C   UNL     1      46.744   0.915   7.709  0.00  0.00    +0.000 A 
ATOM     16  N   UNL     1      45.933   1.595   8.547  0.00  0.00    +0.000 NA
ENDBRANCH  10  11
BRANCH  10  17
ATOM     17  C   UNL     1      44.850   3.028  10.646  0.00  0.00    +0.000 C 
BRANCH  17  19
ATOM     18  C   UNL     1      43.541   3.571  12.781  0.00  0.00    +0.000 C 
ATOM     19  C   UNL     1      43.525   2.924  11.406  0.00  0.00    +0.000 C 
ENDBRANCH  17  19
ENDBRANCH  10  17
ENDBRANCH   8  10
ENDBRANCH   7   8
ENDBRANCH   1   7
BRANCH   4  20
ATOM     20  C   UNL     1      47.830   8.554  14.081  0.00  0.00    +0.000 C 
BRANCH  20  21
ATOM     21  N   UNL     1      48.059   7.671  15.194  0.00  0.00    +0.000 N 
ATOM     22  C   UNL     1      49.240   6.991  15.327  0.00  0.00    +0.000 C 
ATOM     23  O   UNL     1      50.165   7.133  14.530  0.00  0.00    +0.000 OA
ATOM     24  H   UNL     1      47.244   7.374  15.722  0.00  0.00    +0.000 HD
BRANCH  22  25
ATOM     25  C   UNL     1      49.374   6.132  16.508  0.00  0.00    +0.000 A 
ATOM     26  C   UNL     1      50.366   6.403  17.441  0.00  0.00    +0.000 A 
ATOM     27  S   UNL     1      50.353   5.347  18.780  0.00  0.00    +0.000 S 
ATOM     28  C   UNL     1      49.052   4.458  18.135  0.00  0.00    +0.000 A 
ATOM     29  N   UNL     1      48.554   3.377  18.792  0.00  0.00    +0.000 NA
ATOM     30  C   UNL     1      47.587   2.778  18.178  0.00  0.00    +0.000 A 
ATOM     31  N   UNL     1      47.073   3.169  16.967  0.00  0.00    +0.000 N 
ATOM     32  C   UNL     1      47.528   4.267  16.281  0.00  0.00    +0.000 A 
ATOM     33  O   UNL     1      47.022   4.608  15.218  0.00  0.00    +0.000 OA
ATOM     34  C   UNL     1      48.623   4.971  16.924  0.00  0.00    +0.000 A 
ATOM     35  H   UNL     1      46.312   2.661  16.542  0.00  0.00    +0.000 HD
ENDBRANCH  22  25
ENDBRANCH  20  21
ENDBRANCH   4  20
TORSDOF 9
ENDMDL
MODEL 2
REMARK VINA RESULT:    -6.688      2.089      2.790
REMARK INTER + INTRA:         -11.819
REMARK INTER:                  -9.938
REMARK INTRA:                  -1.881
REMARK UNBOUND:                -1.612
REMARK  Name = 
REMARK  10 active torsions:
REMARK  status: ('A' for Active; 'I' for Inactive)
REMARK    1  A    between atoms: C_1  and  C_2
REMARK    2  A    between atoms: C_2  and  C_3
REMARK    3  A    between atoms: C_3  and  C_4
REMARK    4  A    between atoms: C_4  and  N_5
REMARK    5  A    between atoms: C_4  and  C_27
REMARK    6  A    between atoms: N_5  and  C_6
REMARK    7  A    between atoms: C_6  and  C_7
REMARK    8  A    between atoms: C_10  and  C_11
REMARK    9  A    between atoms: C_11  and  N_12
REMARK   10  A    between atoms: C_13  and  C_15
REMARK                            x       y       z     vdW  Elec       q    Type
REMARK                         _______ _______ _______ _____ _____    ______ ____
ROOT
ATOM      1  C   UNL     1      46.251   7.710  12.362  0.00  0.00    +0.000 A 
ATOM      2  C   UNL     1      47.264   7.177  11.552  0.00  0.00    +0.000 A 
ATOM      3  C   UNL     1      48.607   7.445  11.827  0.00  0.00    +0.000 A 
ATOM      4  C   UNL     1      48.963   8.256  12.911  0.00  0.00    +0.000 A 
ATOM      5  C   UNL     1      47.950   8.842  13.680  0.00  0.00    +0.000 A 
ATOM      6  C   UNL     1      46.608   8.565  13.414  0.00  0.00    +0.000 A 
ENDROOT
BRANCH   1   7
ATOM      7  C   UNL     1      44.798   7.364  12.117  0.00  0.00    +0.000 C 
BRANCH   7   8
ATOM      8  N   UNL     1      44.650   6.608  10.869  0.00  0.00    +0.000 NA
ATOM      9  H   UNL     1      44.027   7.117  10.249  0.00  0.00    +0.000 HD
BRANCH   8  10
ATOM     10  C   UNL     1      44.140   5.236  11.057  0.00  0.00    +0.000 C 
BRANCH  10  11
ATOM     11  C   UNL     1      44.626   4.283   9.959  0.00  0.00    +0.000 A 
ATOM     12  C   UNL     1      45.541   4.723   9.004  0.00  0.00    +0.000 A 
ATOM     13  C   UNL     1      46.028   3.812   8.069  0.00  0.00    +0.000 A 
ATOM     14  C   UNL     1      45.604   2.490   8.118  0.00  0.00    +0.000 A 
ATOM     15  C   UNL     1      44.705   2.128   9.103  0.00  0.00    +0.000 A 
ATOM     16  N   UNL     1      44.211   2.987  10.017  0.00  0.00    +0.000 NA
ENDBRANCH  10  11
BRANCH  10  17
ATOM     17  C   UNL     1      44.394   4.631  12.461  0.00  0.00    +0.000 C 
BRANCH  17  19
ATOM     18  C   UNL     1      46.558   4.426  13.816  0.00  0.00    +0.000 C 
ATOM     19  C   UNL     1      45.715   3.887  12.674  0.00  0.00    +0.000 C 
ENDBRANCH  17  19
ENDBRANCH  10  17
ENDBRANCH   8  10
ENDBRANCH   7   8
ENDBRANCH   1   7
BRANCH   4  20
ATOM     20  C   UNL     1      50.406   8.531  13.227  0.00  0.00    +0.000 C 
BRANCH  20  21
ATOM     21  N   UNL     1      50.915   7.575  14.175  0.00  0.00    +0.000 N 
ATOM     22  C   UNL     1      51.887   7.921  15.076  0.00  0.00    +0.000 C 
ATOM     23  O   UNL     1      52.338   9.062  15.140  0.00  0.00    +0.000 OA
ATOM     24  H   UNL     1      50.724   6.596  13.989  0.00  0.00    +0.000 HD
BRANCH  22  25
ATOM     25  C   UNL     1      52.319   6.874  16.007  0.00  0.00    +0.000 A 
ATOM     26  C   UNL     1      53.675   6.621  16.169  0.00  0.00    +0.000 A 
ATOM     27  S   UNL     1      54.014   5.415  17.324  0.00  0.00    +0.000 S 
ATOM     28  C   UNL     1      52.358   5.152  17.615  0.00  0.00    +0.000 A 
ATOM     29  N   UNL     1      51.948   4.209  18.505  0.00  0.00    +0.000 NA
ATOM     30  C   UNL     1      50.664   4.093  18.607  0.00  0.00    +0.000 A 
ATOM     31  N   UNL     1      49.757   4.843  17.902  0.00  0.00    +0.000 N 
ATOM     32  C   UNL     1      50.124   5.823  17.014  0.00  0.00    +0.000 A 
ATOM     33  O   UNL     1      49.287   6.497  16.427  0.00  0.00    +0.000 OA
ATOM     34  C   UNL     1      51.558   5.985  16.853  0.00  0.00    +0.000 A 
ATOM     35  H   UNL     1      48.765   4.709  18.033  0.00  0.00    +0.000 HD
ENDBRANCH  22  25
ENDBRANCH  20  21
ENDBRANCH   4  20
TORSDOF 9
ENDMDL
MODEL 3
REMARK VINA RESULT:    -6.611      1.879      2.123
REMARK INTER + INTRA:         -11.702
REMARK INTER:                 -11.247
REMARK INTRA:                  -0.455
REMARK UNBOUND:                -1.612
REMARK  Name = 
REMARK  10 active torsions:
REMARK  status: ('A' for Active; 'I' for Inactive)
REMARK    1  A    between atoms: C_1  and  C_2
REMARK    2  A    between atoms: C_2  and  C_3
REMARK    3  A    between atoms: C_3  and  C_4
REMARK    4  A    between atoms: C_4  and  N_5
REMARK    5  A    between atoms: C_4  and  C_27
REMARK    6  A    between atoms: N_5  and  C_6
REMARK    7  A    between atoms: C_6  and  C_7
REMARK    8  A    between atoms: C_10  and  C_11
REMARK    9  A    between atoms: C_11  and  N_12
REMARK   10  A    between atoms: C_13  and  C_15
REMARK                            x       y       z     vdW  Elec       q    Type
REMARK                         _______ _______ _______ _____ _____    ______ ____
ROOT
ATOM      1  C   UNL     1      46.528   6.166  11.574  0.00  0.00    +0.000 A 
ATOM      2  C   UNL     1      46.855   5.258  12.592  0.00  0.00    +0.000 A 
ATOM      3  C   UNL     1      47.417   5.707  13.789  0.00  0.00    +0.000 A 
ATOM      4  C   UNL     1      47.669   7.069  13.990  0.00  0.00    +0.000 A 
ATOM      5  C   UNL     1      47.403   7.968  12.949  0.00  0.00    +0.000 A 
ATOM      6  C   UNL     1      46.830   7.522  11.757  0.00  0.00    +0.000 A 
ENDROOT
BRANCH   1   7
ATOM      7  C   UNL     1      45.849   5.698  10.304  0.00  0.00    +0.000 C 
BRANCH   7   8
ATOM      8  N   UNL     1      44.401   5.583  10.505  0.00  0.00    +0.000 NA
ATOM      9  H   UNL     1      44.194   5.731  11.488  0.00  0.00    +0.000 HD
BRANCH   8  10
ATOM     10  C   UNL     1      43.838   4.288  10.076  0.00  0.00    +0.000 C 
BRANCH  10  11
ATOM     11  C   UNL     1      44.761   3.551   9.098  0.00  0.00    +0.000 A 
ATOM     12  C   UNL     1      45.384   4.248   8.064  0.00  0.00    +0.000 A 
ATOM     13  C   UNL     1      46.281   3.569   7.242  0.00  0.00    +0.000 A 
ATOM     14  C   UNL     1      46.544   2.225   7.479  0.00  0.00    +0.000 A 
ATOM     15  C   UNL     1      45.896   1.609   8.531  0.00  0.00    +0.000 A 
ATOM     16  N   UNL     1      45.018   2.236   9.341  0.00  0.00    +0.000 NA
ENDBRANCH  10  11
BRANCH  10  17
ATOM     17  C   UNL     1      43.401   3.350  11.231  0.00  0.00    +0.000 C 
BRANCH  17  19
ATOM     18  C   UNL     1      43.023   4.831  13.287  0.00  0.00    +0.000 C 
ATOM     19  C   UNL     1      43.848   3.729  12.646  0.00  0.00    +0.000 C 
ENDBRANCH  17  19
ENDBRANCH  10  17
ENDBRANCH   8  10
ENDBRANCH   7   8
ENDBRANCH   1   7
BRANCH   4  20
ATOM     20  C   UNL     1      48.252   7.563  15.284  0.00  0.00    +0.000 C 
BRANCH  20  21
ATOM     21  N   UNL     1      49.284   6.676  15.752  0.00  0.00    +0.000 N 
ATOM     22  C   UNL     1      49.459   6.439  17.090  0.00  0.00    +0.000 C 
ATOM     23  O   UNL     1      48.726   6.939  17.940  0.00  0.00    +0.000 OA
ATOM     24  H   UNL     1      50.023   6.441  15.097  0.00  0.00    +0.000 HD
BRANCH  22  25
ATOM     25  C   UNL     1      50.529   5.505  17.456  0.00  0.00    +0.000 A 
ATOM     26  C   UNL     1      51.713   5.997  17.988  0.00  0.00    +0.000 A 
ATOM     27  S   UNL     1      52.831   4.782  18.411  0.00  0.00    +0.000 S 
ATOM     28  C   UNL     1      51.792   3.555  17.851  0.00  0.00    +0.000 A 
ATOM     29  N   UNL     1      52.164   2.249  17.904  0.00  0.00    +0.000 NA
ATOM     30  C   UNL     1      51.293   1.425  17.419  0.00  0.00    +0.000 A 
ATOM     31  N   UNL     1      50.081   1.795  16.893  0.00  0.00    +0.000 N 
ATOM     32  C   UNL     1      49.653   3.098  16.842  0.00  0.00    +0.000 A 
ATOM     33  O   UNL     1      48.550   3.389  16.396  0.00  0.00    +0.000 OA
ATOM     34  C   UNL     1      50.601   4.066  17.364  0.00  0.00    +0.000 A 
ATOM     35  H   UNL     1      49.441   1.101  16.535  0.00  0.00    +0.000 HD
ENDBRANCH  22  25
ENDBRANCH  20  21
ENDBRANCH   4  20
TORSDOF 9
ENDMDL
MODEL 4
REMARK VINA RESULT:    -6.558      2.874      8.360
REMARK INTER + INTRA:         -11.621
REMARK INTER:                  -9.702
REMARK INTRA:                  -1.920
REMARK UNBOUND:                -1.612
REMARK  Name = 
REMARK  10 active torsions:
REMARK  status: ('A' for Active; 'I' for Inactive)
REMARK    1  A    between atoms: C_1  and  C_2
REMARK    2  A    between atoms: C_2  and  C_3
REMARK    3  A    between atoms: C_3  and  C_4
REMARK    4  A    between atoms: C_4  and  N_5
REMARK    5  A    between atoms: C_4  and  C_27
REMARK    6  A    between atoms: N_5  and  C_6
REMARK    7  A    between atoms: C_6  and  C_7
REMARK    8  A    between atoms: C_10  and  C_11
REMARK    9  A    between atoms: C_11  and  N_12
REMARK   10  A    between atoms: C_13  and  C_15
REMARK                            x       y       z     vdW  Elec       q    Type
REMARK                         _______ _______ _______ _____ _____    ______ ____
ROOT
ATOM      1  C   UNL     1      50.007   8.128  15.404  0.00  0.00    +0.000 A 
ATOM      2  C   UNL     1      48.653   8.489  15.453  0.00  0.00    +0.000 A 
ATOM      3  C   UNL     1      47.871   8.472  14.296  0.00  0.00    +0.000 A 
ATOM      4  C   UNL     1      48.429   8.101  13.066  0.00  0.00    +0.000 A 
ATOM      5  C   UNL     1      49.796   7.805  13.004  0.00  0.00    +0.000 A 
ATOM      6  C   UNL     1      50.575   7.809  14.162  0.00  0.00    +0.000 A 
ENDROOT
BRANCH   1   7
ATOM      7  C   UNL     1      50.843   8.071  16.665  0.00  0.00    +0.000 C 
BRANCH   7   8
ATOM      8  N   UNL     1      50.187   7.240  17.680  0.00  0.00    +0.000 NA
ATOM      9  H   UNL     1      50.254   7.707  18.579  0.00  0.00    +0.000 HD
BRANCH   8  10
ATOM     10  C   UNL     1      50.749   5.879  17.794  0.00  0.00    +0.000 C 
BRANCH  10  11
ATOM     11  C   UNL     1      49.719   4.798  17.444  0.00  0.00    +0.000 A 
ATOM     12  C   UNL     1      48.408   5.154  17.131  0.00  0.00    +0.000 A 
ATOM     13  C   UNL     1      47.517   4.158  16.737  0.00  0.00    +0.000 A 
ATOM     14  C   UNL     1      47.957   2.842  16.652  0.00  0.00    +0.000 A 
ATOM     15  C   UNL     1      49.274   2.571  16.967  0.00  0.00    +0.000 A 
ATOM     16  N   UNL     1      50.159   3.512  17.358  0.00  0.00    +0.000 NA
ENDBRANCH  10  11
BRANCH  10  17
ATOM     17  C   UNL     1      52.070   5.650  17.017  0.00  0.00    +0.000 C 
BRANCH  17  19
ATOM     18  C   UNL     1      53.527   6.107  19.074  0.00  0.00    +0.000 C 
ATOM     19  C   UNL     1      53.303   5.257  17.835  0.00  0.00    +0.000 C 
ENDBRANCH  17  19
ENDBRANCH  10  17
ENDBRANCH   8  10
ENDBRANCH   7   8
ENDBRANCH   1   7
BRANCH   4  20
ATOM     20  C   UNL     1      47.589   8.059  11.821  0.00  0.00    +0.000 C 
BRANCH  20  21
ATOM     21  N   UNL     1      46.901   6.800  11.709  0.00  0.00    +0.000 N 
ATOM     22  C   UNL     1      45.533   6.738  11.730  0.00  0.00    +0.000 C 
ATOM     23  O   UNL     1      44.837   7.749  11.806  0.00  0.00    +0.000 OA
ATOM     24  H   UNL     1      47.446   5.960  11.873  0.00  0.00    +0.000 HD
BRANCH  22  25
ATOM     25  C   UNL     1      44.934   5.406  11.593  0.00  0.00    +0.000 A 
ATOM     26  C   UNL     1      44.247   4.853  12.665  0.00  0.00    +0.000 A 
ATOM     27  S   UNL     1      43.566   3.327  12.327  0.00  0.00    +0.000 S 
ATOM     28  C   UNL     1      44.208   3.329  10.751  0.00  0.00    +0.000 A 
ATOM     29  N   UNL     1      44.008   2.275   9.915  0.00  0.00    +0.000 NA
ATOM     30  C   UNL     1      44.575   2.395   8.760  0.00  0.00    +0.000 A 
ATOM     31  N   UNL     1      45.318   3.479   8.365  0.00  0.00    +0.000 N 
ATOM     32  C   UNL     1      45.525   4.575   9.165  0.00  0.00    +0.000 A 
ATOM     33  O   UNL     1      46.165   5.541   8.768  0.00  0.00    +0.000 OA
ATOM     34  C   UNL     1      44.918   4.487  10.481  0.00  0.00    +0.000 A 
ATOM     35  H   UNL     1      45.729   3.514   7.444  0.00  0.00    +0.000 HD
ENDBRANCH  22  25
ENDBRANCH  20  21
ENDBRANCH   4  20
TORSDOF 9
ENDMDL
MODEL 5
REMARK VINA RESULT:    -6.432      1.800      2.709
REMARK INTER + INTRA:         -11.428
REMARK INTER:                 -10.286
REMARK INTRA:                  -1.142
REMARK UNBOUND:                -1.612
REMARK  Name = 
REMARK  10 active torsions:
REMARK  status: ('A' for Active; 'I' for Inactive)
REMARK    1  A    between atoms: C_1  and  C_2
REMARK    2  A    between atoms: C_2  and  C_3
REMARK    3  A    between atoms: C_3  and  C_4
REMARK    4  A    between atoms: C_4  and  N_5
REMARK    5  A    between atoms: C_4  and  C_27
REMARK    6  A    between atoms: N_5  and  C_6
REMARK    7  A    between atoms: C_6  and  C_7
REMARK    8  A    between atoms: C_10  and  C_11
REMARK    9  A    between atoms: C_11  and  N_12
REMARK   10  A    between atoms: C_13  and  C_15
REMARK                            x       y       z     vdW  Elec       q    Type
REMARK                         _______ _______ _______ _____ _____    ______ ____
ROOT
ATOM      1  C   UNL     1      45.683   6.784  11.685  0.00  0.00    +0.000 A 
ATOM      2  C   UNL     1      45.494   8.072  12.205  0.00  0.00    +0.000 A 
ATOM      3  C   UNL     1      46.393   8.603  13.132  0.00  0.00    +0.000 A 
ATOM      4  C   UNL     1      47.495   7.854  13.564  0.00  0.00    +0.000 A 
ATOM      5  C   UNL     1      47.648   6.543  13.096  0.00  0.00    +0.000 A 
ATOM      6  C   UNL     1      46.757   6.017  12.159  0.00  0.00    +0.000 A 
ENDROOT
BRANCH   1   7
ATOM      7  C   UNL     1      44.757   6.230  10.624  0.00  0.00    +0.000 C 
BRANCH   7   8
ATOM      8  N   UNL     1      45.495   5.372   9.691  0.00  0.00    +0.000 NA
ATOM      9  H   UNL     1      45.581   5.852   8.801  0.00  0.00    +0.000 HD
BRANCH   8  10
ATOM     10  C   UNL     1      44.876   4.049   9.476  0.00  0.00    +0.000 C 
BRANCH  10  11
ATOM     11  C   UNL     1      45.634   3.219   8.434  0.00  0.00    +0.000 A 
ATOM     12  C   UNL     1      46.156   3.831   7.296  0.00  0.00    +0.000 A 
ATOM     13  C   UNL     1      46.911   3.067   6.407  0.00  0.00    +0.000 A 
ATOM     14  C   UNL     1      47.136   1.724   6.683  0.00  0.00    +0.000 A 
ATOM     15  C   UNL     1      46.596   1.193   7.838  0.00  0.00    +0.000 A 
ATOM     16  N   UNL     1      45.856   1.905   8.713  0.00  0.00    +0.000 NA
ENDBRANCH  10  11
BRANCH  10  17
ATOM     17  C   UNL     1      44.634   3.224  10.766  0.00  0.00    +0.000 C 
BRANCH  17  19
ATOM     18  C   UNL     1      43.427   3.833  12.941  0.00  0.00    +0.000 C 
ATOM     19  C   UNL     1      43.297   3.425  11.484  0.00  0.00    +0.000 C 
ENDBRANCH  17  19
ENDBRANCH  10  17
ENDBRANCH   8  10
ENDBRANCH   7   8
ENDBRANCH   1   7
BRANCH   4  20
ATOM     20  C   UNL     1      48.480   8.425  14.544  0.00  0.00    +0.000 C 
BRANCH  20  21
ATOM     21  N   UNL     1      48.915   7.420  15.478  0.00  0.00    +0.000 N 
ATOM     22  C   UNL     1      48.796   7.612  16.829  0.00  0.00    +0.000 C 
ATOM     23  O   UNL     1      48.283   8.625  17.300  0.00  0.00    +0.000 OA
ATOM     24  H   UNL     1      49.533   6.698  15.123  0.00  0.00    +0.000 HD
BRANCH  22  25
ATOM     25  C   UNL     1      49.255   6.516  17.690  0.00  0.00    +0.000 A 
ATOM     26  C   UNL     1      48.401   5.454  17.956  0.00  0.00    +0.000 A 
ATOM     27  S   UNL     1      49.102   4.239  18.925  0.00  0.00    +0.000 S 
ATOM     28  C   UNL     1      50.556   5.113  19.064  0.00  0.00    +0.000 A 
ATOM     29  N   UNL     1      51.592   4.629  19.800  0.00  0.00    +0.000 NA
ATOM     30  C   UNL     1      52.624   5.406  19.845  0.00  0.00    +0.000 A 
ATOM     31  N   UNL     1      52.711   6.622  19.214  0.00  0.00    +0.000 N 
ATOM     32  C   UNL     1      51.701   7.138  18.441  0.00  0.00    +0.000 A 
ATOM     33  O   UNL     1      51.826   8.211  17.864  0.00  0.00    +0.000 OA
ATOM     34  C   UNL     1      50.513   6.307  18.366  0.00  0.00    +0.000 A 
ATOM     35  H   UNL     1      53.550   7.179  19.283  0.00  0.00    +0.000 HD
ENDBRANCH  22  25
ENDBRANCH  20  21
ENDBRANCH   4  20
TORSDOF 9
ENDMDL
MODEL 6
REMARK VINA RESULT:    -6.061      3.189      8.407
REMARK INTER + INTRA:         -10.862
REMARK INTER:                  -9.169
REMARK INTRA:                  -1.693
REMARK UNBOUND:                -1.612
REMARK  Name = 
REMARK  10 active torsions:
REMARK  status: ('A' for Active; 'I' for Inactive)
REMARK    1  A    between atoms: C_1  and  C_2
REMARK    2  A    between atoms: C_2  and  C_3
REMARK    3  A    between atoms: C_3  and  C_4
REMARK    4  A    between atoms: C_4  and  N_5
REMARK    5  A    between atoms: C_4  and  C_27
REMARK    6  A    between atoms: N_5  and  C_6
REMARK    7  A    between atoms: C_6  and  C_7
REMARK    8  A    between atoms: C_10  and  C_11
REMARK    9  A    between atoms: C_11  and  N_12
REMARK   10  A    between atoms: C_13  and  C_15
REMARK                            x       y       z     vdW  Elec       q    Type
REMARK                         _______ _______ _______ _____ _____    ______ ____
ROOT
ATOM      1  C   UNL     1      50.378   7.262  15.540  0.00  0.00    +0.000 A 
ATOM      2  C   UNL     1      50.882   8.185  14.613  0.00  0.00    +0.000 A 
ATOM      3  C   UNL     1      50.161   8.500  13.459  0.00  0.00    +0.000 A 
ATOM      4  C   UNL     1      48.925   7.893  13.206  0.00  0.00    +0.000 A 
ATOM      5  C   UNL     1      48.452   6.922  14.098  0.00  0.00    +0.000 A 
ATOM      6  C   UNL     1      49.166   6.616  15.257  0.00  0.00    +0.000 A 
ENDROOT
BRANCH   1   7
ATOM      7  C   UNL     1      51.117   6.972  16.829  0.00  0.00    +0.000 C 
BRANCH   7   8
ATOM      8  N   UNL     1      50.199   7.023  17.972  0.00  0.00    +0.000 NA
ATOM      9  H   UNL     1      50.434   7.827  18.546  0.00  0.00    +0.000 HD
BRANCH   8  10
ATOM     10  C   UNL     1      50.215   5.805  18.806  0.00  0.00    +0.000 C 
BRANCH  10  11
ATOM     11  C   UNL     1      49.321   4.700  18.233  0.00  0.00    +0.000 A 
ATOM     12  C   UNL     1      47.942   4.884  18.153  0.00  0.00    +0.000 A 
ATOM     13  C   UNL     1      47.164   3.897  17.552  0.00  0.00    +0.000 A 
ATOM     14  C   UNL     1      47.780   2.764  17.034  0.00  0.00    +0.000 A 
ATOM     15  C   UNL     1      49.153   2.660  17.140  0.00  0.00    +0.000 A 
ATOM     16  N   UNL     1      49.932   3.595  17.722  0.00  0.00    +0.000 NA
ENDBRANCH  10  11
BRANCH  10  17
ATOM     17  C   UNL     1      51.626   5.255  19.134  0.00  0.00    +0.000 C 
BRANCH  17  19
ATOM     18  C   UNL     1      53.035   7.019  20.346  0.00  0.00    +0.000 C 
ATOM     19  C   UNL     1      52.267   5.713  20.448  0.00  0.00    +0.000 C 
ENDBRANCH  17  19
ENDBRANCH  10  17
ENDBRANCH   8  10
ENDBRANCH   7   8
ENDBRANCH   1   7
BRANCH   4  20
ATOM     20  C   UNL     1      48.131   8.242  11.979  0.00  0.00    +0.000 C 
BRANCH  20  21
ATOM     21  N   UNL     1      47.488   7.074  11.435  0.00  0.00    +0.000 N 
ATOM     22  C   UNL     1      46.123   6.986  11.367  0.00  0.00    +0.000 C 
ATOM     23  O   UNL     1      45.393   7.907  11.728  0.00  0.00    +0.000 OA
ATOM     24  H   UNL     1      48.053   6.236  11.347  0.00  0.00    +0.000 HD
BRANCH  22  25
ATOM     25  C   UNL     1      45.574   5.760  10.779  0.00  0.00    +0.000 A 
ATOM     26  C   UNL     1      45.796   5.487   9.436  0.00  0.00    +0.000 A 
ATOM     27  S   UNL     1      45.140   4.001   8.921  0.00  0.00    +0.000 S 
ATOM     28  C   UNL     1      44.492   3.691  10.464  0.00  0.00    +0.000 A 
ATOM     29  N   UNL     1      43.772   2.562  10.704  0.00  0.00    +0.000 NA
ATOM     30  C   UNL     1      43.314   2.467  11.909  0.00  0.00    +0.000 A 
ATOM     31  N   UNL     1      43.518   3.398  12.895  0.00  0.00    +0.000 N 
ATOM     32  C   UNL     1      44.258   4.539  12.706  0.00  0.00    +0.000 A 
ATOM     33  O   UNL     1      44.448   5.333  13.619  0.00  0.00    +0.000 OA
ATOM     34  C   UNL     1      44.787   4.701  11.364  0.00  0.00    +0.000 A 
ATOM     35  H   UNL     1      43.138   3.262  13.820  0.00  0.00    +0.000 HD
ENDBRANCH  22  25
ENDBRANCH  20  21
ENDBRANCH   4  20
TORSDOF 9
ENDMDL
MODEL 7
REMARK VINA RESULT:    -5.989      3.035      8.852
REMARK INTER + INTRA:         -10.753
REMARK INTER:                  -9.325
REMARK INTRA:                  -1.428
REMARK UNBOUND:                -1.612
REMARK  Name = 
REMARK  10 active torsions:
REMARK  status: ('A' for Active; 'I' for Inactive)
REMARK    1  A    between atoms: C_1  and  C_2
REMARK    2  A    between atoms: C_2  and  C_3
REMARK    3  A    between atoms: C_3  and  C_4
REMARK    4  A    between atoms: C_4  and  N_5
REMARK    5  A    between atoms: C_4  and  C_27
REMARK    6  A    between atoms: N_5  and  C_6
REMARK    7  A    between atoms: C_6  and  C_7
REMARK    8  A    between atoms: C_10  and  C_11
REMARK    9  A    between atoms: C_11  and  N_12
REMARK   10  A    between atoms: C_13  and  C_15
REMARK                            x       y       z     vdW  Elec       q    Type
REMARK                         _______ _______ _______ _____ _____    ______ ____
ROOT
ATOM      1  C   UNL     1      48.032   7.764  14.090  0.00  0.00    +0.000 A 
ATOM      2  C   UNL     1      47.037   8.695  13.761  0.00  0.00    +0.000 A 
ATOM      3  C   UNL     1      46.093   8.406  12.773  0.00  0.00    +0.000 A 
ATOM      4  C   UNL     1      46.130   7.184  12.090  0.00  0.00    +0.000 A 
ATOM      5  C   UNL     1      47.163   6.282  12.371  0.00  0.00    +0.000 A 
ATOM      6  C   UNL     1      48.099   6.564  13.367  0.00  0.00    +0.000 A 
ENDROOT
BRANCH   1   7
ATOM      7  C   UNL     1      49.012   8.037  15.211  0.00  0.00    +0.000 C 
BRANCH   7   8
ATOM      8  N   UNL     1      48.429   7.673  16.506  0.00  0.00    +0.000 NA
ATOM      9  H   UNL     1      48.261   8.520  17.040  0.00  0.00    +0.000 HD
BRANCH   8  10
ATOM     10  C   UNL     1      49.265   6.752  17.301  0.00  0.00    +0.000 C 
BRANCH  10  11
ATOM     11  C   UNL     1      48.643   5.354  17.409  0.00  0.00    +0.000 A 
ATOM     12  C   UNL     1      47.848   4.859  16.377  0.00  0.00    +0.000 A 
ATOM     13  C   UNL     1      47.365   3.555  16.466  0.00  0.00    +0.000 A 
ATOM     14  C   UNL     1      47.697   2.778  17.569  0.00  0.00    +0.000 A 
ATOM     15  C   UNL     1      48.500   3.335  18.544  0.00  0.00    +0.000 A 
ATOM     16  N   UNL     1      48.978   4.596  18.490  0.00  0.00    +0.000 NA
ENDBRANCH  10  11
BRANCH  10  17
ATOM     17  C   UNL     1      50.746   6.661  16.853  0.00  0.00    +0.000 C 
BRANCH  17  19
ATOM     18  C   UNL     1      52.097   8.687  17.646  0.00  0.00    +0.000 C 
ATOM     19  C   UNL     1      51.802   7.207  17.817  0.00  0.00    +0.000 C 
ENDBRANCH  17  19
ENDBRANCH  10  17
ENDBRANCH   8  10
ENDBRANCH   7   8
ENDBRANCH   1   7
BRANCH   4  20
ATOM     20  C   UNL     1      45.105   6.856  11.041  0.00  0.00    +0.000 C 
BRANCH  20  21
ATOM     21  N   UNL     1      45.414   5.607  10.396  0.00  0.00    +0.000 N 
ATOM     22  C   UNL     1      44.423   4.730  10.041  0.00  0.00    +0.000 C 
ATOM     23  O   UNL     1      43.235   4.985  10.222  0.00  0.00    +0.000 OA
ATOM     24  H   UNL     1      46.376   5.288  10.446  0.00  0.00    +0.000 HD
BRANCH  22  25
ATOM     25  C   UNL     1      44.849   3.495   9.374  0.00  0.00    +0.000 A 
ATOM     26  C   UNL     1      44.227   2.296   9.696  0.00  0.00    +0.000 A 
ATOM     27  S   UNL     1      44.797   0.966   8.795  0.00  0.00    +0.000 S 
ATOM     28  C   UNL     1      45.931   1.936   7.977  0.00  0.00    +0.000 A 
ATOM     29  N   UNL     1      46.776   1.397   7.058  0.00  0.00    +0.000 NA
ATOM     30  C   UNL     1      47.604   2.240   6.535  0.00  0.00    +0.000 A 
ATOM     31  N   UNL     1      47.657   3.575   6.846  0.00  0.00    +0.000 N 
ATOM     32  C   UNL     1      46.808   4.168   7.748  0.00  0.00    +0.000 A 
ATOM     33  O   UNL     1      46.860   5.370   7.976  0.00  0.00    +0.000 OA
ATOM     34  C   UNL     1      45.863   3.261   8.374  0.00  0.00    +0.000 A 
ATOM     35  H   UNL     1      48.324   4.184   6.396  0.00  0.00    +0.000 HD
ENDBRANCH  22  25
ENDBRANCH  20  21
ENDBRANCH   4  20
TORSDOF 9
ENDMDL
MODEL 8
REMARK VINA RESULT:    -5.893      5.291      8.101
REMARK INTER + INTRA:         -10.605
REMARK INTER:                  -9.191
REMARK INTRA:                  -1.415
REMARK UNBOUND:                -1.612
REMARK  Name = 
REMARK  10 active torsions:
REMARK  status: ('A' for Active; 'I' for Inactive)
REMARK    1  A    between atoms: C_1  and  C_2
REMARK    2  A    between atoms: C_2  and  C_3
REMARK    3  A    between atoms: C_3  and  C_4
REMARK    4  A    between atoms: C_4  and  N_5
REMARK    5  A    between atoms: C_4  and  C_27
REMARK    6  A    between atoms: N_5  and  C_6
REMARK    7  A    between atoms: C_6  and  C_7
REMARK    8  A    between atoms: C_10  and  C_11
REMARK    9  A    between atoms: C_11  and  N_12
REMARK   10  A    between atoms: C_13  and  C_15
REMARK                            x       y       z     vdW  Elec       q    Type
REMARK                         _______ _______ _______ _____ _____    ______ ____
ROOT
ATOM      1  C   UNL     1      50.010   9.059  11.512  0.00  0.00    +0.000 A 
ATOM      2  C   UNL     1      49.046  10.072  11.615  0.00  0.00    +0.000 A 
ATOM      3  C   UNL     1      47.767   9.789  12.099  0.00  0.00    +0.000 A 
ATOM      4  C   UNL     1      47.425   8.486  12.482  0.00  0.00    +0.000 A 
ATOM      5  C   UNL     1      48.365   7.462  12.318  0.00  0.00    +0.000 A 
ATOM      6  C   UNL     1      49.648   7.747  11.846  0.00  0.00    +0.000 A 
ENDROOT
BRANCH   1   7
ATOM      7  C   UNL     1      51.421   9.371  11.060  0.00  0.00    +0.000 C 
BRANCH   7   8
ATOM      8  N   UNL     1      52.288   8.200  11.229  0.00  0.00    +0.000 NA
ATOM      9  H   UNL     1      52.543   8.120  12.208  0.00  0.00    +0.000 HD
BRANCH   8  10
ATOM     10  C   UNL     1      53.512   8.238  10.405  0.00  0.00    +0.000 C 
BRANCH  10  11
ATOM     11  C   UNL     1      53.528   7.134   9.342  0.00  0.00    +0.000 A 
ATOM     12  C   UNL     1      52.551   7.103   8.349  0.00  0.00    +0.000 A 
ATOM     13  C   UNL     1      52.639   6.138   7.348  0.00  0.00    +0.000 A 
ATOM     14  C   UNL     1      53.701   5.241   7.355  0.00  0.00    +0.000 A 
ATOM     15  C   UNL     1      54.636   5.343   8.366  0.00  0.00    +0.000 A 
ATOM     16  N   UNL     1      54.575   6.262   9.352  0.00  0.00    +0.000 NA
ENDBRANCH  10  11
BRANCH  10  17
ATOM     17  C   UNL     1      53.831   9.616   9.771  0.00  0.00    +0.000 C 
BRANCH  17  19
ATOM     18  C   UNL     1      55.620   9.835   7.951  0.00  0.00    +0.000 C 
ATOM     19  C   UNL     1      55.296   9.907   9.433  0.00  0.00    +0.000 C 
ENDBRANCH  17  19
ENDBRANCH  10  17
ENDBRANCH   8  10
ENDBRANCH   7   8
ENDBRANCH   1   7
BRANCH   4  20
ATOM     20  C   UNL     1      46.058   8.177  13.025  0.00  0.00    +0.000 C 
BRANCH  20  21
ATOM     21  N   UNL     1      45.670   6.830  12.698  0.00  0.00    +0.000 N 
ATOM     22  C   UNL     1      44.790   6.576  11.680  0.00  0.00    +0.000 C 
ATOM     23  O   UNL     1      44.327   7.474  10.981  0.00  0.00    +0.000 OA
ATOM     24  H   UNL     1      45.859   6.114  13.393  0.00  0.00    +0.000 HD
BRANCH  22  25
ATOM     25  C   UNL     1      44.477   5.166  11.421  0.00  0.00    +0.000 A 
ATOM     26  C   UNL     1      43.739   4.449  12.353  0.00  0.00    +0.000 A 
ATOM     27  S   UNL     1      43.414   2.844  11.879  0.00  0.00    +0.000 S 
ATOM     28  C   UNL     1      44.292   3.035  10.434  0.00  0.00    +0.000 A 
ATOM     29  N   UNL     1      44.427   2.002   9.559  0.00  0.00    +0.000 NA
ATOM     30  C   UNL     1      45.142   2.276   8.517  0.00  0.00    +0.000 A 
ATOM     31  N   UNL     1      45.727   3.492   8.272  0.00  0.00    +0.000 N 
ATOM     32  C   UNL     1      45.597   4.569   9.113  0.00  0.00    +0.000 A 
ATOM     33  O   UNL     1      46.105   5.651   8.846  0.00  0.00    +0.000 OA
ATOM     34  C   UNL     1      44.811   4.312  10.307  0.00  0.00    +0.000 A 
ATOM     35  H   UNL     1      46.269   3.644   7.434  0.00  0.00    +0.000 HD
ENDBRANCH  22  25
ENDBRANCH  20  21
ENDBRANCH   4  20
TORSDOF 9
ENDMDL
MODEL 9
REMARK VINA RESULT:    -5.771      5.564      8.270
REMARK INTER + INTRA:         -10.419
REMARK INTER:                  -9.065
REMARK INTRA:                  -1.354
REMARK UNBOUND:                -1.612
REMARK  Name = 
REMARK  10 active torsions:
REMARK  status: ('A' for Active; 'I' for Inactive)
REMARK    1  A    between atoms: C_1  and  C_2
REMARK    2  A    between atoms: C_2  and  C_3
REMARK    3  A    between atoms: C_3  and  C_4
REMARK    4  A    between atoms: C_4  and  N_5
REMARK    5  A    between atoms: C_4  and  C_27
REMARK    6  A    between atoms: N_5  and  C_6
REMARK    7  A    between atoms: C_6  and  C_7
REMARK    8  A    between atoms: C_10  and  C_11
REMARK    9  A    between atoms: C_11  and  N_12
REMARK   10  A    between atoms: C_13  and  C_15
REMARK                            x       y       z     vdW  Elec       q    Type
REMARK                         _______ _______ _______ _____ _____    ______ ____
ROOT
ATOM      1  C   UNL     1      50.391   8.846  11.303  0.00  0.00    +0.000 A 
ATOM      2  C   UNL     1      49.994   7.566  11.714  0.00  0.00    +0.000 A 
ATOM      3  C   UNL     1      48.706   7.346  12.207  0.00  0.00    +0.000 A 
ATOM      4  C   UNL     1      47.792   8.402  12.305  0.00  0.00    +0.000 A 
ATOM      5  C   UNL     1      48.208   9.693  11.956  0.00  0.00    +0.000 A 
ATOM      6  C   UNL     1      49.491   9.911  11.452  0.00  0.00    +0.000 A 
ENDROOT
BRANCH   1   7
ATOM      7  C   UNL     1      51.759   9.080  10.698  0.00  0.00    +0.000 C 
BRANCH   7   8
ATOM      8  N   UNL     1      52.515   7.825  10.634  0.00  0.00    +0.000 NA
ATOM      9  H   UNL     1      53.383   7.938  11.149  0.00  0.00    +0.000 HD
BRANCH   8  10
ATOM     10  C   UNL     1      52.817   7.377   9.260  0.00  0.00    +0.000 C 
BRANCH  10  11
ATOM     11  C   UNL     1      53.603   8.430   8.469  0.00  0.00    +0.000 A 
ATOM     12  C   UNL     1      54.918   8.731   8.818  0.00  0.00    +0.000 A 
ATOM     13  C   UNL     1      55.634   9.630   8.031  0.00  0.00    +0.000 A 
ATOM     14  C   UNL     1      55.029  10.191   6.912  0.00  0.00    +0.000 A 
ATOM     15  C   UNL     1      53.727   9.832   6.624  0.00  0.00    +0.000 A 
ATOM     16  N   UNL     1      53.005   8.971   7.371  0.00  0.00    +0.000 NA
ENDBRANCH  10  11
BRANCH  10  17
ATOM     17  C   UNL     1      53.501   5.990   9.160  0.00  0.00    +0.000 C 
BRANCH  17  19
ATOM     18  C   UNL     1      54.898   5.269   7.137  0.00  0.00    +0.000 C 
ATOM     19  C   UNL     1      53.525   5.320   7.783  0.00  0.00    +0.000 C 
ENDBRANCH  17  19
ENDBRANCH  10  17
ENDBRANCH   8  10
ENDBRANCH   7   8
ENDBRANCH   1   7
BRANCH   4  20
ATOM     20  C   UNL     1      46.397   8.169  12.812  0.00  0.00    +0.000 C 
BRANCH  20  21
ATOM     21  N   UNL     1      45.963   6.828  12.522  0.00  0.00    +0.000 N 
ATOM     22  C   UNL     1      44.888   6.594  11.706  0.00  0.00    +0.000 C 
ATOM     23  O   UNL     1      44.275   7.509  11.160  0.00  0.00    +0.000 OA
ATOM     24  H   UNL     1      46.304   6.091  13.130  0.00  0.00    +0.000 HD
BRANCH  22  25
ATOM     25  C   UNL     1      44.542   5.189  11.464  0.00  0.00    +0.000 A 
ATOM     26  C   UNL     1      43.820   4.489  12.421  0.00  0.00    +0.000 A 
ATOM     27  S   UNL     1      43.453   2.888  11.966  0.00  0.00    +0.000 S 
ATOM     28  C   UNL     1      44.290   3.057  10.493  0.00  0.00    +0.000 A 
ATOM     29  N   UNL     1      44.381   2.019   9.620  0.00  0.00    +0.000 NA
ATOM     30  C   UNL     1      45.068   2.276   8.555  0.00  0.00    +0.000 A 
ATOM     31  N   UNL     1      45.667   3.480   8.286  0.00  0.00    +0.000 N 
ATOM     32  C   UNL     1      45.580   4.563   9.126  0.00  0.00    +0.000 A 
ATOM     33  O   UNL     1      46.099   5.635   8.838  0.00  0.00    +0.000 OA
ATOM     34  C   UNL     1      44.827   4.324  10.344  0.00  0.00    +0.000 A 
ATOM     35  H   UNL     1      46.186   3.619   7.432  0.00  0.00    +0.000 HD
ENDBRANCH  22  25
ENDBRANCH  20  21
ENDBRANCH   4  20
TORSDOF 9
ENDMDL
