MODEL 1
REMARK VINA RESULT:    -9.294      0.000      0.000
REMARK INTER + INTRA:         -12.735
REMARK INTER:                 -11.467
REMARK INTRA:                  -1.268
REMARK UNBOUND:                -1.268
REMARK  Name = 
REMARK  4 active torsions:
REMARK  status: ('A' for Active; 'I' for Inactive)
REMARK    1  A    between atoms: C_2  and  C_4
REMARK    2  A    between atoms: N_8  and  C_9
REMARK    3  A    between atoms: C_9  and  C_10
REMARK    4  A    between atoms: C_14  and  C_15
REMARK                            x       y       z     vdW  Elec       q    Type
REMARK                         _______ _______ _______ _____ _____    ______ ____
ROOT
ATOM      1  C   UNL     1      43.782   4.954  11.369  0.00  0.00    +0.000 C 
ATOM      2  C   UNL     1      42.410   5.272  11.940  0.00  0.00    +0.000 C 
ATOM      3  C   UNL     1      43.064   6.240  11.013  0.00  0.00    +0.000 C 
ENDROOT
BRANCH   1   8
ATOM      4  C   UNL     1      46.518   2.691   7.539  0.00  0.00    +0.000 A 
ATOM      5  C   UNL     1      46.204   4.035   7.692  0.00  0.00    +0.000 A 
ATOM      6  C   UNL     1      45.326   4.422   8.709  0.00  0.00    +0.000 A 
ATOM      7  C   UNL     1      44.778   3.461   9.548  0.00  0.00    +0.000 A 
ATOM      8  N   UNL     1      43.808   3.748  10.516  0.00  0.00    +0.000 N 
ATOM      9  N   UNL     1      45.077   2.149   9.403  0.00  0.00    +0.000 NA
ATOM     10  C   UNL     1      45.925   1.789   8.409  0.00  0.00    +0.000 A 
ATOM     11  H   UNL     1      43.670   2.868  11.013  0.00  0.00    +0.000 HD
BRANCH   4  13
ATOM     12  N   UNL     1      47.581   2.983   5.375  0.00  0.00    +0.000 N 
ATOM     13  C   UNL     1      47.418   2.185   6.470  0.00  0.00    +0.000 C 
ATOM     14  O   UNL     1      47.993   1.111   6.575  0.00  0.00    +0.000 OA
ATOM     15  H   UNL     1      48.254   2.673   4.688  0.00  0.00    +0.000 HD
ATOM     16  H   UNL     1      47.324   3.961   5.366  0.00  0.00    +0.000 HD
ENDBRANCH   4  13
ENDBRANCH   1   8
BRANCH   1  17
ATOM     17  C   UNL     1      45.018   5.064  12.253  0.00  0.00    +0.000 A 
ATOM     18  C   UNL     1      45.513   3.987  13.003  0.00  0.00    +0.000 A 
ATOM     19  C   UNL     1      46.744   4.071  13.652  0.00  0.00    +0.000 A 
ATOM     20  C   UNL     1      47.520   5.224  13.537  0.00  0.00    +0.000 A 
ATOM     21  C   UNL     1      47.074   6.326  12.788  0.00  0.00    +0.000 A 
ATOM     22  C   UNL     1      45.796   6.235  12.211  0.00  0.00    +0.000 A 
BRANCH  21  23
ATOM     23  C   UNL     1      47.956   7.466  12.451  0.00  0.00    +0.000 A 
ATOM     24  C   UNL     1      49.324   7.255  12.199  0.00  0.00    +0.000 A 
ATOM     25  C   UNL     1      50.132   8.281  11.714  0.00  0.00    +0.000 A 
ATOM     26  F   UNL     1      51.420   8.031  11.454  0.00  0.00    +0.000 F 
ATOM     27  C   UNL     1      49.614   9.542  11.465  0.00  0.00    +0.000 A 
ATOM     28  C   UNL     1      48.276   9.770  11.733  0.00  0.00    +0.000 A 
ATOM     29  F   UNL     1      47.751  10.976  11.475  0.00  0.00    +0.000 F 
ATOM     30  C   UNL     1      47.453   8.761  12.234  0.00  0.00    +0.000 A 
ENDBRANCH  21  23
ENDBRANCH   1  17
TORSDOF 4
ENDMDL
MODEL 2
REMARK VINA RESULT:    -9.037      2.704      3.934
REMARK INTER + INTRA:         -12.417
REMARK INTER:                 -11.688
REMARK INTRA:                  -0.729
REMARK UNBOUND:                -1.268
REMARK  Name = 
REMARK  4 active torsions:
REMARK  status: ('A' for Active; 'I' for Inactive)
REMARK    1  A    between atoms: C_2  and  C_4
REMARK    2  A    between atoms: N_8  and  C_9
REMARK    3  A    between atoms: C_9  and  C_10
REMARK    4  A    between atoms: C_14  and  C_15
REMARK                            x       y       z     vdW  Elec       q    Type
REMARK                         _______ _______ _______ _____ _____    ______ ____
ROOT
ATOM      1  C   UNL     1      43.998   4.915  11.568  0.00  0.00    +0.000 C 
ATOM      2  C   UNL     1      42.860   5.008  12.573  0.00  0.00    +0.000 C 
ATOM      3  C   UNL     1      42.925   5.978  11.442  0.00  0.00    +0.000 C 
ENDROOT
BRANCH   1   8
ATOM      4  C   UNL     1      46.306   2.623   7.483  0.00  0.00    +0.000 A 
ATOM      5  C   UNL     1      45.876   3.939   7.600  0.00  0.00    +0.000 A 
ATOM      6  C   UNL     1      45.138   4.321   8.725  0.00  0.00    +0.000 A 
ATOM      7  C   UNL     1      44.842   3.383   9.705  0.00  0.00    +0.000 A 
ATOM      8  N   UNL     1      44.017   3.652  10.803  0.00  0.00    +0.000 N 
ATOM      9  N   UNL     1      45.255   2.098   9.595  0.00  0.00    +0.000 NA
ATOM     10  C   UNL     1      45.964   1.743   8.497  0.00  0.00    +0.000 A 
ATOM     11  H   UNL     1      44.058   2.807  11.371  0.00  0.00    +0.000 HD
BRANCH   4  13
ATOM     12  N   UNL     1      47.331   3.019   5.317  0.00  0.00    +0.000 N 
ATOM     13  C   UNL     1      47.070   2.122   6.311  0.00  0.00    +0.000 C 
ATOM     14  O   UNL     1      47.457   0.963   6.250  0.00  0.00    +0.000 OA
ATOM     15  H   UNL     1      47.917   2.697   4.560  0.00  0.00    +0.000 HD
ATOM     16  H   UNL     1      47.244   4.018   5.443  0.00  0.00    +0.000 HD
ENDBRANCH   4  13
ENDBRANCH   1   8
BRANCH   1  17
ATOM     17  C   UNL     1      45.396   5.376  11.960  0.00  0.00    +0.000 A 
ATOM     18  C   UNL     1      46.093   6.370  11.256  0.00  0.00    +0.000 A 
ATOM     19  C   UNL     1      47.286   6.895  11.749  0.00  0.00    +0.000 A 
ATOM     20  C   UNL     1      47.791   6.459  12.974  0.00  0.00    +0.000 A 
ATOM     21  C   UNL     1      47.126   5.474  13.722  0.00  0.00    +0.000 A 
ATOM     22  C   UNL     1      45.967   4.912  13.159  0.00  0.00    +0.000 A 
BRANCH  21  23
ATOM     23  C   UNL     1      47.496   5.152  15.119  0.00  0.00    +0.000 A 
ATOM     24  C   UNL     1      47.008   3.984  15.732  0.00  0.00    +0.000 A 
ATOM     25  C   UNL     1      47.478   3.576  16.978  0.00  0.00    +0.000 A 
ATOM     26  F   UNL     1      47.014   2.441  17.513  0.00  0.00    +0.000 F 
ATOM     27  C   UNL     1      48.443   4.307  17.653  0.00  0.00    +0.000 A 
ATOM     28  C   UNL     1      48.913   5.471  17.072  0.00  0.00    +0.000 A 
ATOM     29  F   UNL     1      49.865   6.179  17.698  0.00  0.00    +0.000 F 
ATOM     30  C   UNL     1      48.444   5.906  15.833  0.00  0.00    +0.000 A 
ENDBRANCH  21  23
ENDBRANCH   1  17
TORSDOF 4
ENDMDL
MODEL 3
REMARK VINA RESULT:    -7.717      4.846      8.093
REMARK INTER + INTRA:         -10.789
REMARK INTER:                 -10.702
REMARK INTRA:                  -0.087
REMARK UNBOUND:                -1.268
REMARK  Name = 
REMARK  4 active torsions:
REMARK  status: ('A' for Active; 'I' for Inactive)
REMARK    1  A    between atoms: C_2  and  C_4
REMARK    2  A    between atoms: N_8  and  C_9
REMARK    3  A    between atoms: C_9  and  C_10
REMARK    4  A    between atoms: C_14  and  C_15
REMARK                            x       y       z     vdW  Elec       q    Type
REMARK                         _______ _______ _______ _____ _____    ______ ____
ROOT
ATOM      1  C   UNL     1      46.542   5.611  12.859  0.00  0.00    +0.000 C 
ATOM      2  C   UNL     1      47.564   6.637  12.392  0.00  0.00    +0.000 C 
ATOM      3  C   UNL     1      46.465   7.056  13.310  0.00  0.00    +0.000 C 
ENDROOT
BRANCH   1   8
ATOM      4  C   UNL     1      48.227   4.501  17.676  0.00  0.00    +0.000 A 
ATOM      5  C   UNL     1      48.410   5.672  16.951  0.00  0.00    +0.000 A 
ATOM      6  C   UNL     1      48.011   5.716  15.611  0.00  0.00    +0.000 A 
ATOM      7  C   UNL     1      47.444   4.593  15.023  0.00  0.00    +0.000 A 
ATOM      8  N   UNL     1      47.122   4.516  13.663  0.00  0.00    +0.000 N 
ATOM      9  N   UNL     1      47.267   3.448  15.723  0.00  0.00    +0.000 NA
ATOM     10  C   UNL     1      47.664   3.419  17.019  0.00  0.00    +0.000 A 
ATOM     11  H   UNL     1      46.658   3.614  13.557  0.00  0.00    +0.000 HD
BRANCH   4  13
ATOM     12  N   UNL     1      48.290   3.195  19.722  0.00  0.00    +0.000 N 
ATOM     13  C   UNL     1      48.645   4.353  19.094  0.00  0.00    +0.000 C 
ATOM     14  O   UNL     1      49.288   5.223  19.664  0.00  0.00    +0.000 OA
ATOM     15  H   UNL     1      48.643   3.064  20.660  0.00  0.00    +0.000 HD
ATOM     16  H   UNL     1      47.983   2.371  19.223  0.00  0.00    +0.000 HD
ENDBRANCH   4  13
ENDBRANCH   1   8
BRANCH   1  17
ATOM     17  C   UNL     1      45.467   5.119  11.900  0.00  0.00    +0.000 A 
ATOM     18  C   UNL     1      44.186   5.688  11.839  0.00  0.00    +0.000 A 
ATOM     19  C   UNL     1      43.293   5.339  10.827  0.00  0.00    +0.000 A 
ATOM     20  C   UNL     1      43.676   4.435   9.835  0.00  0.00    +0.000 A 
ATOM     21  C   UNL     1      44.951   3.846   9.845  0.00  0.00    +0.000 A 
ATOM     22  C   UNL     1      45.797   4.163  10.922  0.00  0.00    +0.000 A 
BRANCH  21  23
ATOM     23  C   UNL     1      45.476   3.071   8.699  0.00  0.00    +0.000 A 
ATOM     24  C   UNL     1      45.879   3.728   7.522  0.00  0.00    +0.000 A 
ATOM     25  C   UNL     1      46.532   3.040   6.503  0.00  0.00    +0.000 A 
ATOM     26  F   UNL     1      46.931   3.708   5.414  0.00  0.00    +0.000 F 
ATOM     27  C   UNL     1      46.807   1.687   6.615  0.00  0.00    +0.000 A 
ATOM     28  C   UNL     1      46.393   1.023   7.756  0.00  0.00    +0.000 A 
ATOM     29  F   UNL     1      46.671  -0.282   7.894  0.00  0.00    +0.000 F 
ATOM     30  C   UNL     1      45.723   1.689   8.782  0.00  0.00    +0.000 A 
ENDBRANCH  21  23
ENDBRANCH   1  17
TORSDOF 4
ENDMDL
MODEL 4
REMARK VINA RESULT:    -7.423      5.122      8.273
REMARK INTER + INTRA:         -10.427
REMARK INTER:                  -9.320
REMARK INTRA:                  -1.107
REMARK UNBOUND:                -1.268
REMARK  Name = 
REMARK  4 active torsions:
REMARK  status: ('A' for Active; 'I' for Inactive)
REMARK    1  A    between atoms: C_2  and  C_4
REMARK    2  A    between atoms: N_8  and  C_9
REMARK    3  A    between atoms: C_9  and  C_10
REMARK    4  A    between atoms: C_14  and  C_15
REMARK                            x       y       z     vdW  Elec       q    Type
REMARK                         _______ _______ _______ _____ _____    ______ ____
ROOT
ATOM      1  C   UNL     1      48.977   7.887  12.575  0.00  0.00    +0.000 C 
ATOM      2  C   UNL     1      49.930   7.998  11.395  0.00  0.00    +0.000 C 
ATOM      3  C   UNL     1      49.681   9.190  12.256  0.00  0.00    +0.000 C 
ENDROOT
BRANCH   1   8
ATOM      4  C   UNL     1      48.460   6.810  17.659  0.00  0.00    +0.000 A 
ATOM      5  C   UNL     1      48.587   8.054  17.053  0.00  0.00    +0.000 A 
ATOM      6  C   UNL     1      48.871   8.123  15.685  0.00  0.00    +0.000 A 
ATOM      7  C   UNL     1      49.025   6.953  14.953  0.00  0.00    +0.000 A 
ATOM      8  N   UNL     1      49.419   6.931  13.610  0.00  0.00    +0.000 N 
ATOM      9  N   UNL     1      48.905   5.738  15.539  0.00  0.00    +0.000 NA
ATOM     10  C   UNL     1      48.636   5.688  16.866  0.00  0.00    +0.000 A 
ATOM     11  H   UNL     1      49.364   5.950  13.340  0.00  0.00    +0.000 HD
BRANCH   4  13
ATOM     12  N   UNL     1      47.368   5.608  19.465  0.00  0.00    +0.000 N 
ATOM     13  C   UNL     1      48.187   6.640  19.110  0.00  0.00    +0.000 C 
ATOM     14  O   UNL     1      48.685   7.383  19.944  0.00  0.00    +0.000 OA
ATOM     15  H   UNL     1      47.248   5.448  20.455  0.00  0.00    +0.000 HD
ATOM     16  H   UNL     1      47.144   4.845  18.841  0.00  0.00    +0.000 HD
ENDBRANCH   4  13
ENDBRANCH   1   8
BRANCH   1  17
ATOM     17  C   UNL     1      47.474   7.826  12.335  0.00  0.00    +0.000 A 
ATOM     18  C   UNL     1      46.643   8.952  12.436  0.00  0.00    +0.000 A 
ATOM     19  C   UNL     1      45.311   8.898  12.030  0.00  0.00    +0.000 A 
ATOM     20  C   UNL     1      44.790   7.725  11.483  0.00  0.00    +0.000 A 
ATOM     21  C   UNL     1      45.584   6.574  11.351  0.00  0.00    +0.000 A 
ATOM     22  C   UNL     1      46.900   6.641  11.840  0.00  0.00    +0.000 A 
BRANCH  21  23
ATOM     23  C   UNL     1      45.146   5.393  10.572  0.00  0.00    +0.000 A 
ATOM     24  C   UNL     1      45.632   5.182   9.269  0.00  0.00    +0.000 A 
ATOM     25  C   UNL     1      45.369   3.996   8.588  0.00  0.00    +0.000 A 
ATOM     26  F   UNL     1      45.878   3.819   7.363  0.00  0.00    +0.000 F 
ATOM     27  C   UNL     1      44.622   2.986   9.172  0.00  0.00    +0.000 A 
ATOM     28  C   UNL     1      44.117   3.191  10.443  0.00  0.00    +0.000 A 
ATOM     29  F   UNL     1      43.413   2.216  11.035  0.00  0.00    +0.000 F 
ATOM     30  C   UNL     1      44.355   4.378  11.137  0.00  0.00    +0.000 A 
ENDBRANCH  21  23
ENDBRANCH   1  17
TORSDOF 4
ENDMDL
MODEL 5
REMARK VINA RESULT:    -7.378      5.151      8.319
REMARK INTER + INTRA:         -10.371
REMARK INTER:                  -9.293
REMARK INTRA:                  -1.079
REMARK UNBOUND:                -1.268
REMARK  Name = 
REMARK  4 active torsions:
REMARK  status: ('A' for Active; 'I' for Inactive)
REMARK    1  A    between atoms: C_2  and  C_4
REMARK    2  A    between atoms: N_8  and  C_9
REMARK    3  A    between atoms: C_9  and  C_10
REMARK    4  A    between atoms: C_14  and  C_15
REMARK                            x       y       z     vdW  Elec       q    Type
REMARK                         _______ _______ _______ _____ _____    ______ ____
ROOT
ATOM      1  C   UNL     1      48.926   8.041  12.579  0.00  0.00    +0.000 C 
ATOM      2  C   UNL     1      49.894   8.289  11.433  0.00  0.00    +0.000 C 
ATOM      3  C   UNL     1      49.517   9.415  12.334  0.00  0.00    +0.000 C 
ENDROOT
BRANCH   1   8
ATOM      4  C   UNL     1      48.490   6.796  17.631  0.00  0.00    +0.000 A 
ATOM      5  C   UNL     1      48.544   8.061  17.060  0.00  0.00    +0.000 A 
ATOM      6  C   UNL     1      48.818   8.184  15.694  0.00  0.00    +0.000 A 
ATOM      7  C   UNL     1      49.037   7.046  14.930  0.00  0.00    +0.000 A 
ATOM      8  N   UNL     1      49.426   7.084  13.586  0.00  0.00    +0.000 N 
ATOM      9  N   UNL     1      48.988   5.810  15.481  0.00  0.00    +0.000 NA
ATOM     10  C   UNL     1      48.728   5.708  16.807  0.00  0.00    +0.000 A 
ATOM     11  H   UNL     1      49.427   6.109  13.288  0.00  0.00    +0.000 HD
BRANCH   4  13
ATOM     12  N   UNL     1      47.495   5.471  19.407  0.00  0.00    +0.000 N 
ATOM     13  C   UNL     1      48.233   6.571  19.077  0.00  0.00    +0.000 C 
ATOM     14  O   UNL     1      48.675   7.328  19.930  0.00  0.00    +0.000 OA
ATOM     15  H   UNL     1      47.389   5.278  20.393  0.00  0.00    +0.000 HD
ATOM     16  H   UNL     1      47.328   4.709  18.764  0.00  0.00    +0.000 HD
ENDBRANCH   4  13
ENDBRANCH   1   8
BRANCH   1  17
ATOM     17  C   UNL     1      47.441   7.857  12.291  0.00  0.00    +0.000 A 
ATOM     18  C   UNL     1      46.527   8.921  12.307  0.00  0.00    +0.000 A 
ATOM     19  C   UNL     1      45.218   8.749  11.861  0.00  0.00    +0.000 A 
ATOM     20  C   UNL     1      44.805   7.515  11.358  0.00  0.00    +0.000 A 
ATOM     21  C   UNL     1      45.685   6.421  11.311  0.00  0.00    +0.000 A 
ATOM     22  C   UNL     1      46.973   6.609  11.840  0.00  0.00    +0.000 A 
BRANCH  21  23
ATOM     23  C   UNL     1      45.363   5.174  10.580  0.00  0.00    +0.000 A 
ATOM     24  C   UNL     1      44.591   4.171  11.194  0.00  0.00    +0.000 A 
ATOM     25  C   UNL     1      44.134   3.072  10.470  0.00  0.00    +0.000 A 
ATOM     26  F   UNL     1      43.374   2.157  11.082  0.00  0.00    +0.000 F 
ATOM     27  C   UNL     1      44.424   2.933   9.123  0.00  0.00    +0.000 A 
ATOM     28  C   UNL     1      45.204   3.900   8.513  0.00  0.00    +0.000 A 
ATOM     29  F   UNL     1      45.474   3.796   7.204  0.00  0.00    +0.000 F 
ATOM     30  C   UNL     1      45.685   4.999   9.223  0.00  0.00    +0.000 A 
ENDBRANCH  21  23
ENDBRANCH   1  17
TORSDOF 4
ENDMDL
MODEL 6
REMARK VINA RESULT:    -6.881      4.110      6.291
REMARK INTER + INTRA:          -9.758
REMARK INTER:                  -9.284
REMARK INTRA:                  -0.474
REMARK UNBOUND:                -1.268
REMARK  Name = 
REMARK  4 active torsions:
REMARK  status: ('A' for Active; 'I' for Inactive)
REMARK    1  A    between atoms: C_2  and  C_4
REMARK    2  A    between atoms: N_8  and  C_9
REMARK    3  A    between atoms: C_9  and  C_10
REMARK    4  A    between atoms: C_14  and  C_15
REMARK                            x       y       z     vdW  Elec       q    Type
REMARK                         _______ _______ _______ _____ _____    ______ ____
ROOT
ATOM      1  C   UNL     1      47.505   8.318  13.212  0.00  0.00    +0.000 C 
ATOM      2  C   UNL     1      47.674   9.547  12.333  0.00  0.00    +0.000 C 
ATOM      3  C   UNL     1      48.402   8.291  11.990  0.00  0.00    +0.000 C 
ENDROOT
BRANCH   1   8
ATOM      4  C   UNL     1      44.527   4.466  11.324  0.00  0.00    +0.000 A 
ATOM      5  C   UNL     1      45.509   5.194  10.665  0.00  0.00    +0.000 A 
ATOM      6  C   UNL     1      46.091   6.294  11.304  0.00  0.00    +0.000 A 
ATOM      7  C   UNL     1      45.678   6.646  12.582  0.00  0.00    +0.000 A 
ATOM      8  N   UNL     1      46.125   7.794  13.246  0.00  0.00    +0.000 N 
ATOM      9  N   UNL     1      44.719   5.942  13.228  0.00  0.00    +0.000 NA
ATOM     10  C   UNL     1      44.161   4.882  12.594  0.00  0.00    +0.000 A 
ATOM     11  H   UNL     1      45.712   7.733  14.176  0.00  0.00    +0.000 HD
BRANCH   4  13
ATOM     12  N   UNL     1      44.141   3.016   9.415  0.00  0.00    +0.000 N 
ATOM     13  C   UNL     1      43.836   3.301  10.714  0.00  0.00    +0.000 C 
ATOM     14  O   UNL     1      43.042   2.623  11.351  0.00  0.00    +0.000 OA
ATOM     15  H   UNL     1      43.730   2.178   9.028  0.00  0.00    +0.000 HD
ATOM     16  H   UNL     1      44.954   3.392   8.947  0.00  0.00    +0.000 HD
ENDBRANCH   4  13
ENDBRANCH   1   8
BRANCH   1  17
ATOM     17  C   UNL     1      48.180   8.261  14.576  0.00  0.00    +0.000 A 
ATOM     18  C   UNL     1      48.244   9.367  15.437  0.00  0.00    +0.000 A 
ATOM     19  C   UNL     1      48.702   9.231  16.746  0.00  0.00    +0.000 A 
ATOM     20  C   UNL     1      49.076   7.977  17.232  0.00  0.00    +0.000 A 
ATOM     21  C   UNL     1      49.020   6.837  16.413  0.00  0.00    +0.000 A 
ATOM     22  C   UNL     1      48.626   7.025  15.077  0.00  0.00    +0.000 A 
BRANCH  21  23
ATOM     23  C   UNL     1      49.183   5.467  16.948  0.00  0.00    +0.000 A 
ATOM     24  C   UNL     1      48.075   4.605  17.041  0.00  0.00    +0.000 A 
ATOM     25  C   UNL     1      48.236   3.263  17.378  0.00  0.00    +0.000 A 
ATOM     26  F   UNL     1      47.160   2.467  17.422  0.00  0.00    +0.000 F 
ATOM     27  C   UNL     1      49.490   2.734  17.632  0.00  0.00    +0.000 A 
ATOM     28  C   UNL     1      50.586   3.577  17.569  0.00  0.00    +0.000 A 
ATOM     29  F   UNL     1      51.811   3.079  17.786  0.00  0.00    +0.000 F 
ATOM     30  C   UNL     1      50.445   4.927  17.249  0.00  0.00    +0.000 A 
ENDBRANCH  21  23
ENDBRANCH   1  17
TORSDOF 4
ENDMDL
MODEL 7
REMARK VINA RESULT:    -6.874      4.099      6.154
REMARK INTER + INTRA:          -9.749
REMARK INTER:                  -9.150
REMARK INTRA:                  -0.599
REMARK UNBOUND:                -1.268
REMARK  Name = 
REMARK  4 active torsions:
REMARK  status: ('A' for Active; 'I' for Inactive)
REMARK    1  A    between atoms: C_2  and  C_4
REMARK    2  A    between atoms: N_8  and  C_9
REMARK    3  A    between atoms: C_9  and  C_10
REMARK    4  A    between atoms: C_14  and  C_15
REMARK                            x       y       z     vdW  Elec       q    Type
REMARK                         _______ _______ _______ _____ _____    ______ ____
ROOT
ATOM      1  C   UNL     1      47.259   8.515  13.154  0.00  0.00    +0.000 C 
ATOM      2  C   UNL     1      47.339   9.824  12.383  0.00  0.00    +0.000 C 
ATOM      3  C   UNL     1      48.117   8.642  11.911  0.00  0.00    +0.000 C 
ENDROOT
BRANCH   1   8
ATOM      4  C   UNL     1      44.585   4.333  11.533  0.00  0.00    +0.000 A 
ATOM      5  C   UNL     1      45.559   5.048  10.848  0.00  0.00    +0.000 A 
ATOM      6  C   UNL     1      46.049   6.237  11.398  0.00  0.00    +0.000 A 
ATOM      7  C   UNL     1      45.555   6.689  12.615  0.00  0.00    +0.000 A 
ATOM      8  N   UNL     1      45.908   7.920  13.179  0.00  0.00    +0.000 N 
ATOM      9  N   UNL     1      44.604   5.998  13.285  0.00  0.00    +0.000 NA
ATOM     10  C   UNL     1      44.134   4.852  12.737  0.00  0.00    +0.000 A 
ATOM     11  H   UNL     1      45.452   7.927  14.091  0.00  0.00    +0.000 HD
BRANCH   4  13
ATOM     12  N   UNL     1      44.668   2.436  10.020  0.00  0.00    +0.000 N 
ATOM     13  C   UNL     1      43.986   3.077  11.013  0.00  0.00    +0.000 C 
ATOM     14  O   UNL     1      42.940   2.633  11.464  0.00  0.00    +0.000 OA
ATOM     15  H   UNL     1      44.301   1.542   9.724  0.00  0.00    +0.000 HD
ATOM     16  H   UNL     1      45.635   2.635   9.801  0.00  0.00    +0.000 HD
ENDBRANCH   4  13
ENDBRANCH   1   8
BRANCH   1  17
ATOM     17  C   UNL     1      47.978   8.376  14.490  0.00  0.00    +0.000 A 
ATOM     18  C   UNL     1      48.114   9.441  15.393  0.00  0.00    +0.000 A 
ATOM     19  C   UNL     1      48.612   9.231  16.678  0.00  0.00    +0.000 A 
ATOM     20  C   UNL     1      48.955   7.945  17.097  0.00  0.00    +0.000 A 
ATOM     21  C   UNL     1      48.827   6.845  16.234  0.00  0.00    +0.000 A 
ATOM     22  C   UNL     1      48.394   7.104  14.922  0.00  0.00    +0.000 A 
BRANCH  21  23
ATOM     23  C   UNL     1      48.957   5.448  16.705  0.00  0.00    +0.000 A 
ATOM     24  C   UNL     1      50.188   4.976  17.197  0.00  0.00    +0.000 A 
ATOM     25  C   UNL     1      50.287   3.725  17.801  0.00  0.00    +0.000 A 
ATOM     26  F   UNL     1      51.469   3.326  18.288  0.00  0.00    +0.000 F 
ATOM     27  C   UNL     1      49.178   2.906  17.939  0.00  0.00    +0.000 A 
ATOM     28  C   UNL     1      47.967   3.347  17.436  0.00  0.00    +0.000 A 
ATOM     29  F   UNL     1      46.877   2.580  17.581  0.00  0.00    +0.000 F 
ATOM     30  C   UNL     1      47.849   4.590  16.813  0.00  0.00    +0.000 A 
ENDBRANCH  21  23
ENDBRANCH   1  17
TORSDOF 4
ENDMDL
