MODEL 1
REMARK VINA RESULT:    -8.338      0.000      0.000
REMARK INTER + INTRA:         -11.358
REMARK INTER:                 -10.775
REMARK INTRA:                  -0.582
REMARK UNBOUND:                -0.582
REMARK  Name = 
REMARK  6 active torsions:
REMARK  status: ('A' for Active; 'I' for Inactive)
REMARK    1  A    between atoms: C_1  and  O_2
REMARK    2  A    between atoms: O_2  and  C_3
REMARK    3  A    between atoms: C_5  and  C_6
REMARK    4  A    between atoms: N_11  and  C_12
REMARK    5  A    between atoms: C_12  and  C_13
REMARK    6  A    between atoms: C_17  and  C_18
REMARK                            x       y       z     vdW  Elec       q    Type
REMARK                         _______ _______ _______ _____ _____    ______ ____
ROOT
ATOM      1  C   UNL     1      49.017   2.454  16.612  0.00  0.00    +0.000 A 
ATOM      2  C   UNL     1      48.933   3.285  17.691  0.00  0.00    +0.000 A 
ATOM      3  C   UNL     1      48.044   4.315  17.530  0.00  0.00    +0.000 A 
ATOM      4  N   UNL     1      47.303   4.525  16.413  0.00  0.00    +0.000 NA
ATOM      5  C   UNL     1      47.467   3.647  15.421  0.00  0.00    +0.000 A 
ATOM      6  N   UNL     1      46.770   3.794  14.253  0.00  0.00    +0.000 N 
ATOM      7  N   UNL     1      48.301   2.608  15.483  0.00  0.00    +0.000 NA
ATOM      8  H   UNL     1      46.880   3.064  13.566  0.00  0.00    +0.000 HD
ENDROOT
BRANCH   3   9
ATOM      9  C   UNL     1      47.855   5.299  18.639  0.00  0.00    +0.000 C 
ATOM     10  N   UNL     1      46.555   5.606  18.939  0.00  0.00    +0.000 N 
ATOM     11  O   UNL     1      48.792   5.801  19.245  0.00  0.00    +0.000 OA
ATOM     12  H   UNL     1      45.801   5.178  18.421  0.00  0.00    +0.000 HD
ATOM     13  H   UNL     1      46.359   6.265  19.679  0.00  0.00    +0.000 HD
ENDBRANCH   3   9
BRANCH   1  15
ATOM     14  C   UNL     1      51.142   1.777  17.326  0.00  0.00    +0.000 C 
ATOM     15  O   UNL     1      49.908   1.404  16.714  0.00  0.00    +0.000 OA
ENDBRANCH   1  15
BRANCH   6  16
ATOM     16  C   UNL     1      45.811   4.848  14.106  0.00  0.00    +0.000 C 
BRANCH  16  17
ATOM     17  C   UNL     1      44.937   4.627  12.895  0.00  0.00    +0.000 A 
ATOM     18  C   UNL     1      43.594   5.019  12.907  0.00  0.00    +0.000 A 
ATOM     19  C   UNL     1      42.819   4.893  11.757  0.00  0.00    +0.000 A 
ATOM     20  C   UNL     1      43.377   4.368  10.587  0.00  0.00    +0.000 A 
ATOM     21  C   UNL     1      44.720   3.953  10.535  0.00  0.00    +0.000 A 
ATOM     22  C   UNL     1      45.476   4.072  11.719  0.00  0.00    +0.000 A 
BRANCH  21  23
ATOM     23  C   UNL     1      45.327   3.457   9.280  0.00  0.00    +0.000 A 
ATOM     24  C   UNL     1      45.562   2.096   9.038  0.00  0.00    +0.000 A 
ATOM     25  C   UNL     1      46.167   1.674   7.852  0.00  0.00    +0.000 A 
ATOM     26  C   UNL     1      46.519   2.630   6.917  0.00  0.00    +0.000 A 
ATOM     27  N   UNL     1      46.315   3.949   7.091  0.00  0.00    +0.000 NA
ATOM     28  C   UNL     1      45.735   4.325   8.260  0.00  0.00    +0.000 A 
ENDBRANCH  21  23
ENDBRANCH  16  17
ENDBRANCH   6  16
TORSDOF 5
ENDMDL
MODEL 2
REMARK VINA RESULT:    -7.741      2.997      4.354
REMARK INTER + INTRA:         -10.586
REMARK INTER:                 -10.439
REMARK INTRA:                  -0.147
REMARK UNBOUND:                -0.582
REMARK  Name = 
REMARK  6 active torsions:
REMARK  status: ('A' for Active; 'I' for Inactive)
REMARK    1  A    between atoms: C_1  and  O_2
REMARK    2  A    between atoms: O_2  and  C_3
REMARK    3  A    between atoms: C_5  and  C_6
REMARK    4  A    between atoms: N_11  and  C_12
REMARK    5  A    between atoms: C_12  and  C_13
REMARK    6  A    between atoms: C_17  and  C_18
REMARK                            x       y       z     vdW  Elec       q    Type
REMARK                         _______ _______ _______ _____ _____    ______ ____
ROOT
ATOM      1  C   UNL     1      47.946   7.415  12.262  0.00  0.00    +0.000 A 
ATOM      2  C   UNL     1      48.063   6.497  13.265  0.00  0.00    +0.000 A 
ATOM      3  C   UNL     1      46.940   5.735  13.453  0.00  0.00    +0.000 A 
ATOM      4  N   UNL     1      45.797   5.859  12.734  0.00  0.00    +0.000 NA
ATOM      5  C   UNL     1      45.797   6.789  11.777  0.00  0.00    +0.000 A 
ATOM      6  N   UNL     1      44.680   6.990  11.014  0.00  0.00    +0.000 N 
ATOM      7  N   UNL     1      46.841   7.575  11.510  0.00  0.00    +0.000 NA
ATOM      8  H   UNL     1      44.760   7.656  10.261  0.00  0.00    +0.000 HD
ENDROOT
BRANCH   3   9
ATOM      9  C   UNL     1      46.935   4.690  14.521  0.00  0.00    +0.000 C 
ATOM     10  N   UNL     1      47.263   5.128  15.776  0.00  0.00    +0.000 N 
ATOM     11  O   UNL     1      46.658   3.519  14.299  0.00  0.00    +0.000 OA
ATOM     12  H   UNL     1      47.489   6.101  15.930  0.00  0.00    +0.000 HD
ATOM     13  H   UNL     1      47.278   4.471  16.543  0.00  0.00    +0.000 HD
ENDBRANCH   3   9
BRANCH   1  15
ATOM     14  C   UNL     1      50.199   7.807  12.766  0.00  0.00    +0.000 C 
ATOM     15  O   UNL     1      49.046   8.220  12.035  0.00  0.00    +0.000 OA
ENDBRANCH   1  15
BRANCH   6  16
ATOM     16  C   UNL     1      43.523   6.162  11.187  0.00  0.00    +0.000 C 
BRANCH  16  17
ATOM     17  C   UNL     1      43.833   4.719  10.870  0.00  0.00    +0.000 A 
ATOM     18  C   UNL     1      43.219   3.687  11.587  0.00  0.00    +0.000 A 
ATOM     19  C   UNL     1      43.442   2.359  11.231  0.00  0.00    +0.000 A 
ATOM     20  C   UNL     1      44.284   2.051  10.159  0.00  0.00    +0.000 A 
ATOM     21  C   UNL     1      44.929   3.058   9.418  0.00  0.00    +0.000 A 
ATOM     22  C   UNL     1      44.703   4.391   9.812  0.00  0.00    +0.000 A 
BRANCH  21  23
ATOM     23  C   UNL     1      45.769   2.734   8.243  0.00  0.00    +0.000 A 
ATOM     24  C   UNL     1      46.027   3.656   7.219  0.00  0.00    +0.000 A 
ATOM     25  C   UNL     1      46.799   3.298   6.112  0.00  0.00    +0.000 A 
ATOM     26  C   UNL     1      47.313   2.016   6.054  0.00  0.00    +0.000 A 
ATOM     27  N   UNL     1      47.103   1.089   7.009  0.00  0.00    +0.000 NA
ATOM     28  C   UNL     1      46.339   1.467   8.064  0.00  0.00    +0.000 A 
ENDBRANCH  21  23
ENDBRANCH  16  17
ENDBRANCH   6  16
TORSDOF 5
ENDMDL
MODEL 3
REMARK VINA RESULT:    -7.611      3.700      7.951
REMARK INTER + INTRA:         -10.417
REMARK INTER:                  -9.563
REMARK INTRA:                  -0.854
REMARK UNBOUND:                -0.582
REMARK  Name = 
REMARK  6 active torsions:
REMARK  status: ('A' for Active; 'I' for Inactive)
REMARK    1  A    between atoms: C_1  and  O_2
REMARK    2  A    between atoms: O_2  and  C_3
REMARK    3  A    between atoms: C_5  and  C_6
REMARK    4  A    between atoms: N_11  and  C_12
REMARK    5  A    between atoms: C_12  and  C_13
REMARK    6  A    between atoms: C_17  and  C_18
REMARK                            x       y       z     vdW  Elec       q    Type
REMARK                         _______ _______ _______ _____ _____    ______ ____
ROOT
ATOM      1  C   UNL     1      45.200   3.546   8.504  0.00  0.00    +0.000 A 
ATOM      2  C   UNL     1      44.498   2.798   9.404  0.00  0.00    +0.000 A 
ATOM      3  C   UNL     1      44.308   3.417  10.611  0.00  0.00    +0.000 A 
ATOM      4  N   UNL     1      44.766   4.656  10.921  0.00  0.00    +0.000 NA
ATOM      5  C   UNL     1      45.438   5.296   9.962  0.00  0.00    +0.000 A 
ATOM      6  N   UNL     1      45.947   6.544  10.196  0.00  0.00    +0.000 N 
ATOM      7  N   UNL     1      45.669   4.783   8.753  0.00  0.00    +0.000 NA
ATOM      8  H   UNL     1      46.384   7.008   9.415  0.00  0.00    +0.000 HD
ENDROOT
BRANCH   3   9
ATOM      9  C   UNL     1      43.553   2.706  11.687  0.00  0.00    +0.000 C 
ATOM     10  N   UNL     1      43.765   3.167  12.959  0.00  0.00    +0.000 N 
ATOM     11  O   UNL     1      42.794   1.773  11.457  0.00  0.00    +0.000 OA
ATOM     12  H   UNL     1      44.399   3.937  13.119  0.00  0.00    +0.000 HD
ATOM     13  H   UNL     1      43.285   2.728  13.731  0.00  0.00    +0.000 HD
ENDBRANCH   3   9
BRANCH   1  15
ATOM     14  C   UNL     1      46.770   3.153   6.812  0.00  0.00    +0.000 C 
ATOM     15  O   UNL     1      45.433   2.966   7.272  0.00  0.00    +0.000 OA
ENDBRANCH   1  15
BRANCH   6  16
ATOM     16  C   UNL     1      45.708   7.203  11.446  0.00  0.00    +0.000 C 
BRANCH  16  17
ATOM     17  C   UNL     1      46.924   7.138  12.339  0.00  0.00    +0.000 A 
ATOM     18  C   UNL     1      48.015   7.985  12.115  0.00  0.00    +0.000 A 
ATOM     19  C   UNL     1      49.095   7.981  12.995  0.00  0.00    +0.000 A 
ATOM     20  C   UNL     1      49.095   7.127  14.102  0.00  0.00    +0.000 A 
ATOM     21  C   UNL     1      48.024   6.253  14.357  0.00  0.00    +0.000 A 
ATOM     22  C   UNL     1      46.954   6.262  13.440  0.00  0.00    +0.000 A 
BRANCH  21  23
ATOM     23  C   UNL     1      47.998   5.395  15.563  0.00  0.00    +0.000 A 
ATOM     24  C   UNL     1      48.820   5.627  16.675  0.00  0.00    +0.000 A 
ATOM     25  C   UNL     1      48.786   4.774  17.780  0.00  0.00    +0.000 A 
ATOM     26  C   UNL     1      47.915   3.701  17.757  0.00  0.00    +0.000 A 
ATOM     27  N   UNL     1      47.100   3.430  16.720  0.00  0.00    +0.000 NA
ATOM     28  C   UNL     1      47.167   4.273  15.658  0.00  0.00    +0.000 A 
ENDBRANCH  21  23
ENDBRANCH  16  17
ENDBRANCH   6  16
TORSDOF 5
ENDMDL
MODEL 4
REMARK VINA RESULT:    -7.541      2.262      3.885
REMARK INTER + INTRA:         -10.327
REMARK INTER:                  -9.654
REMARK INTRA:                  -0.673
REMARK UNBOUND:                -0.582
REMARK  Name = 
REMARK  6 active torsions:
REMARK  status: ('A' for Active; 'I' for Inactive)
REMARK    1  A    between atoms: C_1  and  O_2
REMARK    2  A    between atoms: O_2  and  C_3
REMARK    3  A    between atoms: C_5  and  C_6
REMARK    4  A    between atoms: N_11  and  C_12
REMARK    5  A    between atoms: C_12  and  C_13
REMARK    6  A    between atoms: C_17  and  C_18
REMARK                            x       y       z     vdW  Elec       q    Type
REMARK                         _______ _______ _______ _____ _____    ______ ____
ROOT
ATOM      1  C   UNL     1      48.363   5.109  19.036  0.00  0.00    +0.000 A 
ATOM      2  C   UNL     1      48.887   3.880  18.758  0.00  0.00    +0.000 A 
ATOM      3  C   UNL     1      49.203   3.697  17.438  0.00  0.00    +0.000 A 
ATOM      4  N   UNL     1      49.021   4.627  16.467  0.00  0.00    +0.000 NA
ATOM      5  C   UNL     1      48.503   5.794  16.855  0.00  0.00    +0.000 A 
ATOM      6  N   UNL     1      48.272   6.782  15.937  0.00  0.00    +0.000 N 
ATOM      7  N   UNL     1      48.169   6.072  18.116  0.00  0.00    +0.000 NA
ATOM      8  H   UNL     1      47.946   7.666  16.296  0.00  0.00    +0.000 HD
ENDROOT
BRANCH   3   9
ATOM      9  C   UNL     1      49.787   2.394  16.999  0.00  0.00    +0.000 C 
ATOM     10  N   UNL     1      50.844   1.941  17.741  0.00  0.00    +0.000 N 
ATOM     11  O   UNL     1      49.355   1.765  16.041  0.00  0.00    +0.000 OA
ATOM     12  H   UNL     1      51.181   2.482  18.525  0.00  0.00    +0.000 HD
ATOM     13  H   UNL     1      51.284   1.066  17.496  0.00  0.00    +0.000 HD
ENDBRANCH   3   9
BRANCH   1  15
ATOM     14  C   UNL     1      47.597   6.689  20.585  0.00  0.00    +0.000 C 
ATOM     15  O   UNL     1      48.013   5.345  20.351  0.00  0.00    +0.000 OA
ENDBRANCH   1  15
BRANCH   6  16
ATOM     16  C   UNL     1      48.644   6.601  14.565  0.00  0.00    +0.000 C 
BRANCH  16  17
ATOM     17  C   UNL     1      47.490   6.906  13.641  0.00  0.00    +0.000 A 
ATOM     18  C   UNL     1      46.980   8.205  13.549  0.00  0.00    +0.000 A 
ATOM     19  C   UNL     1      45.974   8.498  12.631  0.00  0.00    +0.000 A 
ATOM     20  C   UNL     1      45.467   7.494  11.801  0.00  0.00    +0.000 A 
ATOM     21  C   UNL     1      45.945   6.173  11.868  0.00  0.00    +0.000 A 
ATOM     22  C   UNL     1      46.947   5.900  12.821  0.00  0.00    +0.000 A 
BRANCH  21  23
ATOM     23  C   UNL     1      45.452   5.125  10.946  0.00  0.00    +0.000 A 
ATOM     24  C   UNL     1      45.602   5.210   9.555  0.00  0.00    +0.000 A 
ATOM     25  C   UNL     1      45.094   4.214   8.718  0.00  0.00    +0.000 A 
ATOM     26  C   UNL     1      44.447   3.137   9.295  0.00  0.00    +0.000 A 
ATOM     27  N   UNL     1      44.277   2.999  10.624  0.00  0.00    +0.000 NA
ATOM     28  C   UNL     1      44.773   3.991  11.406  0.00  0.00    +0.000 A 
ENDBRANCH  21  23
ENDBRANCH  16  17
ENDBRANCH   6  16
TORSDOF 5
ENDMDL
MODEL 5
REMARK VINA RESULT:    -7.270      4.752      5.898
REMARK INTER + INTRA:          -9.978
REMARK INTER:                  -9.229
REMARK INTRA:                  -0.749
REMARK UNBOUND:                -0.582
REMARK  Name = 
REMARK  6 active torsions:
REMARK  status: ('A' for Active; 'I' for Inactive)
REMARK    1  A    between atoms: C_1  and  O_2
REMARK    2  A    between atoms: O_2  and  C_3
REMARK    3  A    between atoms: C_5  and  C_6
REMARK    4  A    between atoms: N_11  and  C_12
REMARK    5  A    between atoms: C_12  and  C_13
REMARK    6  A    between atoms: C_17  and  C_18
REMARK                            x       y       z     vdW  Elec       q    Type
REMARK                         _______ _______ _______ _____ _____    ______ ____
ROOT
ATOM      1  C   UNL     1      47.513   9.471  12.233  0.00  0.00    +0.000 A 
ATOM      2  C   UNL     1      46.583  10.376  11.807  0.00  0.00    +0.000 A 
ATOM      3  C   UNL     1      45.309   9.877  11.750  0.00  0.00    +0.000 A 
ATOM      4  N   UNL     1      44.965   8.605  12.074  0.00  0.00    +0.000 NA
ATOM      5  C   UNL     1      45.956   7.809  12.479  0.00  0.00    +0.000 A 
ATOM      6  N   UNL     1      45.700   6.507  12.810  0.00  0.00    +0.000 N 
ATOM      7  N   UNL     1      47.227   8.201  12.576  0.00  0.00    +0.000 NA
ATOM      8  H   UNL     1      46.472   5.973  13.177  0.00  0.00    +0.000 HD
ENDROOT
BRANCH   3   9
ATOM      9  C   UNL     1      44.195  10.765  11.300  0.00  0.00    +0.000 C 
ATOM     10  N   UNL     1      43.102  10.804  12.124  0.00  0.00    +0.000 N 
ATOM     11  O   UNL     1      44.247  11.419  10.266  0.00  0.00    +0.000 OA
ATOM     12  H   UNL     1      43.086  10.252  12.970  0.00  0.00    +0.000 HD
ATOM     13  H   UNL     1      42.314  11.385  11.875  0.00  0.00    +0.000 HD
ENDBRANCH   3   9
BRANCH   1  15
ATOM     14  C   UNL     1      49.756   8.966  11.795  0.00  0.00    +0.000 C 
ATOM     15  O   UNL     1      48.819   9.916  12.297  0.00  0.00    +0.000 OA
ENDBRANCH   1  15
BRANCH   6  16
ATOM     16  C   UNL     1      44.358   6.003  12.790  0.00  0.00    +0.000 C 
BRANCH  16  17
ATOM     17  C   UNL     1      44.282   4.679  12.068  0.00  0.00    +0.000 A 
ATOM     18  C   UNL     1      43.449   3.660  12.540  0.00  0.00    +0.000 A 
ATOM     19  C   UNL     1      43.317   2.475  11.821  0.00  0.00    +0.000 A 
ATOM     20  C   UNL     1      44.022   2.297  10.626  0.00  0.00    +0.000 A 
ATOM     21  C   UNL     1      44.878   3.291  10.122  0.00  0.00    +0.000 A 
ATOM     22  C   UNL     1      45.009   4.472  10.881  0.00  0.00    +0.000 A 
BRANCH  21  23
ATOM     23  C   UNL     1      45.574   3.127   8.826  0.00  0.00    +0.000 A 
ATOM     24  C   UNL     1      46.051   1.888   8.375  0.00  0.00    +0.000 A 
ATOM     25  C   UNL     1      46.731   1.783   7.160  0.00  0.00    +0.000 A 
ATOM     26  C   UNL     1      46.915   2.928   6.407  0.00  0.00    +0.000 A 
ATOM     27  N   UNL     1      46.477   4.143   6.787  0.00  0.00    +0.000 NA
ATOM     28  C   UNL     1      45.830   4.211   7.978  0.00  0.00    +0.000 A 
ENDBRANCH  21  23
ENDBRANCH  16  17
ENDBRANCH   6  16
TORSDOF 5
ENDMDL
MODEL 6
REMARK VINA RESULT:    -6.927      3.113      3.955
REMARK INTER + INTRA:          -9.534
REMARK INTER:                  -8.789
REMARK INTRA:                  -0.745
REMARK UNBOUND:                -0.582
REMARK  Name = 
REMARK  6 active torsions:
REMARK  status: ('A' for Active; 'I' for Inactive)
REMARK    1  A    between atoms: C_1  and  O_2
REMARK    2  A    between atoms: O_2  and  C_3
REMARK    3  A    between atoms: C_5  and  C_6
REMARK    4  A    between atoms: N_11  and  C_12
REMARK    5  A    between atoms: C_12  and  C_13
REMARK    6  A    between atoms: C_17  and  C_18
REMARK                            x       y       z     vdW  Elec       q    Type
REMARK                         _______ _______ _______ _____ _____    ______ ____
ROOT
ATOM      1  C   UNL     1      48.893   6.277  15.128  0.00  0.00    +0.000 A 
ATOM      2  C   UNL     1      49.562   7.003  14.185  0.00  0.00    +0.000 A 
ATOM      3  C   UNL     1      48.842   7.222  13.041  0.00  0.00    +0.000 A 
ATOM      4  N   UNL     1      47.582   6.769  12.825  0.00  0.00    +0.000 NA
ATOM      5  C   UNL     1      47.026   6.072  13.818  0.00  0.00    +0.000 A 
ATOM      6  N   UNL     1      45.763   5.565  13.678  0.00  0.00    +0.000 N 
ATOM      7  N   UNL     1      47.640   5.811  14.973  0.00  0.00    +0.000 NA
ATOM      8  H   UNL     1      45.367   5.108  14.484  0.00  0.00    +0.000 HD
ENDROOT
BRANCH   3   9
ATOM      9  C   UNL     1      49.459   8.006  11.927  0.00  0.00    +0.000 C 
ATOM     10  N   UNL     1      50.617   7.487  11.413  0.00  0.00    +0.000 N 
ATOM     11  O   UNL     1      48.969   9.042  11.498  0.00  0.00    +0.000 OA
ATOM     12  H   UNL     1      50.999   6.631  11.789  0.00  0.00    +0.000 HD
ATOM     13  H   UNL     1      51.083   7.969  10.658  0.00  0.00    +0.000 HD
ENDBRANCH   3   9
BRANCH   1  15
ATOM     14  C   UNL     1      50.851   6.650  16.355  0.00  0.00    +0.000 C 
ATOM     15  O   UNL     1      49.576   6.015  16.300  0.00  0.00    +0.000 OA
ENDBRANCH   1  15
BRANCH   6  16
ATOM     16  C   UNL     1      44.999   5.834  12.495  0.00  0.00    +0.000 C 
BRANCH  16  17
ATOM     17  C   UNL     1      44.695   4.562  11.741  0.00  0.00    +0.000 A 
ATOM     18  C   UNL     1      43.675   3.707  12.172  0.00  0.00    +0.000 A 
ATOM     19  C   UNL     1      43.342   2.582  11.422  0.00  0.00    +0.000 A 
ATOM     20  C   UNL     1      44.029   2.298  10.239  0.00  0.00    +0.000 A 
ATOM     21  C   UNL     1      45.068   3.125   9.775  0.00  0.00    +0.000 A 
ATOM     22  C   UNL     1      45.399   4.245  10.563  0.00  0.00    +0.000 A 
BRANCH  21  23
ATOM     23  C   UNL     1      45.752   2.858   8.490  0.00  0.00    +0.000 A 
ATOM     24  C   UNL     1      46.291   1.605   8.164  0.00  0.00    +0.000 A 
ATOM     25  C   UNL     1      46.956   1.406   6.953  0.00  0.00    +0.000 A 
ATOM     26  C   UNL     1      47.063   2.470   6.078  0.00  0.00    +0.000 A 
ATOM     27  N   UNL     1      46.563   3.694   6.333  0.00  0.00    +0.000 NA
ATOM     28  C   UNL     1      45.932   3.855   7.524  0.00  0.00    +0.000 A 
ENDBRANCH  21  23
ENDBRANCH  16  17
ENDBRANCH   6  16
TORSDOF 5
ENDMDL
MODEL 7
REMARK VINA RESULT:    -6.883      3.621      8.683
REMARK INTER + INTRA:          -9.478
REMARK INTER:                  -8.905
REMARK INTRA:                  -0.572
REMARK UNBOUND:                -0.582
REMARK  Name = 
REMARK  6 active torsions:
REMARK  status: ('A' for Active; 'I' for Inactive)
REMARK    1  A    between atoms: C_1  and  O_2
REMARK    2  A    between atoms: O_2  and  C_3
REMARK    3  A    between atoms: C_5  and  C_6
REMARK    4  A    between atoms: N_11  and  C_12
REMARK    5  A    between atoms: C_12  and  C_13
REMARK    6  A    between atoms: C_17  and  C_18
REMARK                            x       y       z     vdW  Elec       q    Type
REMARK                         _______ _______ _______ _____ _____    ______ ____
ROOT
ATOM      1  C   UNL     1      45.248   6.586  11.935  0.00  0.00    +0.000 A 
ATOM      2  C   UNL     1      44.548   5.559  11.370  0.00  0.00    +0.000 A 
ATOM      3  C   UNL     1      44.673   4.369  12.036  0.00  0.00    +0.000 A 
ATOM      4  N   UNL     1      45.420   4.187  13.154  0.00  0.00    +0.000 NA
ATOM      5  C   UNL     1      46.060   5.262  13.619  0.00  0.00    +0.000 A 
ATOM      6  N   UNL     1      46.848   5.164  14.733  0.00  0.00    +0.000 N 
ATOM      7  N   UNL     1      45.996   6.466  13.047  0.00  0.00    +0.000 NA
ATOM      8  H   UNL     1      47.250   6.021  15.079  0.00  0.00    +0.000 HD
ENDROOT
BRANCH   3   9
ATOM      9  C   UNL     1      43.956   3.163  11.521  0.00  0.00    +0.000 C 
ATOM     10  N   UNL     1      43.640   2.219  12.462  0.00  0.00    +0.000 N 
ATOM     11  O   UNL     1      43.666   3.019  10.341  0.00  0.00    +0.000 OA
ATOM     12  H   UNL     1      43.894   2.363  13.429  0.00  0.00    +0.000 HD
ATOM     13  H   UNL     1      43.155   1.380  12.178  0.00  0.00    +0.000 HD
ENDBRANCH   3   9
BRANCH   1  15
ATOM     14  C   UNL     1      45.240   8.912  12.197  0.00  0.00    +0.000 C 
ATOM     15  O   UNL     1      45.168   7.808  11.297  0.00  0.00    +0.000 OA
ENDBRANCH   1  15
BRANCH   6  16
ATOM     16  C   UNL     1      46.941   3.927  15.450  0.00  0.00    +0.000 C 
BRANCH  16  17
ATOM     17  C   UNL     1      47.829   4.065  16.664  0.00  0.00    +0.000 A 
ATOM     18  C   UNL     1      47.361   4.706  17.816  0.00  0.00    +0.000 A 
ATOM     19  C   UNL     1      48.152   4.752  18.961  0.00  0.00    +0.000 A 
ATOM     20  C   UNL     1      49.420   4.163  18.962  0.00  0.00    +0.000 A 
ATOM     21  C   UNL     1      49.932   3.518  17.822  0.00  0.00    +0.000 A 
ATOM     22  C   UNL     1      49.120   3.504  16.671  0.00  0.00    +0.000 A 
BRANCH  21  23
ATOM     23  C   UNL     1      51.248   2.840  17.845  0.00  0.00    +0.000 A 
ATOM     24  C   UNL     1      51.427   1.520  17.407  0.00  0.00    +0.000 A 
ATOM     25  C   UNL     1      52.679   0.907  17.476  0.00  0.00    +0.000 A 
ATOM     26  C   UNL     1      53.742   1.636  17.977  0.00  0.00    +0.000 A 
ATOM     27  N   UNL     1      53.632   2.907  18.408  0.00  0.00    +0.000 NA
ATOM     28  C   UNL     1      52.398   3.467  18.337  0.00  0.00    +0.000 A 
ENDBRANCH  21  23
ENDBRANCH  16  17
ENDBRANCH   6  16
TORSDOF 5
ENDMDL
MODEL 8
REMARK VINA RESULT:    -6.779      3.214      4.897
REMARK INTER + INTRA:          -9.342
REMARK INTER:                  -8.661
REMARK INTRA:                  -0.681
REMARK UNBOUND:                -0.582
REMARK  Name = 
REMARK  6 active torsions:
REMARK  status: ('A' for Active; 'I' for Inactive)
REMARK    1  A    between atoms: C_1  and  O_2
REMARK    2  A    between atoms: O_2  and  C_3
REMARK    3  A    between atoms: C_5  and  C_6
REMARK    4  A    between atoms: N_11  and  C_12
REMARK    5  A    between atoms: C_12  and  C_13
REMARK    6  A    between atoms: C_17  and  C_18
REMARK                            x       y       z     vdW  Elec       q    Type
REMARK                         _______ _______ _______ _____ _____    ______ ____
ROOT
ATOM      1  C   UNL     1      48.620   4.962  18.672  0.00  0.00    +0.000 A 
ATOM      2  C   UNL     1      49.635   4.052  18.613  0.00  0.00    +0.000 A 
ATOM      3  C   UNL     1      49.630   3.287  17.477  0.00  0.00    +0.000 A 
ATOM      4  N   UNL     1      48.712   3.392  16.483  0.00  0.00    +0.000 NA
ATOM      5  C   UNL     1      47.765   4.318  16.647  0.00  0.00    +0.000 A 
ATOM      6  N   UNL     1      46.792   4.481  15.700  0.00  0.00    +0.000 N 
ATOM      7  N   UNL     1      47.688   5.116  17.713  0.00  0.00    +0.000 NA
ATOM      8  H   UNL     1      46.145   5.240  15.842  0.00  0.00    +0.000 HD
ENDROOT
BRANCH   3   9
ATOM      9  C   UNL     1      50.690   2.251  17.286  0.00  0.00    +0.000 C 
ATOM     10  N   UNL     1      51.739   2.314  18.164  0.00  0.00    +0.000 N 
ATOM     11  O   UNL     1      50.633   1.400  16.409  0.00  0.00    +0.000 OA
ATOM     12  H   UNL     1      51.761   3.029  18.877  0.00  0.00    +0.000 HD
ATOM     13  H   UNL     1      52.489   1.642  18.088  0.00  0.00    +0.000 HD
ENDBRANCH   3   9
BRANCH   1  15
ATOM     14  C   UNL     1      48.461   4.995  21.008  0.00  0.00    +0.000 C 
ATOM     15  O   UNL     1      48.568   5.752  19.804  0.00  0.00    +0.000 OA
ENDBRANCH   1  15
BRANCH   6  16
ATOM     16  C   UNL     1      46.816   3.708  14.493  0.00  0.00    +0.000 C 
BRANCH  16  17
ATOM     17  C   UNL     1      46.495   4.562  13.291  0.00  0.00    +0.000 A 
ATOM     18  C   UNL     1      45.514   4.162  12.377  0.00  0.00    +0.000 A 
ATOM     19  C   UNL     1      45.161   4.996  11.320  0.00  0.00    +0.000 A 
ATOM     20  C   UNL     1      45.789   6.235  11.163  0.00  0.00    +0.000 A 
ATOM     21  C   UNL     1      46.788   6.671  12.052  0.00  0.00    +0.000 A 
ATOM     22  C   UNL     1      47.140   5.799  13.101  0.00  0.00    +0.000 A 
BRANCH  21  23
ATOM     23  C   UNL     1      47.407   8.009  11.922  0.00  0.00    +0.000 A 
ATOM     24  C   UNL     1      48.762   8.190  11.609  0.00  0.00    +0.000 A 
ATOM     25  C   UNL     1      49.313   9.470  11.528  0.00  0.00    +0.000 A 
ATOM     26  C   UNL     1      48.489  10.557  11.753  0.00  0.00    +0.000 A 
ATOM     27  N   UNL     1      47.180  10.447  12.052  0.00  0.00    +0.000 NA
ATOM     28  C   UNL     1      46.681   9.187  12.134  0.00  0.00    +0.000 A 
ENDBRANCH  21  23
ENDBRANCH  16  17
ENDBRANCH   6  16
TORSDOF 5
ENDMDL
MODEL 9
REMARK VINA RESULT:    -6.739      3.530      9.069
REMARK INTER + INTRA:          -9.292
REMARK INTER:                  -8.635
REMARK INTRA:                  -0.657
REMARK UNBOUND:                -0.582
REMARK  Name = 
REMARK  6 active torsions:
REMARK  status: ('A' for Active; 'I' for Inactive)
REMARK    1  A    between atoms: C_1  and  O_2
REMARK    2  A    between atoms: O_2  and  C_3
REMARK    3  A    between atoms: C_5  and  C_6
REMARK    4  A    between atoms: N_11  and  C_12
REMARK    5  A    between atoms: C_12  and  C_13
REMARK    6  A    between atoms: C_17  and  C_18
REMARK                            x       y       z     vdW  Elec       q    Type
REMARK                         _______ _______ _______ _____ _____    ______ ____
ROOT
ATOM      1  C   UNL     1      44.901   6.697  11.855  0.00  0.00    +0.000 A 
ATOM      2  C   UNL     1      44.339   5.674  11.147  0.00  0.00    +0.000 A 
ATOM      3  C   UNL     1      44.672   4.429  11.612  0.00  0.00    +0.000 A 
ATOM      4  N   UNL     1      45.486   4.196  12.671  0.00  0.00    +0.000 NA
ATOM      5  C   UNL     1      45.977   5.272  13.289  0.00  0.00    +0.000 A 
ATOM      6  N   UNL     1      46.818   5.127  14.358  0.00  0.00    +0.000 N 
ATOM      7  N   UNL     1      45.707   6.525  12.919  0.00  0.00    +0.000 NA
ATOM      8  H   UNL     1      47.101   5.972  14.829  0.00  0.00    +0.000 HD
ENDROOT
BRANCH   3   9
ATOM      9  C   UNL     1      44.123   3.221  10.925  0.00  0.00    +0.000 C 
ATOM     10  N   UNL     1      43.459   2.336  11.731  0.00  0.00    +0.000 N 
ATOM     11  O   UNL     1      44.253   3.027   9.724  0.00  0.00    +0.000 OA
ATOM     12  H   UNL     1      43.369   2.521  12.720  0.00  0.00    +0.000 HD
ATOM     13  H   UNL     1      43.064   1.498  11.328  0.00  0.00    +0.000 HD
ENDBRANCH   3   9
BRANCH   1  15
ATOM     14  C   UNL     1      45.243   8.987  12.204  0.00  0.00    +0.000 C 
ATOM     15  O   UNL     1      44.609   7.976  11.422  0.00  0.00    +0.000 OA
ENDBRANCH   1  15
BRANCH   6  16
ATOM     16  C   UNL     1      47.128   3.823  14.866  0.00  0.00    +0.000 C 
BRANCH  16  17
ATOM     17  C   UNL     1      47.614   3.895  16.294  0.00  0.00    +0.000 A 
ATOM     18  C   UNL     1      48.294   2.816  16.868  0.00  0.00    +0.000 A 
ATOM     19  C   UNL     1      48.816   2.922  18.154  0.00  0.00    +0.000 A 
ATOM     20  C   UNL     1      48.658   4.106  18.881  0.00  0.00    +0.000 A 
ATOM     21  C   UNL     1      47.972   5.211  18.346  0.00  0.00    +0.000 A 
ATOM     22  C   UNL     1      47.436   5.069  17.050  0.00  0.00    +0.000 A 
BRANCH  21  23
ATOM     23  C   UNL     1      47.861   6.485  19.090  0.00  0.00    +0.000 A 
ATOM     24  C   UNL     1      47.510   6.541  20.447  0.00  0.00    +0.000 A 
ATOM     25  C   UNL     1      47.385   7.767  21.103  0.00  0.00    +0.000 A 
ATOM     26  C   UNL     1      47.624   8.925  20.387  0.00  0.00    +0.000 A 
ATOM     27  N   UNL     1      47.968   8.934  19.085  0.00  0.00    +0.000 NA
ATOM     28  C   UNL     1      48.070   7.725  18.476  0.00  0.00    +0.000 A 
ENDBRANCH  21  23
ENDBRANCH  16  17
ENDBRANCH   6  16
TORSDOF 5
ENDMDL
