MODEL 1
REMARK VINA RESULT:    -7.753      0.000      0.000
REMARK INTER + INTRA:         -10.302
REMARK INTER:                  -9.793
REMARK INTRA:                  -0.509
REMARK UNBOUND:                -0.509
REMARK  Name = 
REMARK  5 active torsions:
REMARK  status: ('A' for Active; 'I' for Inactive)
REMARK    1  A    between atoms: N_1  and  C_2
REMARK    2  A    between atoms: C_2  and  C_3
REMARK    3  A    between atoms: C_3  and  C_4
REMARK    4  A    between atoms: C_7  and  C_8
REMARK    5  A    between atoms: C_8  and  N_9
REMARK                            x       y       z     vdW  Elec       q    Type
REMARK                         _______ _______ _______ _____ _____    ______ ____
ROOT
ATOM      1  C   UNL     1      45.870   2.938   7.890  0.00  0.00    +0.000 A 
ATOM      2  C   UNL     1      45.236   2.221   8.912  0.00  0.00    +0.000 A 
ATOM      3  C   UNL     1      44.775   2.874  10.059  0.00  0.00    +0.000 A 
ATOM      4  C   UNL     1      44.933   4.260  10.205  0.00  0.00    +0.000 A 
ATOM      5  C   UNL     1      45.552   4.976   9.172  0.00  0.00    +0.000 A 
ATOM      6  C   UNL     1      46.008   4.324   8.024  0.00  0.00    +0.000 A 
ENDROOT
BRANCH   1   7
ATOM      7  C   UNL     1      46.405   2.229   6.668  0.00  0.00    +0.000 C 
BRANCH   7   8
ATOM      8  C   UNL     1      47.869   1.807   6.827  0.00  0.00    +0.000 C 
BRANCH   8   9
ATOM      9  N   UNL     1      48.562   1.817   5.538  0.00  0.00    +0.000 NA
ATOM     10  H   UNL     1      49.252   1.067   5.520  0.00  0.00    +0.000 HD
ATOM     11  H   UNL     1      49.084   2.686   5.433  0.00  0.00    +0.000 HD
ENDBRANCH   8   9
ENDBRANCH   7   8
ENDBRANCH   1   7
BRANCH   4  12
ATOM     12  C   UNL     1      44.439   4.975  11.438  0.00  0.00    +0.000 C 
BRANCH  12  13
ATOM     13  N   UNL     1      45.444   5.078  12.489  0.00  0.00    +0.000 N 
ATOM     14  N   UNL     1      45.506   4.109  13.442  0.00  0.00    +0.000 NA
ATOM     15  C   UNL     1      46.652   4.372  14.079  0.00  0.00    +0.000 A 
ATOM     16  C   UNL     1      47.331   5.478  13.542  0.00  0.00    +0.000 A 
ATOM     17  N   UNL     1      48.525   6.033  13.863  0.00  0.00    +0.000 NA
ATOM     18  C   UNL     1      48.875   7.090  13.097  0.00  0.00    +0.000 A 
ATOM     19  C   UNL     1      48.113   7.629  12.069  0.00  0.00    +0.000 A 
ATOM     20  C   UNL     1      46.883   7.054  11.752  0.00  0.00    +0.000 A 
ATOM     21  C   UNL     1      46.515   5.944  12.519  0.00  0.00    +0.000 A 
ENDBRANCH  12  13
ENDBRANCH   4  12
TORSDOF 5
ENDMDL
MODEL 2
REMARK VINA RESULT:    -7.047      1.345      2.013
REMARK INTER + INTRA:          -9.410
REMARK INTER:                  -8.911
REMARK INTRA:                  -0.499
REMARK UNBOUND:                -0.509
REMARK  Name = 
REMARK  5 active torsions:
REMARK  status: ('A' for Active; 'I' for Inactive)
REMARK    1  A    between atoms: N_1  and  C_2
REMARK    2  A    between atoms: C_2  and  C_3
REMARK    3  A    between atoms: C_3  and  C_4
REMARK    4  A    between atoms: C_7  and  C_8
REMARK    5  A    between atoms: C_8  and  N_9
REMARK                            x       y       z     vdW  Elec       q    Type
REMARK                         _______ _______ _______ _____ _____    ______ ____
ROOT
ATOM      1  C   UNL     1      45.950   2.552   8.149  0.00  0.00    +0.000 A 
ATOM      2  C   UNL     1      45.111   2.018   9.135  0.00  0.00    +0.000 A 
ATOM      3  C   UNL     1      44.428   2.858  10.019  0.00  0.00    +0.000 A 
ATOM      4  C   UNL     1      44.565   4.251   9.932  0.00  0.00    +0.000 A 
ATOM      5  C   UNL     1      45.391   4.782   8.932  0.00  0.00    +0.000 A 
ATOM      6  C   UNL     1      46.069   3.942   8.045  0.00  0.00    +0.000 A 
ENDROOT
BRANCH   1   7
ATOM      7  C   UNL     1      46.720   1.644   7.218  0.00  0.00    +0.000 C 
BRANCH   7   8
ATOM      8  C   UNL     1      47.271   2.386   5.995  0.00  0.00    +0.000 C 
BRANCH   8   9
ATOM      9  N   UNL     1      48.565   1.839   5.588  0.00  0.00    +0.000 NA
ATOM     10  H   UNL     1      48.569   1.700   4.577  0.00  0.00    +0.000 HD
ATOM     11  H   UNL     1      48.697   0.917   6.002  0.00  0.00    +0.000 HD
ENDBRANCH   8   9
ENDBRANCH   7   8
ENDBRANCH   1   7
BRANCH   4  12
ATOM     12  C   UNL     1      43.833   5.167  10.880  0.00  0.00    +0.000 C 
BRANCH  12  13
ATOM     13  N   UNL     1      44.645   6.284  11.348  0.00  0.00    +0.000 N 
ATOM     14  N   UNL     1      44.205   7.555  11.136  0.00  0.00    +0.000 NA
ATOM     15  C   UNL     1      45.032   8.298  11.880  0.00  0.00    +0.000 A 
ATOM     16  C   UNL     1      45.977   7.528  12.576  0.00  0.00    +0.000 A 
ATOM     17  N   UNL     1      46.945   7.884  13.456  0.00  0.00    +0.000 NA
ATOM     18  C   UNL     1      47.658   6.850  13.952  0.00  0.00    +0.000 A 
ATOM     19  C   UNL     1      47.485   5.514  13.616  0.00  0.00    +0.000 A 
ATOM     20  C   UNL     1      46.491   5.159  12.704  0.00  0.00    +0.000 A 
ATOM     21  C   UNL     1      45.727   6.214  12.196  0.00  0.00    +0.000 A 
ENDBRANCH  12  13
ENDBRANCH   4  12
TORSDOF 5
ENDMDL
MODEL 3
REMARK VINA RESULT:    -6.167      1.837      6.368
REMARK INTER + INTRA:          -8.298
REMARK INTER:                  -7.774
REMARK INTRA:                  -0.523
REMARK UNBOUND:                -0.509
REMARK  Name = 
REMARK  5 active torsions:
REMARK  status: ('A' for Active; 'I' for Inactive)
REMARK    1  A    between atoms: N_1  and  C_2
REMARK    2  A    between atoms: C_2  and  C_3
REMARK    3  A    between atoms: C_3  and  C_4
REMARK    4  A    between atoms: C_7  and  C_8
REMARK    5  A    between atoms: C_8  and  N_9
REMARK                            x       y       z     vdW  Elec       q    Type
REMARK                         _______ _______ _______ _____ _____    ______ ____
ROOT
ATOM      1  C   UNL     1      45.778   5.463  12.134  0.00  0.00    +0.000 A 
ATOM      2  C   UNL     1      45.626   5.879  10.805  0.00  0.00    +0.000 A 
ATOM      3  C   UNL     1      45.211   4.978   9.820  0.00  0.00    +0.000 A 
ATOM      4  C   UNL     1      44.935   3.642  10.145  0.00  0.00    +0.000 A 
ATOM      5  C   UNL     1      45.072   3.234  11.478  0.00  0.00    +0.000 A 
ATOM      6  C   UNL     1      45.481   4.137  12.464  0.00  0.00    +0.000 A 
ENDROOT
BRANCH   1   7
ATOM      7  C   UNL     1      46.265   6.426  13.192  0.00  0.00    +0.000 C 
BRANCH   7   8
ATOM      8  C   UNL     1      47.487   5.897  13.951  0.00  0.00    +0.000 C 
BRANCH   8   9
ATOM      9  N   UNL     1      48.721   6.167  13.213  0.00  0.00    +0.000 NA
ATOM     10  H   UNL     1      49.370   5.392  13.345  0.00  0.00    +0.000 HD
ATOM     11  H   UNL     1      49.181   6.992  13.598  0.00  0.00    +0.000 HD
ENDBRANCH   8   9
ENDBRANCH   7   8
ENDBRANCH   1   7
BRANCH   4  12
ATOM     12  C   UNL     1      44.486   2.661   9.091  0.00  0.00    +0.000 C 
BRANCH  12  13
ATOM     13  N   UNL     1      45.592   1.981   8.425  0.00  0.00    +0.000 N 
ATOM     14  N   UNL     1      45.802   0.661   8.677  0.00  0.00    +0.000 NA
ATOM     15  C   UNL     1      46.702   0.307   7.753  0.00  0.00    +0.000 A 
ATOM     16  C   UNL     1      47.056   1.369   6.905  0.00  0.00    +0.000 A 
ATOM     17  N   UNL     1      47.884   1.417   5.833  0.00  0.00    +0.000 NA
ATOM     18  C   UNL     1      47.959   2.627   5.238  0.00  0.00    +0.000 A 
ATOM     19  C   UNL     1      47.293   3.773   5.650  0.00  0.00    +0.000 A 
ATOM     20  C   UNL     1      46.449   3.715   6.760  0.00  0.00    +0.000 A 
ATOM     21  C   UNL     1      46.340   2.464   7.375  0.00  0.00    +0.000 A 
ENDBRANCH  12  13
ENDBRANCH   4  12
TORSDOF 5
ENDMDL
MODEL 4
REMARK VINA RESULT:    -6.047      1.547      2.673
REMARK INTER + INTRA:          -8.146
REMARK INTER:                  -7.754
REMARK INTRA:                  -0.393
REMARK UNBOUND:                -0.509
REMARK  Name = 
REMARK  5 active torsions:
REMARK  status: ('A' for Active; 'I' for Inactive)
REMARK    1  A    between atoms: N_1  and  C_2
REMARK    2  A    between atoms: C_2  and  C_3
REMARK    3  A    between atoms: C_3  and  C_4
REMARK    4  A    between atoms: C_7  and  C_8
REMARK    5  A    between atoms: C_8  and  N_9
REMARK                            x       y       z     vdW  Elec       q    Type
REMARK                         _______ _______ _______ _____ _____    ______ ____
ROOT
ATOM      1  C   UNL     1      45.237   2.745   9.214  0.00  0.00    +0.000 A 
ATOM      2  C   UNL     1      45.678   3.963   8.683  0.00  0.00    +0.000 A 
ATOM      3  C   UNL     1      45.668   5.124   9.462  0.00  0.00    +0.000 A 
ATOM      4  C   UNL     1      45.222   5.090  10.791  0.00  0.00    +0.000 A 
ATOM      5  C   UNL     1      44.798   3.865  11.324  0.00  0.00    +0.000 A 
ATOM      6  C   UNL     1      44.813   2.704  10.547  0.00  0.00    +0.000 A 
ENDROOT
BRANCH   1   7
ATOM      7  C   UNL     1      45.208   1.497   8.362  0.00  0.00    +0.000 C 
BRANCH   7   8
ATOM      8  C   UNL     1      46.584   1.148   7.785  0.00  0.00    +0.000 C 
BRANCH   8   9
ATOM      9  N   UNL     1      46.783  -0.302   7.742  0.00  0.00    +0.000 NA
ATOM     10  H   UNL     1      46.499  -0.654   6.829  0.00  0.00    +0.000 HD
ATOM     11  H   UNL     1      46.175  -0.754   8.424  0.00  0.00    +0.000 HD
ENDBRANCH   8   9
ENDBRANCH   7   8
ENDBRANCH   1   7
BRANCH   4  12
ATOM     12  C   UNL     1      45.208   6.335  11.640  0.00  0.00    +0.000 C 
BRANCH  12  13
ATOM     13  N   UNL     1      46.464   6.570  12.344  0.00  0.00    +0.000 N 
ATOM     14  N   UNL     1      47.208   7.663  12.022  0.00  0.00    +0.000 NA
ATOM     15  C   UNL     1      48.131   7.707  12.989  0.00  0.00    +0.000 A 
ATOM     16  C   UNL     1      47.981   6.676  13.930  0.00  0.00    +0.000 A 
ATOM     17  N   UNL     1      48.668   6.398  15.065  0.00  0.00    +0.000 NA
ATOM     18  C   UNL     1      48.215   5.322  15.744  0.00  0.00    +0.000 A 
ATOM     19  C   UNL     1      47.157   4.510  15.358  0.00  0.00    +0.000 A 
ATOM     20  C   UNL     1      46.462   4.801  14.184  0.00  0.00    +0.000 A 
ATOM     21  C   UNL     1      46.902   5.925  13.479  0.00  0.00    +0.000 A 
ENDBRANCH  12  13
ENDBRANCH   4  12
TORSDOF 5
ENDMDL
MODEL 5
REMARK VINA RESULT:    -6.021      2.172      6.486
REMARK INTER + INTRA:          -8.114
REMARK INTER:                  -7.686
REMARK INTRA:                  -0.429
REMARK UNBOUND:                -0.509
REMARK  Name = 
REMARK  5 active torsions:
REMARK  status: ('A' for Active; 'I' for Inactive)
REMARK    1  A    between atoms: N_1  and  C_2
REMARK    2  A    between atoms: C_2  and  C_3
REMARK    3  A    between atoms: C_3  and  C_4
REMARK    4  A    between atoms: C_7  and  C_8
REMARK    5  A    between atoms: C_8  and  N_9
REMARK                            x       y       z     vdW  Elec       q    Type
REMARK                         _______ _______ _______ _____ _____    ______ ____
ROOT
ATOM      1  C   UNL     1      47.086   8.390  12.778  0.00  0.00    +0.000 A 
ATOM      2  C   UNL     1      46.049   9.063  12.120  0.00  0.00    +0.000 A 
ATOM      3  C   UNL     1      44.921   8.368  11.672  0.00  0.00    +0.000 A 
ATOM      4  C   UNL     1      44.804   6.986  11.877  0.00  0.00    +0.000 A 
ATOM      5  C   UNL     1      45.836   6.319  12.552  0.00  0.00    +0.000 A 
ATOM      6  C   UNL     1      46.960   7.015  13.005  0.00  0.00    +0.000 A 
ENDROOT
BRANCH   1   7
ATOM      7  C   UNL     1      48.323   9.131  13.227  0.00  0.00    +0.000 C 
BRANCH   7   8
ATOM      8  C   UNL     1      48.648   8.893  14.706  0.00  0.00    +0.000 C 
BRANCH   8   9
ATOM      9  N   UNL     1      47.513   9.251  15.557  0.00  0.00    +0.000 NA
ATOM     10  H   UNL     1      47.347  10.255  15.492  0.00  0.00    +0.000 HD
ATOM     11  H   UNL     1      47.740   9.063  16.533  0.00  0.00    +0.000 HD
ENDBRANCH   8   9
ENDBRANCH   7   8
ENDBRANCH   1   7
BRANCH   4  12
ATOM     12  C   UNL     1      43.592   6.227  11.399  0.00  0.00    +0.000 C 
BRANCH  12  13
ATOM     13  N   UNL     1      43.845   4.807  11.188  0.00  0.00    +0.000 N 
ATOM     14  N   UNL     1      43.197   3.897  11.965  0.00  0.00    +0.000 NA
ATOM     15  C   UNL     1      43.459   2.731  11.364  0.00  0.00    +0.000 A 
ATOM     16  C   UNL     1      44.247   2.879  10.211  0.00  0.00    +0.000 A 
ATOM     17  N   UNL     1      44.688   1.969   9.309  0.00  0.00    +0.000 NA
ATOM     18  C   UNL     1      45.412   2.491   8.295  0.00  0.00    +0.000 A 
ATOM     19  C   UNL     1      45.737   3.832   8.142  0.00  0.00    +0.000 A 
ATOM     20  C   UNL     1      45.284   4.760   9.080  0.00  0.00    +0.000 A 
ATOM     21  C   UNL     1      44.513   4.241  10.125  0.00  0.00    +0.000 A 
ENDBRANCH  12  13
ENDBRANCH   4  12
TORSDOF 5
ENDMDL
MODEL 6
REMARK VINA RESULT:    -5.756      1.720      2.339
REMARK INTER + INTRA:          -7.779
REMARK INTER:                  -7.301
REMARK INTRA:                  -0.478
REMARK UNBOUND:                -0.509
REMARK  Name = 
REMARK  5 active torsions:
REMARK  status: ('A' for Active; 'I' for Inactive)
REMARK    1  A    between atoms: N_1  and  C_2
REMARK    2  A    between atoms: C_2  and  C_3
REMARK    3  A    between atoms: C_3  and  C_4
REMARK    4  A    between atoms: C_7  and  C_8
REMARK    5  A    between atoms: C_8  and  N_9
REMARK                            x       y       z     vdW  Elec       q    Type
REMARK                         _______ _______ _______ _____ _____    ______ ____
ROOT
ATOM      1  C   UNL     1      45.237   3.390   8.996  0.00  0.00    +0.000 A 
ATOM      2  C   UNL     1      45.678   4.719   9.036  0.00  0.00    +0.000 A 
ATOM      3  C   UNL     1      45.437   5.515  10.159  0.00  0.00    +0.000 A 
ATOM      4  C   UNL     1      44.756   4.998  11.270  0.00  0.00    +0.000 A 
ATOM      5  C   UNL     1      44.332   3.662  11.234  0.00  0.00    +0.000 A 
ATOM      6  C   UNL     1      44.577   2.865  10.113  0.00  0.00    +0.000 A 
ENDROOT
BRANCH   1   7
ATOM      7  C   UNL     1      45.460   2.540   7.767  0.00  0.00    +0.000 C 
BRANCH   7   8
ATOM      8  C   UNL     1      46.402   1.361   8.031  0.00  0.00    +0.000 C 
BRANCH   8   9
ATOM      9  N   UNL     1      47.505   1.344   7.069  0.00  0.00    +0.000 NA
ATOM     10  H   UNL     1      48.391   1.324   7.573  0.00  0.00    +0.000 HD
ATOM     11  H   UNL     1      47.505   2.208   6.527  0.00  0.00    +0.000 HD
ENDBRANCH   8   9
ENDBRANCH   7   8
ENDBRANCH   1   7
BRANCH   4  12
ATOM     12  C   UNL     1      44.492   5.847  12.487  0.00  0.00    +0.000 C 
BRANCH  12  13
ATOM     13  N   UNL     1      45.684   6.515  12.996  0.00  0.00    +0.000 N 
ATOM     14  N   UNL     1      46.663   5.768  13.576  0.00  0.00    +0.000 NA
ATOM     15  C   UNL     1      47.679   6.629  13.701  0.00  0.00    +0.000 A 
ATOM     16  C   UNL     1      47.375   7.904  13.197  0.00  0.00    +0.000 A 
ATOM     17  N   UNL     1      48.130   9.025  13.092  0.00  0.00    +0.000 NA
ATOM     18  C   UNL     1      47.500  10.073  12.519  0.00  0.00    +0.000 A 
ATOM     19  C   UNL     1      46.184  10.080  12.075  0.00  0.00    +0.000 A 
ATOM     20  C   UNL     1      45.414   8.923  12.193  0.00  0.00    +0.000 A 
ATOM     21  C   UNL     1      46.058   7.820  12.763  0.00  0.00    +0.000 A 
ENDBRANCH  12  13
ENDBRANCH   4  12
TORSDOF 5
ENDMDL
MODEL 7
REMARK VINA RESULT:    -5.711      1.976      3.081
REMARK INTER + INTRA:          -7.722
REMARK INTER:                  -7.309
REMARK INTRA:                  -0.413
REMARK UNBOUND:                -0.509
REMARK  Name = 
REMARK  5 active torsions:
REMARK  status: ('A' for Active; 'I' for Inactive)
REMARK    1  A    between atoms: N_1  and  C_2
REMARK    2  A    between atoms: C_2  and  C_3
REMARK    3  A    between atoms: C_3  and  C_4
REMARK    4  A    between atoms: C_7  and  C_8
REMARK    5  A    between atoms: C_8  and  N_9
REMARK                            x       y       z     vdW  Elec       q    Type
REMARK                         _______ _______ _______ _____ _____    ______ ____
ROOT
ATOM      1  C   UNL     1      44.941   3.250   9.902  0.00  0.00    +0.000 A 
ATOM      2  C   UNL     1      45.283   4.557   9.534  0.00  0.00    +0.000 A 
ATOM      3  C   UNL     1      45.328   5.577  10.490  0.00  0.00    +0.000 A 
ATOM      4  C   UNL     1      45.037   5.309  11.835  0.00  0.00    +0.000 A 
ATOM      5  C   UNL     1      44.712   3.996  12.202  0.00  0.00    +0.000 A 
ATOM      6  C   UNL     1      44.673   2.976  11.248  0.00  0.00    +0.000 A 
ENDROOT
BRANCH   1   7
ATOM      7  C   UNL     1      44.852   2.155   8.865  0.00  0.00    +0.000 C 
BRANCH   7   8
ATOM      8  C   UNL     1      46.154   1.985   8.076  0.00  0.00    +0.000 C 
BRANCH   8   9
ATOM      9  N   UNL     1      46.533   0.574   7.983  0.00  0.00    +0.000 NA
ATOM     10  H   UNL     1      45.789  -0.001   8.377  0.00  0.00    +0.000 HD
ATOM     11  H   UNL     1      47.359   0.400   8.553  0.00  0.00    +0.000 HD
ENDBRANCH   8   9
ENDBRANCH   7   8
ENDBRANCH   1   7
BRANCH   4  12
ATOM     12  C   UNL     1      45.083   6.401  12.874  0.00  0.00    +0.000 C 
BRANCH  12  13
ATOM     13  N   UNL     1      45.816   7.584  12.437  0.00  0.00    +0.000 N 
ATOM     14  N   UNL     1      45.139   8.751  12.254  0.00  0.00    +0.000 NA
ATOM     15  C   UNL     1      46.112   9.655  12.101  0.00  0.00    +0.000 A 
ATOM     16  C   UNL     1      47.396   9.093  12.200  0.00  0.00    +0.000 A 
ATOM     17  N   UNL     1      48.625   9.663  12.151  0.00  0.00    +0.000 NA
ATOM     18  C   UNL     1      49.649   8.798  12.314  0.00  0.00    +0.000 A 
ATOM     19  C   UNL     1      49.528   7.427  12.496  0.00  0.00    +0.000 A 
ATOM     20  C   UNL     1      48.258   6.850  12.538  0.00  0.00    +0.000 A 
ATOM     21  C   UNL     1      47.184   7.734  12.394  0.00  0.00    +0.000 A 
ENDBRANCH  12  13
ENDBRANCH   4  12
TORSDOF 5
ENDMDL
MODEL 8
REMARK VINA RESULT:    -5.680      1.706      6.056
REMARK INTER + INTRA:          -7.683
REMARK INTER:                  -7.107
REMARK INTRA:                  -0.577
REMARK UNBOUND:                -0.509
REMARK  Name = 
REMARK  5 active torsions:
REMARK  status: ('A' for Active; 'I' for Inactive)
REMARK    1  A    between atoms: N_1  and  C_2
REMARK    2  A    between atoms: C_2  and  C_3
REMARK    3  A    between atoms: C_3  and  C_4
REMARK    4  A    between atoms: C_7  and  C_8
REMARK    5  A    between atoms: C_8  and  N_9
REMARK                            x       y       z     vdW  Elec       q    Type
REMARK                         _______ _______ _______ _____ _____    ______ ____
ROOT
ATOM      1  C   UNL     1      46.670   7.177  13.161  0.00  0.00    +0.000 A 
ATOM      2  C   UNL     1      46.363   5.840  13.447  0.00  0.00    +0.000 A 
ATOM      3  C   UNL     1      45.434   5.142  12.670  0.00  0.00    +0.000 A 
ATOM      4  C   UNL     1      44.795   5.764  11.588  0.00  0.00    +0.000 A 
ATOM      5  C   UNL     1      45.118   7.096  11.294  0.00  0.00    +0.000 A 
ATOM      6  C   UNL     1      46.051   7.792  12.067  0.00  0.00    +0.000 A 
ENDROOT
BRANCH   1   7
ATOM      7  C   UNL     1      47.643   7.946  14.024  0.00  0.00    +0.000 C 
BRANCH   7   8
ATOM      8  C   UNL     1      49.094   7.793  13.553  0.00  0.00    +0.000 C 
BRANCH   8   9
ATOM      9  N   UNL     1      49.803   6.792  14.350  0.00  0.00    +0.000 NA
ATOM     10  H   UNL     1      49.910   7.135  15.304  0.00  0.00    +0.000 HD
ATOM     11  H   UNL     1      50.746   6.664  13.986  0.00  0.00    +0.000 HD
ENDBRANCH   8   9
ENDBRANCH   7   8
ENDBRANCH   1   7
BRANCH   4  12
ATOM     12  C   UNL     1      43.792   5.020  10.743  0.00  0.00    +0.000 C 
BRANCH  12  13
ATOM     13  N   UNL     1      44.331   3.806  10.140  0.00  0.00    +0.000 N 
ATOM     14  N   UNL     1      43.759   2.609  10.442  0.00  0.00    +0.000 NA
ATOM     15  C   UNL     1      44.314   1.768   9.563  0.00  0.00    +0.000 A 
ATOM     16  C   UNL     1      45.215   2.407   8.695  0.00  0.00    +0.000 A 
ATOM     17  N   UNL     1      45.937   1.931   7.652  0.00  0.00    +0.000 NA
ATOM     18  C   UNL     1      46.688   2.860   7.020  0.00  0.00    +0.000 A 
ATOM     19  C   UNL     1      46.777   4.200   7.371  0.00  0.00    +0.000 A 
ATOM     20  C   UNL     1      46.034   4.678   8.451  0.00  0.00    +0.000 A 
ATOM     21  C   UNL     1      45.233   3.735   9.103  0.00  0.00    +0.000 A 
ENDBRANCH  12  13
ENDBRANCH   4  12
TORSDOF 5
ENDMDL
MODEL 9
REMARK VINA RESULT:    -5.156      2.241      3.608
REMARK INTER + INTRA:          -7.021
REMARK INTER:                  -6.504
REMARK INTRA:                  -0.516
REMARK UNBOUND:                -0.509
REMARK  Name = 
REMARK  5 active torsions:
REMARK  status: ('A' for Active; 'I' for Inactive)
REMARK    1  A    between atoms: N_1  and  C_2
REMARK    2  A    between atoms: C_2  and  C_3
REMARK    3  A    between atoms: C_3  and  C_4
REMARK    4  A    between atoms: C_7  and  C_8
REMARK    5  A    between atoms: C_8  and  N_9
REMARK                            x       y       z     vdW  Elec       q    Type
REMARK                         _______ _______ _______ _____ _____    ______ ____
ROOT
ATOM      1  C   UNL     1      44.579   4.039  10.884  0.00  0.00    +0.000 A 
ATOM      2  C   UNL     1      45.309   5.015  10.193  0.00  0.00    +0.000 A 
ATOM      3  C   UNL     1      45.691   6.200  10.829  0.00  0.00    +0.000 A 
ATOM      4  C   UNL     1      45.356   6.433  12.170  0.00  0.00    +0.000 A 
ATOM      5  C   UNL     1      44.641   5.446  12.863  0.00  0.00    +0.000 A 
ATOM      6  C   UNL     1      44.264   4.259  12.230  0.00  0.00    +0.000 A 
ENDROOT
BRANCH   1   7
ATOM      7  C   UNL     1      44.130   2.776  10.188  0.00  0.00    +0.000 C 
BRANCH   7   8
ATOM      8  C   UNL     1      44.815   2.575   8.832  0.00  0.00    +0.000 C 
BRANCH   8   9
ATOM      9  N   UNL     1      45.590   1.334   8.813  0.00  0.00    +0.000 NA
ATOM     10  H   UNL     1      45.275   0.729   9.572  0.00  0.00    +0.000 HD
ATOM     11  H   UNL     1      46.571   1.535   8.998  0.00  0.00    +0.000 HD
ENDBRANCH   8   9
ENDBRANCH   7   8
ENDBRANCH   1   7
BRANCH   4  12
ATOM     12  C   UNL     1      45.763   7.707  12.865  0.00  0.00    +0.000 C 
BRANCH  12  13
ATOM     13  N   UNL     1      47.204   7.823  13.063  0.00  0.00    +0.000 N 
ATOM     14  N   UNL     1      47.864   6.825  13.712  0.00  0.00    +0.000 NA
ATOM     15  C   UNL     1      49.152   7.120  13.509  0.00  0.00    +0.000 A 
ATOM     16  C   UNL     1      49.328   8.275  12.730  0.00  0.00    +0.000 A 
ATOM     17  N   UNL     1      50.452   8.876  12.267  0.00  0.00    +0.000 NA
ATOM     18  C   UNL     1      50.228   9.974  11.512  0.00  0.00    +0.000 A 
ATOM     19  C   UNL     1      48.983  10.511  11.216  0.00  0.00    +0.000 A 
ATOM     20  C   UNL     1      47.834   9.889  11.704  0.00  0.00    +0.000 A 
ATOM     21  C   UNL     1      48.044   8.737  12.468  0.00  0.00    +0.000 A 
ENDBRANCH  12  13
ENDBRANCH   4  12
TORSDOF 5
ENDMDL
