MODEL 1
REMARK VINA RESULT:    -8.260      0.000      0.000
REMARK INTER + INTRA:         -10.344
REMARK INTER:                 -10.192
REMARK INTRA:                  -0.151
REMARK UNBOUND:                -0.151
REMARK  Name = 
REMARK  5 active torsions:
REMARK  status: ('A' for Active; 'I' for Inactive)
REMARK    1  A    between atoms: C_1  and  C_2
REMARK    2  A    between atoms: C_2  and  O_3
REMARK    3  A    between atoms: C_2  and  C_14
REMARK    4  A    between atoms: O_3  and  C_4
REMARK    5  A    between atoms: C_7  and  C_8
REMARK                            x       y       z     vdW  Elec       q    Type
REMARK                         _______ _______ _______ _____ _____    ______ ____
ROOT
ATOM      1  C   UNL     1      44.659   4.012   9.298  0.00  0.00    +0.000 A 
ATOM      2  C   UNL     1      45.538   4.562   8.366  0.00  0.00    +0.000 A 
ATOM      3  C   UNL     1      46.412   3.741   7.643  0.00  0.00    +0.000 A 
ATOM      4  C   UNL     1      46.398   2.353   7.825  0.00  0.00    +0.000 A 
ATOM      5  C   UNL     1      45.476   1.797   8.716  0.00  0.00    +0.000 A 
ATOM      6  C   UNL     1      44.615   2.621   9.437  0.00  0.00    +0.000 A 
ATOM      7  F   UNL     1      43.755   2.059  10.299  0.00  0.00    +0.000 F 
ENDROOT
BRANCH   4   8
ATOM      8  C   UNL     1      47.335   1.439   7.117  0.00  0.00    +0.000 C 
ATOM      9  N   UNL     1      48.467   1.962   6.555  0.00  0.00    +0.000 N 
ATOM     10  O   UNL     1      47.115   0.237   7.040  0.00  0.00    +0.000 OA
ATOM     11  H   UNL     1      48.722   2.936   6.539  0.00  0.00    +0.000 HD
ATOM     12  H   UNL     1      49.078   1.310   6.081  0.00  0.00    +0.000 HD
ENDBRANCH   4   8
BRANCH   1  13
ATOM     13  O   UNL     1      43.824   4.737  10.105  0.00  0.00    +0.000 OA
BRANCH  13  15
ATOM     14  C   UNL     1      42.645   5.098  12.227  0.00  0.00    +0.000 C 
ATOM     15  C   UNL     1      43.829   4.438  11.514  0.00  0.00    +0.000 C 
BRANCH  15  16
ATOM     16  C   UNL     1      45.132   4.911  12.142  0.00  0.00    +0.000 A 
ATOM     17  C   UNL     1      45.728   6.115  11.776  0.00  0.00    +0.000 A 
ATOM     18  C   UNL     1      46.931   6.481  12.377  0.00  0.00    +0.000 A 
ATOM     19  C   UNL     1      47.500   5.648  13.332  0.00  0.00    +0.000 A 
ATOM     20  C   UNL     1      46.834   4.481  13.659  0.00  0.00    +0.000 A 
ATOM     21  N   UNL     1      45.669   4.099  13.094  0.00  0.00    +0.000 NA
ENDBRANCH  15  16
ENDBRANCH  13  15
ENDBRANCH   1  13
TORSDOF 4
ENDMDL
MODEL 2
REMARK VINA RESULT:    -7.987      1.512      2.059
REMARK INTER + INTRA:         -10.006
REMARK INTER:                  -9.289
REMARK INTRA:                  -0.717
REMARK UNBOUND:                -0.151
REMARK  Name = 
REMARK  5 active torsions:
REMARK  status: ('A' for Active; 'I' for Inactive)
REMARK    1  A    between atoms: C_1  and  C_2
REMARK    2  A    between atoms: C_2  and  O_3
REMARK    3  A    between atoms: C_2  and  C_14
REMARK    4  A    between atoms: O_3  and  C_4
REMARK    5  A    between atoms: C_7  and  C_8
REMARK                            x       y       z     vdW  Elec       q    Type
REMARK                         _______ _______ _______ _____ _____    ______ ____
ROOT
ATOM      1  C   UNL     1      44.514   3.752   9.376  0.00  0.00    +0.000 A 
ATOM      2  C   UNL     1      44.260   2.390   9.532  0.00  0.00    +0.000 A 
ATOM      3  C   UNL     1      45.060   1.440   8.887  0.00  0.00    +0.000 A 
ATOM      4  C   UNL     1      46.144   1.842   8.097  0.00  0.00    +0.000 A 
ATOM      5  C   UNL     1      46.433   3.205   7.989  0.00  0.00    +0.000 A 
ATOM      6  C   UNL     1      45.628   4.145   8.628  0.00  0.00    +0.000 A 
ATOM      7  F   UNL     1      45.919   5.446   8.489  0.00  0.00    +0.000 F 
ENDROOT
BRANCH   4   8
ATOM      8  C   UNL     1      46.999   0.877   7.352  0.00  0.00    +0.000 C 
ATOM      9  N   UNL     1      46.818  -0.462   7.563  0.00  0.00    +0.000 N 
ATOM     10  O   UNL     1      47.844   1.261   6.554  0.00  0.00    +0.000 OA
ATOM     11  H   UNL     1      46.173  -0.874   8.216  0.00  0.00    +0.000 HD
ATOM     12  H   UNL     1      47.419  -1.086   7.041  0.00  0.00    +0.000 HD
ENDBRANCH   4   8
BRANCH   1  13
ATOM     13  O   UNL     1      43.744   4.754   9.903  0.00  0.00    +0.000 OA
BRANCH  13  15
ATOM     14  C   UNL     1      42.402   5.718  11.718  0.00  0.00    +0.000 C 
ATOM     15  C   UNL     1      43.528   4.756  11.326  0.00  0.00    +0.000 C 
BRANCH  15  16
ATOM     16  C   UNL     1      44.810   5.151  12.046  0.00  0.00    +0.000 A 
ATOM     17  C   UNL     1      45.476   4.271  12.896  0.00  0.00    +0.000 A 
ATOM     18  C   UNL     1      46.634   4.702  13.539  0.00  0.00    +0.000 A 
ATOM     19  C   UNL     1      47.106   5.988  13.310  0.00  0.00    +0.000 A 
ATOM     20  C   UNL     1      46.402   6.794  12.433  0.00  0.00    +0.000 A 
ATOM     21  N   UNL     1      45.276   6.406  11.797  0.00  0.00    +0.000 NA
ENDBRANCH  15  16
ENDBRANCH  13  15
ENDBRANCH   1  13
TORSDOF 4
ENDMDL
MODEL 3
REMARK VINA RESULT:    -6.737      4.198      6.019
REMARK INTER + INTRA:          -8.463
REMARK INTER:                  -7.810
REMARK INTRA:                  -0.654
REMARK UNBOUND:                -0.151
REMARK  Name = 
REMARK  5 active torsions:
REMARK  status: ('A' for Active; 'I' for Inactive)
REMARK    1  A    between atoms: C_1  and  C_2
REMARK    2  A    between atoms: C_2  and  O_3
REMARK    3  A    between atoms: C_2  and  C_14
REMARK    4  A    between atoms: O_3  and  C_4
REMARK    5  A    between atoms: C_7  and  C_8
REMARK                            x       y       z     vdW  Elec       q    Type
REMARK                         _______ _______ _______ _____ _____    ______ ____
ROOT
ATOM      1  C   UNL     1      46.996   5.782  13.416  0.00  0.00    +0.000 A 
ATOM      2  C   UNL     1      46.362   6.964  13.034  0.00  0.00    +0.000 A 
ATOM      3  C   UNL     1      45.148   6.925  12.339  0.00  0.00    +0.000 A 
ATOM      4  C   UNL     1      44.539   5.701  12.039  0.00  0.00    +0.000 A 
ATOM      5  C   UNL     1      45.145   4.520  12.474  0.00  0.00    +0.000 A 
ATOM      6  C   UNL     1      46.357   4.565  13.159  0.00  0.00    +0.000 A 
ATOM      7  F   UNL     1      46.924   3.414  13.545  0.00  0.00    +0.000 F 
ENDROOT
BRANCH   4   8
ATOM      8  C   UNL     1      43.272   5.601  11.262  0.00  0.00    +0.000 C 
ATOM      9  N   UNL     1      42.156   6.230  11.740  0.00  0.00    +0.000 N 
ATOM     10  O   UNL     1      43.220   4.979  10.209  0.00  0.00    +0.000 OA
ATOM     11  H   UNL     1      42.090   6.740  12.605  0.00  0.00    +0.000 HD
ATOM     12  H   UNL     1      41.315   6.137  11.186  0.00  0.00    +0.000 HD
ENDBRANCH   4   8
BRANCH   1  13
ATOM     13  O   UNL     1      48.219   5.716  14.029  0.00  0.00    +0.000 OA
BRANCH  13  15
ATOM     14  C   UNL     1      49.548   7.092  15.566  0.00  0.00    +0.000 C 
ATOM     15  C   UNL     1      48.317   6.199  15.382  0.00  0.00    +0.000 C 
BRANCH  15  16
ATOM     16  C   UNL     1      48.386   5.027  16.350  0.00  0.00    +0.000 A 
ATOM     17  C   UNL     1      47.255   4.291  16.694  0.00  0.00    +0.000 A 
ATOM     18  C   UNL     1      47.384   3.242  17.601  0.00  0.00    +0.000 A 
ATOM     19  C   UNL     1      48.634   2.944  18.130  0.00  0.00    +0.000 A 
ATOM     20  C   UNL     1      49.713   3.705  17.719  0.00  0.00    +0.000 A 
ATOM     21  N   UNL     1      49.620   4.729  16.844  0.00  0.00    +0.000 NA
ENDBRANCH  15  16
ENDBRANCH  13  15
ENDBRANCH   1  13
TORSDOF 4
ENDMDL
MODEL 4
REMARK VINA RESULT:    -6.658      3.135      6.191
REMARK INTER + INTRA:          -8.366
REMARK INTER:                  -7.873
REMARK INTRA:                  -0.494
REMARK UNBOUND:                -0.151
REMARK  Name = 
REMARK  5 active torsions:
REMARK  status: ('A' for Active; 'I' for Inactive)
REMARK    1  A    between atoms: C_1  and  C_2
REMARK    2  A    between atoms: C_2  and  O_3
REMARK    3  A    between atoms: C_2  and  C_14
REMARK    4  A    between atoms: O_3  and  C_4
REMARK    5  A    between atoms: C_7  and  C_8
REMARK                            x       y       z     vdW  Elec       q    Type
REMARK                         _______ _______ _______ _____ _____    ______ ____
ROOT
ATOM      1  C   UNL     1      46.297   5.632  12.420  0.00  0.00    +0.000 A 
ATOM      2  C   UNL     1      46.851   6.626  11.614  0.00  0.00    +0.000 A 
ATOM      3  C   UNL     1      47.906   7.416  12.085  0.00  0.00    +0.000 A 
ATOM      4  C   UNL     1      48.438   7.204  13.362  0.00  0.00    +0.000 A 
ATOM      5  C   UNL     1      47.922   6.169  14.147  0.00  0.00    +0.000 A 
ATOM      6  C   UNL     1      46.867   5.392  13.674  0.00  0.00    +0.000 A 
ATOM      7  F   UNL     1      46.380   4.420  14.459  0.00  0.00    +0.000 F 
ENDROOT
BRANCH   4   8
ATOM      8  C   UNL     1      49.529   8.044  13.929  0.00  0.00    +0.000 C 
ATOM      9  N   UNL     1      50.826   7.723  13.639  0.00  0.00    +0.000 N 
ATOM     10  O   UNL     1      49.282   9.014  14.635  0.00  0.00    +0.000 OA
ATOM     11  H   UNL     1      51.131   6.934  13.094  0.00  0.00    +0.000 HD
ATOM     12  H   UNL     1      51.538   8.316  14.045  0.00  0.00    +0.000 HD
ENDBRANCH   4   8
BRANCH   1  13
ATOM     13  O   UNL     1      45.217   4.863  12.080  0.00  0.00    +0.000 OA
BRANCH  13  15
ATOM     14  C   UNL     1      43.042   5.021  10.955  0.00  0.00    +0.000 C 
ATOM     15  C   UNL     1      44.564   5.142  10.827  0.00  0.00    +0.000 C 
BRANCH  15  16
ATOM     16  C   UNL     1      45.064   4.186   9.754  0.00  0.00    +0.000 A 
ATOM     17  C   UNL     1      44.885   2.808   9.857  0.00  0.00    +0.000 A 
ATOM     18  C   UNL     1      45.384   1.987   8.848  0.00  0.00    +0.000 A 
ATOM     19  C   UNL     1      46.034   2.557   7.761  0.00  0.00    +0.000 A 
ATOM     20  C   UNL     1      46.150   3.935   7.719  0.00  0.00    +0.000 A 
ATOM     21  N   UNL     1      45.679   4.757   8.682  0.00  0.00    +0.000 NA
ENDBRANCH  15  16
ENDBRANCH  13  15
ENDBRANCH   1  13
TORSDOF 4
ENDMDL
MODEL 5
REMARK VINA RESULT:    -6.206      4.584      6.267
REMARK INTER + INTRA:          -7.809
REMARK INTER:                  -7.221
REMARK INTRA:                  -0.588
REMARK UNBOUND:                -0.151
REMARK  Name = 
REMARK  5 active torsions:
REMARK  status: ('A' for Active; 'I' for Inactive)
REMARK    1  A    between atoms: C_1  and  C_2
REMARK    2  A    between atoms: C_2  and  O_3
REMARK    3  A    between atoms: C_2  and  C_14
REMARK    4  A    between atoms: O_3  and  C_4
REMARK    5  A    between atoms: C_7  and  C_8
REMARK                            x       y       z     vdW  Elec       q    Type
REMARK                         _______ _______ _______ _____ _____    ______ ____
ROOT
ATOM      1  C   UNL     1      47.037   5.678  13.279  0.00  0.00    +0.000 A 
ATOM      2  C   UNL     1      45.951   4.922  13.720  0.00  0.00    +0.000 A 
ATOM      3  C   UNL     1      44.698   5.056  13.110  0.00  0.00    +0.000 A 
ATOM      4  C   UNL     1      44.522   5.931  12.033  0.00  0.00    +0.000 A 
ATOM      5  C   UNL     1      45.624   6.645  11.553  0.00  0.00    +0.000 A 
ATOM      6  C   UNL     1      46.866   6.512  12.170  0.00  0.00    +0.000 A 
ATOM      7  F   UNL     1      47.899   7.226  11.699  0.00  0.00    +0.000 F 
ENDROOT
BRANCH   4   8
ATOM      8  C   UNL     1      43.202   6.146  11.378  0.00  0.00    +0.000 C 
ATOM      9  N   UNL     1      42.819   7.424  11.074  0.00  0.00    +0.000 N 
ATOM     10  O   UNL     1      42.468   5.207  11.102  0.00  0.00    +0.000 OA
ATOM     11  H   UNL     1      43.336   8.261  11.284  0.00  0.00    +0.000 HD
ATOM     12  H   UNL     1      41.915   7.530  10.631  0.00  0.00    +0.000 HD
ENDBRANCH   4   8
BRANCH   1  13
ATOM     13  O   UNL     1      48.277   5.674  13.858  0.00  0.00    +0.000 OA
BRANCH  13  15
ATOM     14  C   UNL     1      49.822   7.397  14.675  0.00  0.00    +0.000 C 
ATOM     15  C   UNL     1      48.526   6.618  14.916  0.00  0.00    +0.000 C 
BRANCH  15  16
ATOM     16  C   UNL     1      48.607   5.894  16.252  0.00  0.00    +0.000 A 
ATOM     17  C   UNL     1      48.658   6.585  17.461  0.00  0.00    +0.000 A 
ATOM     18  C   UNL     1      48.751   5.861  18.647  0.00  0.00    +0.000 A 
ATOM     19  C   UNL     1      48.776   4.473  18.602  0.00  0.00    +0.000 A 
ATOM     20  C   UNL     1      48.696   3.860  17.365  0.00  0.00    +0.000 A 
ATOM     21  N   UNL     1      48.608   4.533  16.198  0.00  0.00    +0.000 NA
ENDBRANCH  15  16
ENDBRANCH  13  15
ENDBRANCH   1  13
TORSDOF 4
ENDMDL
MODEL 6
REMARK VINA RESULT:    -5.990      4.265      6.430
REMARK INTER + INTRA:          -7.542
REMARK INTER:                  -7.049
REMARK INTRA:                  -0.493
REMARK UNBOUND:                -0.151
REMARK  Name = 
REMARK  5 active torsions:
REMARK  status: ('A' for Active; 'I' for Inactive)
REMARK    1  A    between atoms: C_1  and  C_2
REMARK    2  A    between atoms: C_2  and  O_3
REMARK    3  A    between atoms: C_2  and  C_14
REMARK    4  A    between atoms: O_3  and  C_4
REMARK    5  A    between atoms: C_7  and  C_8
REMARK                            x       y       z     vdW  Elec       q    Type
REMARK                         _______ _______ _______ _____ _____    ______ ____
ROOT
ATOM      1  C   UNL     1      47.369   5.132  14.368  0.00  0.00    +0.000 A 
ATOM      2  C   UNL     1      46.633   4.019  13.962  0.00  0.00    +0.000 A 
ATOM      3  C   UNL     1      45.850   4.070  12.803  0.00  0.00    +0.000 A 
ATOM      4  C   UNL     1      45.814   5.229  12.020  0.00  0.00    +0.000 A 
ATOM      5  C   UNL     1      46.598   6.323  12.394  0.00  0.00    +0.000 A 
ATOM      6  C   UNL     1      47.369   6.268  13.553  0.00  0.00    +0.000 A 
ATOM      7  F   UNL     1      48.095   7.342  13.897  0.00  0.00    +0.000 F 
ENDROOT
BRANCH   4   8
ATOM      8  C   UNL     1      44.964   5.353  10.804  0.00  0.00    +0.000 C 
ATOM      9  N   UNL     1      43.695   5.847  10.935  0.00  0.00    +0.000 N 
ATOM     10  O   UNL     1      45.383   5.032   9.699  0.00  0.00    +0.000 OA
ATOM     11  H   UNL     1      43.251   6.111  11.799  0.00  0.00    +0.000 HD
ATOM     12  H   UNL     1      43.148   5.914  10.088  0.00  0.00    +0.000 HD
ENDBRANCH   4   8
BRANCH   1  13
ATOM     13  O   UNL     1      48.101   5.205  15.523  0.00  0.00    +0.000 OA
BRANCH  13  15
ATOM     14  C   UNL     1      47.134   4.726  17.727  0.00  0.00    +0.000 C 
ATOM     15  C   UNL     1      47.893   4.181  16.514  0.00  0.00    +0.000 C 
BRANCH  15  16
ATOM     16  C   UNL     1      49.231   3.610  16.962  0.00  0.00    +0.000 A 
ATOM     17  C   UNL     1      50.134   4.360  17.712  0.00  0.00    +0.000 A 
ATOM     18  C   UNL     1      51.350   3.784  18.074  0.00  0.00    +0.000 A 
ATOM     19  C   UNL     1      51.629   2.478  17.693  0.00  0.00    +0.000 A 
ATOM     20  C   UNL     1      50.670   1.791  16.970  0.00  0.00    +0.000 A 
ATOM     21  N   UNL     1      49.484   2.322  16.603  0.00  0.00    +0.000 NA
ENDBRANCH  15  16
ENDBRANCH  13  15
ENDBRANCH   1  13
TORSDOF 4
ENDMDL
MODEL 7
REMARK VINA RESULT:    -5.941      4.321      6.059
REMARK INTER + INTRA:          -7.482
REMARK INTER:                  -6.854
REMARK INTRA:                  -0.627
REMARK UNBOUND:                -0.151
REMARK  Name = 
REMARK  5 active torsions:
REMARK  status: ('A' for Active; 'I' for Inactive)
REMARK    1  A    between atoms: C_1  and  C_2
REMARK    2  A    between atoms: C_2  and  O_3
REMARK    3  A    between atoms: C_2  and  C_14
REMARK    4  A    between atoms: O_3  and  C_4
REMARK    5  A    between atoms: C_7  and  C_8
REMARK                            x       y       z     vdW  Elec       q    Type
REMARK                         _______ _______ _______ _____ _____    ______ ____
ROOT
ATOM      1  C   UNL     1      47.119   5.805  12.873  0.00  0.00    +0.000 A 
ATOM      2  C   UNL     1      46.535   6.582  11.874  0.00  0.00    +0.000 A 
ATOM      3  C   UNL     1      45.211   6.357  11.481  0.00  0.00    +0.000 A 
ATOM      4  C   UNL     1      44.444   5.366  12.103  0.00  0.00    +0.000 A 
ATOM      5  C   UNL     1      45.010   4.626  13.145  0.00  0.00    +0.000 A 
ATOM      6  C   UNL     1      46.331   4.851  13.526  0.00  0.00    +0.000 A 
ATOM      7  F   UNL     1      46.852   4.112  14.515  0.00  0.00    +0.000 F 
ENDROOT
BRANCH   4   8
ATOM      8  C   UNL     1      43.047   5.053  11.694  0.00  0.00    +0.000 C 
ATOM      9  N   UNL     1      42.107   6.046  11.748  0.00  0.00    +0.000 N 
ATOM     10  O   UNL     1      42.733   3.936  11.304  0.00  0.00    +0.000 OA
ATOM     11  H   UNL     1      42.259   6.984  12.078  0.00  0.00    +0.000 HD
ATOM     12  H   UNL     1      41.169   5.795  11.463  0.00  0.00    +0.000 HD
ENDBRANCH   4   8
BRANCH   1  13
ATOM     13  O   UNL     1      48.425   5.898  13.272  0.00  0.00    +0.000 OA
BRANCH  13  15
ATOM     14  C   UNL     1      49.943   7.785  12.875  0.00  0.00    +0.000 C 
ATOM     15  C   UNL     1      48.880   7.163  13.786  0.00  0.00    +0.000 C 
BRANCH  15  16
ATOM     16  C   UNL     1      49.451   6.982  15.185  0.00  0.00    +0.000 A 
ATOM     17  C   UNL     1      48.764   6.279  16.173  0.00  0.00    +0.000 A 
ATOM     18  C   UNL     1      49.334   6.166  17.439  0.00  0.00    +0.000 A 
ATOM     19  C   UNL     1      50.574   6.741  17.685  0.00  0.00    +0.000 A 
ATOM     20  C   UNL     1      51.205   7.401  16.646  0.00  0.00    +0.000 A 
ATOM     21  N   UNL     1      50.677   7.529  15.409  0.00  0.00    +0.000 NA
ENDBRANCH  15  16
ENDBRANCH  13  15
ENDBRANCH   1  13
TORSDOF 4
ENDMDL
MODEL 8
REMARK VINA RESULT:    -5.418      3.644      6.840
REMARK INTER + INTRA:          -6.836
REMARK INTER:                  -6.294
REMARK INTRA:                  -0.542
REMARK UNBOUND:                -0.151
REMARK  Name = 
REMARK  5 active torsions:
REMARK  status: ('A' for Active; 'I' for Inactive)
REMARK    1  A    between atoms: C_1  and  C_2
REMARK    2  A    between atoms: C_2  and  O_3
REMARK    3  A    between atoms: C_2  and  C_14
REMARK    4  A    between atoms: O_3  and  C_4
REMARK    5  A    between atoms: C_7  and  C_8
REMARK                            x       y       z     vdW  Elec       q    Type
REMARK                         _______ _______ _______ _____ _____    ______ ____
ROOT
ATOM      1  C   UNL     1      47.431   5.740  13.232  0.00  0.00    +0.000 A 
ATOM      2  C   UNL     1      48.226   6.634  12.514  0.00  0.00    +0.000 A 
ATOM      3  C   UNL     1      49.155   7.446  13.174  0.00  0.00    +0.000 A 
ATOM      4  C   UNL     1      49.320   7.355  14.561  0.00  0.00    +0.000 A 
ATOM      5  C   UNL     1      48.566   6.418  15.272  0.00  0.00    +0.000 A 
ATOM      6  C   UNL     1      47.637   5.618  14.609  0.00  0.00    +0.000 A 
ATOM      7  F   UNL     1      46.914   4.743  15.322  0.00  0.00    +0.000 F 
ENDROOT
BRANCH   4   8
ATOM      8  C   UNL     1      50.260   8.226  15.319  0.00  0.00    +0.000 C 
ATOM      9  N   UNL     1      50.172   8.258  16.684  0.00  0.00    +0.000 N 
ATOM     10  O   UNL     1      51.107   8.899  14.746  0.00  0.00    +0.000 OA
ATOM     11  H   UNL     1      49.496   7.767  17.243  0.00  0.00    +0.000 HD
ATOM     12  H   UNL     1      50.826   8.863  17.163  0.00  0.00    +0.000 HD
ENDBRANCH   4   8
BRANCH   1  13
ATOM     13  O   UNL     1      46.445   4.962  12.687  0.00  0.00    +0.000 OA
BRANCH  13  15
ATOM     14  C   UNL     1      44.242   6.010  12.417  0.00  0.00    +0.000 C 
ATOM     15  C   UNL     1      45.549   5.580  11.744  0.00  0.00    +0.000 C 
BRANCH  15  16
ATOM     16  C   UNL     1      45.244   4.614  10.608  0.00  0.00    +0.000 A 
ATOM     17  C   UNL     1      45.476   4.952   9.276  0.00  0.00    +0.000 A 
ATOM     18  C   UNL     1      45.157   4.029   8.282  0.00  0.00    +0.000 A 
ATOM     19  C   UNL     1      44.631   2.794   8.639  0.00  0.00    +0.000 A 
ATOM     20  C   UNL     1      44.453   2.524   9.984  0.00  0.00    +0.000 A 
ATOM     21  N   UNL     1      44.751   3.398  10.969  0.00  0.00    +0.000 NA
ENDBRANCH  15  16
ENDBRANCH  13  15
ENDBRANCH   1  13
TORSDOF 4
ENDMDL
