MODEL 1
REMARK VINA RESULT:    -8.942      0.000      0.000
REMARK INTER + INTRA:         -12.482
REMARK INTER:                 -11.556
REMARK INTRA:                  -0.925
REMARK UNBOUND:                -0.925
REMARK  Name = 
REMARK  5 active torsions:
REMARK  status: ('A' for Active; 'I' for Inactive)
REMARK    1  A    between atoms: C_2  and  C_4
REMARK    2  A    between atoms: C_7  and  O_8
REMARK    3  A    between atoms: O_8  and  C_9
REMARK    4  A    between atoms: C_9  and  C_10
REMARK    5  A    between atoms: C_14  and  C_15
REMARK                            x       y       z     vdW  Elec       q    Type
REMARK                         _______ _______ _______ _____ _____    ______ ____
ROOT
ATOM      1  C   UNL     1      44.821   4.605  12.114  0.00  0.00    +0.000 A 
ATOM      2  C   UNL     1      45.598   3.691  12.834  0.00  0.00    +0.000 A 
ATOM      3  C   UNL     1      46.741   4.117  13.503  0.00  0.00    +0.000 A 
ATOM      4  C   UNL     1      47.137   5.457  13.433  0.00  0.00    +0.000 A 
ATOM      5  C   UNL     1      46.413   6.393  12.674  0.00  0.00    +0.000 A 
ATOM      6  C   UNL     1      45.241   5.941  12.041  0.00  0.00    +0.000 A 
ENDROOT
BRANCH   5   7
ATOM      7  C   UNL     1      46.905   7.770  12.437  0.00  0.00    +0.000 A 
ATOM      8  C   UNL     1      48.235   8.004  12.044  0.00  0.00    +0.000 A 
ATOM      9  C   UNL     1      48.656   9.277  11.667  0.00  0.00    +0.000 A 
ATOM     10  F   UNL     1      49.921   9.454  11.264  0.00  0.00    +0.000 F 
ATOM     11  C   UNL     1      47.784  10.352  11.665  0.00  0.00    +0.000 A 
ATOM     12  C   UNL     1      46.481  10.144  12.084  0.00  0.00    +0.000 A 
ATOM     13  F   UNL     1      45.616  11.166  12.079  0.00  0.00    +0.000 F 
ATOM     14  C   UNL     1      46.043   8.882  12.481  0.00  0.00    +0.000 A 
ENDBRANCH   5   7
BRANCH   1  15
ATOM     15  C   UNL     1      43.637   4.122  11.308  0.00  0.00    +0.000 C 
BRANCH  15  16
ATOM     16  O   UNL     1      43.697   4.612   9.964  0.00  0.00    +0.000 OA
BRANCH  16  20
ATOM     17  C   UNL     1      46.384   2.438   7.728  0.00  0.00    +0.000 A 
ATOM     18  C   UNL     1      45.551   1.779   8.633  0.00  0.00    +0.000 A 
ATOM     19  C   UNL     1      44.641   2.524   9.389  0.00  0.00    +0.000 A 
ATOM     20  C   UNL     1      44.602   3.898   9.206  0.00  0.00    +0.000 A 
ATOM     21  N   UNL     1      45.400   4.558   8.339  0.00  0.00    +0.000 NA
ATOM     22  C   UNL     1      46.278   3.817   7.626  0.00  0.00    +0.000 A 
BRANCH  17  24
ATOM     23  N   UNL     1      48.467   2.492   6.477  0.00  0.00    +0.000 N 
ATOM     24  C   UNL     1      47.391   1.759   6.889  0.00  0.00    +0.000 C 
ATOM     25  O   UNL     1      47.289   0.573   6.606  0.00  0.00    +0.000 OA
ATOM     26  H   UNL     1      49.198   1.973   6.004  0.00  0.00    +0.000 HD
ATOM     27  H   UNL     1      48.718   3.376   6.895  0.00  0.00    +0.000 HD
ENDBRANCH  17  24
ENDBRANCH  16  20
ENDBRANCH  15  16
ENDBRANCH   1  15
TORSDOF 5
ENDMDL
MODEL 2
REMARK VINA RESULT:    -8.906      0.264      1.657
REMARK INTER + INTRA:         -12.434
REMARK INTER:                 -11.548
REMARK INTRA:                  -0.886
REMARK UNBOUND:                -0.925
REMARK  Name = 
REMARK  5 active torsions:
REMARK  status: ('A' for Active; 'I' for Inactive)
REMARK    1  A    between atoms: C_2  and  C_4
REMARK    2  A    between atoms: C_7  and  O_8
REMARK    3  A    between atoms: O_8  and  C_9
REMARK    4  A    between atoms: C_9  and  C_10
REMARK    5  A    between atoms: C_14  and  C_15
REMARK                            x       y       z     vdW  Elec       q    Type
REMARK                         _______ _______ _______ _____ _____    ______ ____
ROOT
ATOM      1  C   UNL     1      44.825   4.681  12.063  0.00  0.00    +0.000 A 
ATOM      2  C   UNL     1      45.529   3.809  12.899  0.00  0.00    +0.000 A 
ATOM      3  C   UNL     1      46.682   4.239  13.549  0.00  0.00    +0.000 A 
ATOM      4  C   UNL     1      47.159   5.538  13.344  0.00  0.00    +0.000 A 
ATOM      5  C   UNL     1      46.510   6.425  12.469  0.00  0.00    +0.000 A 
ATOM      6  C   UNL     1      45.326   5.975  11.856  0.00  0.00    +0.000 A 
ENDROOT
BRANCH   5   7
ATOM      7  C   UNL     1      47.089   7.737  12.098  0.00  0.00    +0.000 A 
ATOM      8  C   UNL     1      46.326   8.914  12.186  0.00  0.00    +0.000 A 
ATOM      9  C   UNL     1      46.911  10.163  11.993  0.00  0.00    +0.000 A 
ATOM     10  F   UNL     1      46.159  11.264  12.121  0.00  0.00    +0.000 F 
ATOM     11  C   UNL     1      48.260  10.289  11.708  0.00  0.00    +0.000 A 
ATOM     12  C   UNL     1      49.017   9.137  11.582  0.00  0.00    +0.000 A 
ATOM     13  F   UNL     1      50.326   9.234  11.320  0.00  0.00    +0.000 F 
ATOM     14  C   UNL     1      48.447   7.877  11.756  0.00  0.00    +0.000 A 
ENDBRANCH   5   7
BRANCH   1  15
ATOM     15  C   UNL     1      43.631   4.182  11.282  0.00  0.00    +0.000 C 
BRANCH  15  16
ATOM     16  O   UNL     1      43.681   4.634   9.923  0.00  0.00    +0.000 OA
BRANCH  16  20
ATOM     17  C   UNL     1      46.395   2.438   7.742  0.00  0.00    +0.000 A 
ATOM     18  C   UNL     1      45.553   1.788   8.646  0.00  0.00    +0.000 A 
ATOM     19  C   UNL     1      44.634   2.541   9.383  0.00  0.00    +0.000 A 
ATOM     20  C   UNL     1      44.595   3.912   9.183  0.00  0.00    +0.000 A 
ATOM     21  N   UNL     1      45.401   4.564   8.318  0.00  0.00    +0.000 NA
ATOM     22  C   UNL     1      46.288   3.816   7.623  0.00  0.00    +0.000 A 
BRANCH  17  24
ATOM     23  N   UNL     1      48.478   2.487   6.491  0.00  0.00    +0.000 N 
ATOM     24  C   UNL     1      47.411   1.750   6.922  0.00  0.00    +0.000 C 
ATOM     25  O   UNL     1      47.326   0.556   6.671  0.00  0.00    +0.000 OA
ATOM     26  H   UNL     1      49.217   1.966   6.033  0.00  0.00    +0.000 HD
ATOM     27  H   UNL     1      48.716   3.385   6.886  0.00  0.00    +0.000 HD
ENDBRANCH  17  24
ENDBRANCH  16  20
ENDBRANCH  15  16
ENDBRANCH   1  15
TORSDOF 5
ENDMDL
MODEL 3
REMARK VINA RESULT:    -8.856      2.892      4.127
REMARK INTER + INTRA:         -12.370
REMARK INTER:                 -11.601
REMARK INTRA:                  -0.769
REMARK UNBOUND:                -0.925
REMARK  Name = 
REMARK  5 active torsions:
REMARK  status: ('A' for Active; 'I' for Inactive)
REMARK    1  A    between atoms: C_2  and  C_4
REMARK    2  A    between atoms: C_7  and  O_8
REMARK    3  A    between atoms: O_8  and  C_9
REMARK    4  A    between atoms: C_9  and  C_10
REMARK    5  A    between atoms: C_14  and  C_15
REMARK                            x       y       z     vdW  Elec       q    Type
REMARK                         _______ _______ _______ _____ _____    ______ ____
ROOT
ATOM      1  C   UNL     1      45.155   5.191  11.953  0.00  0.00    +0.000 A 
ATOM      2  C   UNL     1      45.458   6.440  11.400  0.00  0.00    +0.000 A 
ATOM      3  C   UNL     1      46.471   7.221  11.948  0.00  0.00    +0.000 A 
ATOM      4  C   UNL     1      47.171   6.775  13.074  0.00  0.00    +0.000 A 
ATOM      5  C   UNL     1      46.858   5.551  13.690  0.00  0.00    +0.000 A 
ATOM      6  C   UNL     1      45.856   4.766  13.092  0.00  0.00    +0.000 A 
ENDROOT
BRANCH   5   7
ATOM      7  C   UNL     1      47.457   5.139  14.980  0.00  0.00    +0.000 A 
ATOM      8  C   UNL     1      48.373   5.970  15.650  0.00  0.00    +0.000 A 
ATOM      9  C   UNL     1      48.814   5.661  16.934  0.00  0.00    +0.000 A 
ATOM     10  F   UNL     1      49.658   6.495  17.554  0.00  0.00    +0.000 F 
ATOM     11  C   UNL     1      48.368   4.529  17.595  0.00  0.00    +0.000 A 
ATOM     12  C   UNL     1      47.494   3.682  16.935  0.00  0.00    +0.000 A 
ATOM     13  F   UNL     1      47.039   2.588  17.558  0.00  0.00    +0.000 F 
ATOM     14  C   UNL     1      47.052   3.965  15.643  0.00  0.00    +0.000 A 
ENDBRANCH   5   7
BRANCH   1  15
ATOM     15  C   UNL     1      43.990   4.389  11.420  0.00  0.00    +0.000 C 
BRANCH  15  16
ATOM     16  O   UNL     1      43.788   4.644  10.025  0.00  0.00    +0.000 OA
BRANCH  16  20
ATOM     17  C   UNL     1      46.396   2.436   7.728  0.00  0.00    +0.000 A 
ATOM     18  C   UNL     1      45.593   1.790   8.670  0.00  0.00    +0.000 A 
ATOM     19  C   UNL     1      44.710   2.547   9.446  0.00  0.00    +0.000 A 
ATOM     20  C   UNL     1      44.666   3.918   9.246  0.00  0.00    +0.000 A 
ATOM     21  N   UNL     1      45.435   4.566   8.344  0.00  0.00    +0.000 NA
ATOM     22  C   UNL     1      46.288   3.814   7.612  0.00  0.00    +0.000 A 
BRANCH  17  24
ATOM     23  N   UNL     1      48.471   2.450   6.463  0.00  0.00    +0.000 N 
ATOM     24  C   UNL     1      47.373   1.744   6.865  0.00  0.00    +0.000 C 
ATOM     25  O   UNL     1      47.229   0.569   6.555  0.00  0.00    +0.000 OA
ATOM     26  H   UNL     1      49.180   1.919   5.972  0.00  0.00    +0.000 HD
ATOM     27  H   UNL     1      48.754   3.314   6.900  0.00  0.00    +0.000 HD
ENDBRANCH  17  24
ENDBRANCH  16  20
ENDBRANCH  15  16
ENDBRANCH   1  15
TORSDOF 5
ENDMDL
MODEL 4
REMARK VINA RESULT:    -8.727      2.985      4.311
REMARK INTER + INTRA:         -12.203
REMARK INTER:                 -11.568
REMARK INTRA:                  -0.634
REMARK UNBOUND:                -0.925
REMARK  Name = 
REMARK  5 active torsions:
REMARK  status: ('A' for Active; 'I' for Inactive)
REMARK    1  A    between atoms: C_2  and  C_4
REMARK    2  A    between atoms: C_7  and  O_8
REMARK    3  A    between atoms: O_8  and  C_9
REMARK    4  A    between atoms: C_9  and  C_10
REMARK    5  A    between atoms: C_14  and  C_15
REMARK                            x       y       z     vdW  Elec       q    Type
REMARK                         _______ _______ _______ _____ _____    ______ ____
ROOT
ATOM      1  C   UNL     1      45.420   5.156  12.028  0.00  0.00    +0.000 A 
ATOM      2  C   UNL     1      45.897   6.305  11.389  0.00  0.00    +0.000 A 
ATOM      3  C   UNL     1      46.959   7.020  11.934  0.00  0.00    +0.000 A 
ATOM      4  C   UNL     1      47.535   6.610  13.141  0.00  0.00    +0.000 A 
ATOM      5  C   UNL     1      47.047   5.493  13.840  0.00  0.00    +0.000 A 
ATOM      6  C   UNL     1      45.998   4.768  13.245  0.00  0.00    +0.000 A 
ENDROOT
BRANCH   5   7
ATOM      7  C   UNL     1      47.517   5.142  15.201  0.00  0.00    +0.000 A 
ATOM      8  C   UNL     1      47.067   3.974  15.842  0.00  0.00    +0.000 A 
ATOM      9  C   UNL     1      47.626   3.560  17.048  0.00  0.00    +0.000 A 
ATOM     10  F   UNL     1      47.197   2.423  17.611  0.00  0.00    +0.000 F 
ATOM     11  C   UNL     1      48.639   4.280  17.657  0.00  0.00    +0.000 A 
ATOM     12  C   UNL     1      49.067   5.451  17.056  0.00  0.00    +0.000 A 
ATOM     13  F   UNL     1      50.055   6.159  17.619  0.00  0.00    +0.000 F 
ATOM     14  C   UNL     1      48.511   5.892  15.856  0.00  0.00    +0.000 A 
ENDBRANCH   5   7
BRANCH   1  15
ATOM     15  C   UNL     1      44.204   4.439  11.487  0.00  0.00    +0.000 C 
BRANCH  15  16
ATOM     16  O   UNL     1      44.003   4.743  10.101  0.00  0.00    +0.000 OA
BRANCH  16  20
ATOM     17  C   UNL     1      46.445   2.439   7.718  0.00  0.00    +0.000 A 
ATOM     18  C   UNL     1      45.652   1.824   8.688  0.00  0.00    +0.000 A 
ATOM     19  C   UNL     1      44.826   2.613   9.493  0.00  0.00    +0.000 A 
ATOM     20  C   UNL     1      44.826   3.985   9.293  0.00  0.00    +0.000 A 
ATOM     21  N   UNL     1      45.586   4.603   8.365  0.00  0.00    +0.000 NA
ATOM     22  C   UNL     1      46.385   3.821   7.604  0.00  0.00    +0.000 A 
BRANCH  17  24
ATOM     23  N   UNL     1      48.480   2.372   6.392  0.00  0.00    +0.000 N 
ATOM     24  C   UNL     1      47.365   1.712   6.822  0.00  0.00    +0.000 C 
ATOM     25  O   UNL     1      47.161   0.547   6.509  0.00  0.00    +0.000 OA
ATOM     26  H   UNL     1      49.151   1.814   5.877  0.00  0.00    +0.000 HD
ATOM     27  H   UNL     1      48.814   3.220   6.826  0.00  0.00    +0.000 HD
ENDBRANCH  17  24
ENDBRANCH  16  20
ENDBRANCH  15  16
ENDBRANCH   1  15
TORSDOF 5
ENDMDL
MODEL 5
REMARK VINA RESULT:    -8.231      1.802      2.679
REMARK INTER + INTRA:         -11.563
REMARK INTER:                 -10.795
REMARK INTRA:                  -0.768
REMARK UNBOUND:                -0.925
REMARK  Name = 
REMARK  5 active torsions:
REMARK  status: ('A' for Active; 'I' for Inactive)
REMARK    1  A    between atoms: C_2  and  C_4
REMARK    2  A    between atoms: C_7  and  O_8
REMARK    3  A    between atoms: O_8  and  C_9
REMARK    4  A    between atoms: C_9  and  C_10
REMARK    5  A    between atoms: C_14  and  C_15
REMARK                            x       y       z     vdW  Elec       q    Type
REMARK                         _______ _______ _______ _____ _____    ______ ____
ROOT
ATOM      1  C   UNL     1      44.589   5.067  11.534  0.00  0.00    +0.000 A 
ATOM      2  C   UNL     1      43.654   6.095  11.371  0.00  0.00    +0.000 A 
ATOM      3  C   UNL     1      44.049   7.425  11.472  0.00  0.00    +0.000 A 
ATOM      4  C   UNL     1      45.379   7.741  11.769  0.00  0.00    +0.000 A 
ATOM      5  C   UNL     1      46.335   6.736  11.994  0.00  0.00    +0.000 A 
ATOM      6  C   UNL     1      45.915   5.402  11.846  0.00  0.00    +0.000 A 
ENDROOT
BRANCH   5   7
ATOM      7  C   UNL     1      47.701   7.038  12.482  0.00  0.00    +0.000 A 
ATOM      8  C   UNL     1      48.583   7.824  11.720  0.00  0.00    +0.000 A 
ATOM      9  C   UNL     1      49.804   8.241  12.243  0.00  0.00    +0.000 A 
ATOM     10  F   UNL     1      50.602   9.019  11.501  0.00  0.00    +0.000 F 
ATOM     11  C   UNL     1      50.191   7.899  13.529  0.00  0.00    +0.000 A 
ATOM     12  C   UNL     1      49.349   7.096  14.277  0.00  0.00    +0.000 A 
ATOM     13  F   UNL     1      49.695   6.762  15.527  0.00  0.00    +0.000 F 
ATOM     14  C   UNL     1      48.129   6.654  13.767  0.00  0.00    +0.000 A 
ENDBRANCH   5   7
BRANCH   1  15
ATOM     15  C   UNL     1      44.139   3.625  11.521  0.00  0.00    +0.000 C 
BRANCH  15  16
ATOM     16  O   UNL     1      43.574   3.274  10.252  0.00  0.00    +0.000 OA
BRANCH  16  20
ATOM     17  C   UNL     1      46.492   2.606   7.426  0.00  0.00    +0.000 A 
ATOM     18  C   UNL     1      45.913   3.872   7.531  0.00  0.00    +0.000 A 
ATOM     19  C   UNL     1      44.923   4.091   8.493  0.00  0.00    +0.000 A 
ATOM     20  C   UNL     1      44.554   3.034   9.312  0.00  0.00    +0.000 A 
ATOM     21  N   UNL     1      45.097   1.800   9.228  0.00  0.00    +0.000 NA
ATOM     22  C   UNL     1      46.046   1.610   8.283  0.00  0.00    +0.000 A 
BRANCH  17  24
ATOM     23  N   UNL     1      47.565   2.965   5.275  0.00  0.00    +0.000 N 
ATOM     24  C   UNL     1      47.534   2.255   6.442  0.00  0.00    +0.000 C 
ATOM     25  O   UNL     1      48.367   1.390   6.676  0.00  0.00    +0.000 OA
ATOM     26  H   UNL     1      48.358   2.786   4.671  0.00  0.00    +0.000 HD
ATOM     27  H   UNL     1      47.076   3.841   5.157  0.00  0.00    +0.000 HD
ENDBRANCH  17  24
ENDBRANCH  16  20
ENDBRANCH  15  16
ENDBRANCH   1  15
TORSDOF 5
ENDMDL
MODEL 6
REMARK VINA RESULT:    -8.130      3.992      7.062
REMARK INTER + INTRA:         -11.431
REMARK INTER:                 -10.494
REMARK INTRA:                  -0.938
REMARK UNBOUND:                -0.925
REMARK  Name = 
REMARK  5 active torsions:
REMARK  status: ('A' for Active; 'I' for Inactive)
REMARK    1  A    between atoms: C_2  and  C_4
REMARK    2  A    between atoms: C_7  and  O_8
REMARK    3  A    between atoms: O_8  and  C_9
REMARK    4  A    between atoms: C_9  and  C_10
REMARK    5  A    between atoms: C_14  and  C_15
REMARK                            x       y       z     vdW  Elec       q    Type
REMARK                         _______ _______ _______ _____ _____    ______ ____
ROOT
ATOM      1  C   UNL     1      44.355   5.597  11.288  0.00  0.00    +0.000 A 
ATOM      2  C   UNL     1      43.397   4.893  12.025  0.00  0.00    +0.000 A 
ATOM      3  C   UNL     1      43.170   3.544  11.770  0.00  0.00    +0.000 A 
ATOM      4  C   UNL     1      43.875   2.893  10.753  0.00  0.00    +0.000 A 
ATOM      5  C   UNL     1      44.805   3.581   9.954  0.00  0.00    +0.000 A 
ATOM      6  C   UNL     1      45.042   4.933  10.261  0.00  0.00    +0.000 A 
ENDROOT
BRANCH   5   7
ATOM      7  C   UNL     1      45.432   2.966   8.762  0.00  0.00    +0.000 A 
ATOM      8  C   UNL     1      45.793   3.749   7.651  0.00  0.00    +0.000 A 
ATOM      9  C   UNL     1      46.525   3.204   6.598  0.00  0.00    +0.000 A 
ATOM     10  F   UNL     1      46.881   3.990   5.574  0.00  0.00    +0.000 F 
ATOM     11  C   UNL     1      46.922   1.878   6.609  0.00  0.00    +0.000 A 
ATOM     12  C   UNL     1      46.544   1.086   7.679  0.00  0.00    +0.000 A 
ATOM     13  F   UNL     1      46.927  -0.197   7.718  0.00  0.00    +0.000 F 
ATOM     14  C   UNL     1      45.798   1.607   8.735  0.00  0.00    +0.000 A 
ENDBRANCH   5   7
BRANCH   1  15
ATOM     15  C   UNL     1      44.530   7.083  11.499  0.00  0.00    +0.000 C 
BRANCH  15  16
ATOM     16  O   UNL     1      45.190   7.351  12.742  0.00  0.00    +0.000 OA
BRANCH  16  20
ATOM     17  C   UNL     1      49.242   7.871  12.236  0.00  0.00    +0.000 A 
ATOM     18  C   UNL     1      48.763   6.667  12.755  0.00  0.00    +0.000 A 
ATOM     19  C   UNL     1      47.385   6.498  12.924  0.00  0.00    +0.000 A 
ATOM     20  C   UNL     1      46.545   7.541  12.564  0.00  0.00    +0.000 A 
ATOM     21  N   UNL     1      46.985   8.715  12.063  0.00  0.00    +0.000 NA
ATOM     22  C   UNL     1      48.322   8.858  11.918  0.00  0.00    +0.000 A 
BRANCH  17  24
ATOM     23  N   UNL     1      51.347   7.408  11.112  0.00  0.00    +0.000 N 
ATOM     24  C   UNL     1      50.673   8.166  12.027  0.00  0.00    +0.000 C 
ATOM     25  O   UNL     1      51.227   9.083  12.618  0.00  0.00    +0.000 OA
ATOM     26  H   UNL     1      52.292   7.707  10.903  0.00  0.00    +0.000 HD
ATOM     27  H   UNL     1      50.878   6.832  10.429  0.00  0.00    +0.000 HD
ENDBRANCH  17  24
ENDBRANCH  16  20
ENDBRANCH  15  16
ENDBRANCH   1  15
TORSDOF 5
ENDMDL
MODEL 7
REMARK VINA RESULT:    -8.095      5.244      8.363
REMARK INTER + INTRA:         -11.386
REMARK INTER:                 -10.756
REMARK INTRA:                  -0.630
REMARK UNBOUND:                -0.925
REMARK  Name = 
REMARK  5 active torsions:
REMARK  status: ('A' for Active; 'I' for Inactive)
REMARK    1  A    between atoms: C_2  and  C_4
REMARK    2  A    between atoms: C_7  and  O_8
REMARK    3  A    between atoms: O_8  and  C_9
REMARK    4  A    between atoms: C_9  and  C_10
REMARK    5  A    between atoms: C_14  and  C_15
REMARK                            x       y       z     vdW  Elec       q    Type
REMARK                         _______ _______ _______ _____ _____    ______ ____
ROOT
ATOM      1  C   UNL     1      45.075   4.788  12.763  0.00  0.00    +0.000 A 
ATOM      2  C   UNL     1      43.783   5.325  12.773  0.00  0.00    +0.000 A 
ATOM      3  C   UNL     1      42.931   5.121  11.692  0.00  0.00    +0.000 A 
ATOM      4  C   UNL     1      43.373   4.403  10.576  0.00  0.00    +0.000 A 
ATOM      5  C   UNL     1      44.682   3.896  10.505  0.00  0.00    +0.000 A 
ATOM      6  C   UNL     1      45.507   4.085  11.629  0.00  0.00    +0.000 A 
ENDROOT
BRANCH   5   7
ATOM      7  C   UNL     1      45.231   3.291   9.270  0.00  0.00    +0.000 A 
ATOM      8  C   UNL     1      45.687   4.097   8.212  0.00  0.00    +0.000 A 
ATOM      9  C   UNL     1      46.349   3.540   7.121  0.00  0.00    +0.000 A 
ATOM     10  F   UNL     1      46.800   4.343   6.150  0.00  0.00    +0.000 F 
ATOM     11  C   UNL     1      46.580   2.177   7.039  0.00  0.00    +0.000 A 
ATOM     12  C   UNL     1      46.105   1.367   8.056  0.00  0.00    +0.000 A 
ATOM     13  F   UNL     1      46.328   0.047   8.005  0.00  0.00    +0.000 F 
ATOM     14  C   UNL     1      45.427   1.903   9.149  0.00  0.00    +0.000 A 
ENDBRANCH   5   7
BRANCH   1  15
ATOM     15  C   UNL     1      46.030   5.094  13.893  0.00  0.00    +0.000 C 
BRANCH  15  16
ATOM     16  O   UNL     1      46.587   3.891  14.434  0.00  0.00    +0.000 OA
BRANCH  16  20
ATOM     17  C   UNL     1      48.312   4.582  18.109  0.00  0.00    +0.000 A 
ATOM     18  C   UNL     1      48.626   5.416  17.034  0.00  0.00    +0.000 A 
ATOM     19  C   UNL     1      48.036   5.174  15.790  0.00  0.00    +0.000 A 
ATOM     20  C   UNL     1      47.155   4.110  15.673  0.00  0.00    +0.000 A 
ATOM     21  N   UNL     1      46.838   3.288  16.696  0.00  0.00    +0.000 NA
ATOM     22  C   UNL     1      47.429   3.535  17.888  0.00  0.00    +0.000 A 
BRANCH  17  24
ATOM     23  N   UNL     1      48.525   3.807  20.402  0.00  0.00    +0.000 N 
ATOM     24  C   UNL     1      48.882   4.731  19.462  0.00  0.00    +0.000 C 
ATOM     25  O   UNL     1      49.677   5.623  19.723  0.00  0.00    +0.000 OA
ATOM     26  H   UNL     1      49.020   3.863  21.284  0.00  0.00    +0.000 HD
ATOM     27  H   UNL     1      48.091   2.927  20.165  0.00  0.00    +0.000 HD
ENDBRANCH  17  24
ENDBRANCH  16  20
ENDBRANCH  15  16
ENDBRANCH   1  15
TORSDOF 5
ENDMDL
MODEL 8
REMARK VINA RESULT:    -7.483      4.172      7.424
REMARK INTER + INTRA:         -10.596
REMARK INTER:                 -10.194
REMARK INTRA:                  -0.402
REMARK UNBOUND:                -0.925
REMARK  Name = 
REMARK  5 active torsions:
REMARK  status: ('A' for Active; 'I' for Inactive)
REMARK    1  A    between atoms: C_2  and  C_4
REMARK    2  A    between atoms: C_7  and  O_8
REMARK    3  A    between atoms: O_8  and  C_9
REMARK    4  A    between atoms: C_9  and  C_10
REMARK    5  A    between atoms: C_14  and  C_15
REMARK                            x       y       z     vdW  Elec       q    Type
REMARK                         _______ _______ _______ _____ _____    ______ ____
ROOT
ATOM      1  C   UNL     1      44.222   5.172  11.238  0.00  0.00    +0.000 A 
ATOM      2  C   UNL     1      43.349   4.362  11.972  0.00  0.00    +0.000 A 
ATOM      3  C   UNL     1      43.244   3.005  11.684  0.00  0.00    +0.000 A 
ATOM      4  C   UNL     1      43.987   2.450  10.637  0.00  0.00    +0.000 A 
ATOM      5  C   UNL     1      44.832   3.242   9.842  0.00  0.00    +0.000 A 
ATOM      6  C   UNL     1      44.947   4.602  10.181  0.00  0.00    +0.000 A 
ENDROOT
BRANCH   5   7
ATOM      7  C   UNL     1      45.490   2.720   8.622  0.00  0.00    +0.000 A 
ATOM      8  C   UNL     1      45.820   3.576   7.556  0.00  0.00    +0.000 A 
ATOM      9  C   UNL     1      46.579   3.121   6.481  0.00  0.00    +0.000 A 
ATOM     10  F   UNL     1      46.905   3.976   5.502  0.00  0.00    +0.000 F 
ATOM     11  C   UNL     1      47.033   1.815   6.423  0.00  0.00    +0.000 A 
ATOM     12  C   UNL     1      46.686   0.951   7.446  0.00  0.00    +0.000 A 
ATOM     13  F   UNL     1      47.124  -0.315   7.418  0.00  0.00    +0.000 F 
ATOM     14  C   UNL     1      45.914   1.382   8.524  0.00  0.00    +0.000 A 
ENDBRANCH   5   7
BRANCH   1  15
ATOM     15  C   UNL     1      44.261   6.662  11.487  0.00  0.00    +0.000 C 
BRANCH  15  16
ATOM     16  O   UNL     1      45.533   7.210  11.122  0.00  0.00    +0.000 OA
BRANCH  16  20
ATOM     17  C   UNL     1      48.155   7.119  14.294  0.00  0.00    +0.000 A 
ATOM     18  C   UNL     1      47.732   5.920  13.717  0.00  0.00    +0.000 A 
ATOM     19  C   UNL     1      46.841   5.959  12.640  0.00  0.00    +0.000 A 
ATOM     20  C   UNL     1      46.413   7.197  12.185  0.00  0.00    +0.000 A 
ATOM     21  N   UNL     1      46.806   8.369  12.728  0.00  0.00    +0.000 NA
ATOM     22  C   UNL     1      47.660   8.305  13.774  0.00  0.00    +0.000 A 
BRANCH  17  24
ATOM     23  N   UNL     1      49.016   8.315  16.226  0.00  0.00    +0.000 N 
ATOM     24  C   UNL     1      49.080   7.199  15.441  0.00  0.00    +0.000 C 
ATOM     25  O   UNL     1      49.848   6.284  15.707  0.00  0.00    +0.000 OA
ATOM     26  H   UNL     1      49.575   8.293  17.071  0.00  0.00    +0.000 HD
ATOM     27  H   UNL     1      48.237   8.957  16.199  0.00  0.00    +0.000 HD
ENDBRANCH  17  24
ENDBRANCH  16  20
ENDBRANCH  15  16
ENDBRANCH   1  15
TORSDOF 5
ENDMDL
MODEL 9
REMARK VINA RESULT:    -7.303      5.693      7.867
REMARK INTER + INTRA:         -10.363
REMARK INTER:                  -9.526
REMARK INTRA:                  -0.838
REMARK UNBOUND:                -0.925
REMARK  Name = 
REMARK  5 active torsions:
REMARK  status: ('A' for Active; 'I' for Inactive)
REMARK    1  A    between atoms: C_2  and  C_4
REMARK    2  A    between atoms: C_7  and  O_8
REMARK    3  A    between atoms: O_8  and  C_9
REMARK    4  A    between atoms: C_9  and  C_10
REMARK    5  A    between atoms: C_14  and  C_15
REMARK                            x       y       z     vdW  Elec       q    Type
REMARK                         _______ _______ _______ _____ _____    ______ ____
ROOT
ATOM      1  C   UNL     1      48.176   6.573  14.394  0.00  0.00    +0.000 A 
ATOM      2  C   UNL     1      48.964   7.381  13.568  0.00  0.00    +0.000 A 
ATOM      3  C   UNL     1      48.629   7.550  12.228  0.00  0.00    +0.000 A 
ATOM      4  C   UNL     1      47.520   6.886  11.692  0.00  0.00    +0.000 A 
ATOM      5  C   UNL     1      46.737   6.023  12.478  0.00  0.00    +0.000 A 
ATOM      6  C   UNL     1      47.077   5.903  13.838  0.00  0.00    +0.000 A 
ENDROOT
BRANCH   5   7
ATOM      7  C   UNL     1      45.671   5.174  11.898  0.00  0.00    +0.000 A 
ATOM      8  C   UNL     1      45.384   5.215  10.522  0.00  0.00    +0.000 A 
ATOM      9  C   UNL     1      44.497   4.307   9.948  0.00  0.00    +0.000 A 
ATOM     10  F   UNL     1      44.275   4.354   8.628  0.00  0.00    +0.000 F 
ATOM     11  C   UNL     1      43.869   3.336  10.710  0.00  0.00    +0.000 A 
ATOM     12  C   UNL     1      44.114   3.306  12.071  0.00  0.00    +0.000 A 
ATOM     13  F   UNL     1      43.529   2.368  12.827  0.00  0.00    +0.000 F 
ATOM     14  C   UNL     1      44.987   4.215  12.668  0.00  0.00    +0.000 A 
ENDBRANCH   5   7
BRANCH   1  15
ATOM     15  C   UNL     1      48.597   6.313  15.822  0.00  0.00    +0.000 C 
BRANCH  15  16
ATOM     16  O   UNL     1      48.013   5.102  16.317  0.00  0.00    +0.000 OA
BRANCH  16  20
ATOM     17  C   UNL     1      50.863   2.305  17.321  0.00  0.00    +0.000 A 
ATOM     18  C   UNL     1      49.616   1.880  16.859  0.00  0.00    +0.000 A 
ATOM     19  C   UNL     1      48.653   2.836  16.521  0.00  0.00    +0.000 A 
ATOM     20  C   UNL     1      48.980   4.177  16.656  0.00  0.00    +0.000 A 
ATOM     21  N   UNL     1      50.178   4.612  17.103  0.00  0.00    +0.000 NA
ATOM     22  C   UNL     1      51.089   3.669  17.434  0.00  0.00    +0.000 A 
BRANCH  17  24
ATOM     23  N   UNL     1      51.594   0.153  18.182  0.00  0.00    +0.000 N 
ATOM     24  C   UNL     1      51.949   1.389  17.720  0.00  0.00    +0.000 C 
ATOM     25  O   UNL     1      53.125   1.706  17.603  0.00  0.00    +0.000 OA
ATOM     26  H   UNL     1      52.358  -0.495  18.337  0.00  0.00    +0.000 HD
ATOM     27  H   UNL     1      50.672  -0.235  18.049  0.00  0.00    +0.000 HD
ENDBRANCH  17  24
ENDBRANCH  16  20
ENDBRANCH  15  16
ENDBRANCH   1  15
TORSDOF 5
ENDMDL
