MODEL 1
REMARK VINA RESULT:    -6.984      0.000      0.000
REMARK INTER + INTRA:         -10.571
REMARK INTER:                  -9.434
REMARK INTRA:                  -1.137
REMARK UNBOUND:                -1.137
REMARK  Name = 
REMARK  9 active torsions:
REMARK  status: ('A' for Active; 'I' for Inactive)
REMARK    1  A    between atoms: C_1  and  C_2
REMARK    2  A    between atoms: C_2  and  C_3
REMARK    3  A    between atoms: C_2  and  C_4
REMARK    4  A    between atoms: C_2  and  N_5
REMARK    5  A    between atoms: C_8  and  N_9
REMARK    6  A    between atoms: C_8  and  C_19
REMARK    7  A    between atoms: N_9  and  C_10
REMARK    8  A    between atoms: C_13  and  C_14
REMARK    9  A    between atoms: C_23  and  C_24
REMARK                            x       y       z     vdW  Elec       q    Type
REMARK                         _______ _______ _______ _____ _____    ______ ____
ROOT
ATOM      1  N   UNL     1      47.569   7.312  12.208  0.00  0.00    +0.000 NA
ATOM      2  C   UNL     1      46.212   7.795  11.951  0.00  0.00    +0.000 C 
ATOM      3  C   UNL     1      45.310   7.058  12.931  0.00  0.00    +0.000 C 
ATOM      4  C   UNL     1      45.894   5.638  13.016  0.00  0.00    +0.000 C 
ATOM      5  C   UNL     1      47.400   5.890  12.592  0.00  0.00    +0.000 C 
ENDROOT
BRANCH   4   6
ATOM      6  C   UNL     1      45.235   4.627  12.064  0.00  0.00    +0.000 A 
ATOM      7  C   UNL     1      44.186   3.798  12.465  0.00  0.00    +0.000 A 
ATOM      8  N   UNL     1      43.562   2.889  11.682  0.00  0.00    +0.000 NA
ATOM      9  C   UNL     1      43.988   2.784  10.410  0.00  0.00    +0.000 A 
ATOM     10  C   UNL     1      45.011   3.552   9.880  0.00  0.00    +0.000 A 
ATOM     11  C   UNL     1      45.635   4.485  10.724  0.00  0.00    +0.000 A 
BRANCH  10  12
ATOM     12  C   UNL     1      45.419   3.373   8.451  0.00  0.00    +0.000 C 
ATOM     13  F   UNL     1      44.368   3.342   7.585  0.00  0.00    +0.000 F 
ATOM     14  F   UNL     1      46.229   4.376   8.013  0.00  0.00    +0.000 F 
ATOM     15  F   UNL     1      46.105   2.217   8.243  0.00  0.00    +0.000 F 
ENDBRANCH  10  12
ENDBRANCH   4   6
BRANCH   1  17
ATOM     16  C   UNL     1      49.163   9.287  12.271  0.00  0.00    +0.000 C 
ATOM     17  C   UNL     1      48.421   8.187  13.051  0.00  0.00    +0.000 C 
ATOM     18  C   UNL     1      49.474   7.314  13.784  0.00  0.00    +0.000 C 
ATOM     19  C   UNL     1      47.598   8.865  14.172  0.00  0.00    +0.000 C 
ENDBRANCH   1  17
BRANCH   4  20
ATOM     20  N   UNL     1      45.887   5.144  14.420  0.00  0.00    +0.000 N 
ATOM     21  H   UNL     1      45.008   4.691  14.666  0.00  0.00    +0.000 HD
BRANCH  20  22
ATOM     22  C   UNL     1      46.940   4.598  15.137  0.00  0.00    +0.000 A 
ATOM     23  C   UNL     1      47.592   5.218  16.202  0.00  0.00    +0.000 A 
ATOM     24  C   UNL     1      48.625   4.569  16.886  0.00  0.00    +0.000 A 
ATOM     25  C   UNL     1      48.962   3.276  16.511  0.00  0.00    +0.000 A 
ATOM     26  N   UNL     1      48.328   2.596  15.521  0.00  0.00    +0.000 NA
ATOM     27  C   UNL     1      47.339   3.273  14.884  0.00  0.00    +0.000 A 
BRANCH  25  28
ATOM     28  C   UNL     1      50.078   2.565  17.218  0.00  0.00    +0.000 C 
ATOM     29  N   UNL     1      50.542   3.177  18.356  0.00  0.00    +0.000 N 
ATOM     30  O   UNL     1      50.538   1.503  16.826  0.00  0.00    +0.000 OA
ATOM     31  H   UNL     1      50.139   4.059  18.649  0.00  0.00    +0.000 HD
ATOM     32  H   UNL     1      51.293   2.751  18.877  0.00  0.00    +0.000 HD
ENDBRANCH  25  28
ENDBRANCH  20  22
ENDBRANCH   4  20
TORSDOF 6
ENDMDL
MODEL 2
REMARK VINA RESULT:    -6.921      3.940      6.756
REMARK INTER + INTRA:         -10.486
REMARK INTER:                  -9.319
REMARK INTRA:                  -1.167
REMARK UNBOUND:                -1.137
REMARK  Name = 
REMARK  9 active torsions:
REMARK  status: ('A' for Active; 'I' for Inactive)
REMARK    1  A    between atoms: C_1  and  C_2
REMARK    2  A    between atoms: C_2  and  C_3
REMARK    3  A    between atoms: C_2  and  C_4
REMARK    4  A    between atoms: C_2  and  N_5
REMARK    5  A    between atoms: C_8  and  N_9
REMARK    6  A    between atoms: C_8  and  C_19
REMARK    7  A    between atoms: N_9  and  C_10
REMARK    8  A    between atoms: C_13  and  C_14
REMARK    9  A    between atoms: C_23  and  C_24
REMARK                            x       y       z     vdW  Elec       q    Type
REMARK                         _______ _______ _______ _____ _____    ______ ____
ROOT
ATOM      1  N   UNL     1      49.164   9.134  13.404  0.00  0.00    +0.000 NA
ATOM      2  C   UNL     1      49.899   7.980  12.884  0.00  0.00    +0.000 C 
ATOM      3  C   UNL     1      48.927   6.809  12.922  0.00  0.00    +0.000 C 
ATOM      4  C   UNL     1      48.114   7.010  14.212  0.00  0.00    +0.000 C 
ATOM      5  C   UNL     1      48.257   8.573  14.434  0.00  0.00    +0.000 C 
ENDROOT
BRANCH   4   6
ATOM      6  C   UNL     1      48.663   6.249  15.429  0.00  0.00    +0.000 A 
ATOM      7  C   UNL     1      49.736   6.724  16.185  0.00  0.00    +0.000 A 
ATOM      8  N   UNL     1      50.268   6.107  17.264  0.00  0.00    +0.000 NA
ATOM      9  C   UNL     1      49.709   4.942  17.639  0.00  0.00    +0.000 A 
ATOM     10  C   UNL     1      48.634   4.364  16.985  0.00  0.00    +0.000 A 
ATOM     11  C   UNL     1      48.109   5.034  15.868  0.00  0.00    +0.000 A 
BRANCH  10  12
ATOM     12  C   UNL     1      48.071   3.066  17.473  0.00  0.00    +0.000 C 
ATOM     13  F   UNL     1      48.555   1.979  16.809  0.00  0.00    +0.000 F 
ATOM     14  F   UNL     1      48.341   2.846  18.789  0.00  0.00    +0.000 F 
ATOM     15  F   UNL     1      46.717   3.002  17.350  0.00  0.00    +0.000 F 
ENDBRANCH  10  12
ENDBRANCH   4   6
BRANCH   1  17
ATOM     16  C   UNL     1      49.342  10.024  11.034  0.00  0.00    +0.000 C 
ATOM     17  C   UNL     1      48.610  10.062  12.387  0.00  0.00    +0.000 C 
ATOM     18  C   UNL     1      48.675  11.512  12.937  0.00  0.00    +0.000 C 
ATOM     19  C   UNL     1      47.110   9.787  12.130  0.00  0.00    +0.000 C 
ENDBRANCH   1  17
BRANCH   4  20
ATOM     20  N   UNL     1      46.675   6.707  13.985  0.00  0.00    +0.000 N 
ATOM     21  H   UNL     1      46.078   7.514  14.159  0.00  0.00    +0.000 HD
BRANCH  20  22
ATOM     22  C   UNL     1      46.119   5.882  13.020  0.00  0.00    +0.000 A 
ATOM     23  C   UNL     1      45.809   4.534  13.198  0.00  0.00    +0.000 A 
ATOM     24  C   UNL     1      45.218   3.792  12.170  0.00  0.00    +0.000 A 
ATOM     25  C   UNL     1      44.906   4.435  10.981  0.00  0.00    +0.000 A 
ATOM     26  N   UNL     1      45.130   5.757  10.764  0.00  0.00    +0.000 NA
ATOM     27  C   UNL     1      45.713   6.429  11.789  0.00  0.00    +0.000 A 
BRANCH  25  28
ATOM     28  C   UNL     1      44.287   3.657   9.857  0.00  0.00    +0.000 C 
ATOM     29  N   UNL     1      44.112   4.348   8.684  0.00  0.00    +0.000 N 
ATOM     30  O   UNL     1      43.972   2.481   9.963  0.00  0.00    +0.000 OA
ATOM     31  H   UNL     1      44.382   5.324   8.634  0.00  0.00    +0.000 HD
ATOM     32  H   UNL     1      43.699   3.883   7.891  0.00  0.00    +0.000 HD
ENDBRANCH  25  28
ENDBRANCH  20  22
ENDBRANCH   4  20
TORSDOF 6
ENDMDL
MODEL 3
REMARK VINA RESULT:    -6.583      1.972      2.267
REMARK INTER + INTRA:         -10.029
REMARK INTER:                  -8.879
REMARK INTRA:                  -1.150
REMARK UNBOUND:                -1.137
REMARK  Name = 
REMARK  9 active torsions:
REMARK  status: ('A' for Active; 'I' for Inactive)
REMARK    1  A    between atoms: C_1  and  C_2
REMARK    2  A    between atoms: C_2  and  C_3
REMARK    3  A    between atoms: C_2  and  C_4
REMARK    4  A    between atoms: C_2  and  N_5
REMARK    5  A    between atoms: C_8  and  N_9
REMARK    6  A    between atoms: C_8  and  C_19
REMARK    7  A    between atoms: N_9  and  C_10
REMARK    8  A    between atoms: C_13  and  C_14
REMARK    9  A    between atoms: C_23  and  C_24
REMARK                            x       y       z     vdW  Elec       q    Type
REMARK                         _______ _______ _______ _____ _____    ______ ____
ROOT
ATOM      1  N   UNL     1      47.518   8.952  11.745  0.00  0.00    +0.000 NA
ATOM      2  C   UNL     1      46.416   9.149  12.688  0.00  0.00    +0.000 C 
ATOM      3  C   UNL     1      46.454   7.959  13.636  0.00  0.00    +0.000 C 
ATOM      4  C   UNL     1      46.846   6.762  12.754  0.00  0.00    +0.000 C 
ATOM      5  C   UNL     1      47.601   7.482  11.562  0.00  0.00    +0.000 C 
ENDROOT
BRANCH   4   6
ATOM      6  C   UNL     1      45.653   5.956  12.218  0.00  0.00    +0.000 A 
ATOM      7  C   UNL     1      44.435   5.883  12.898  0.00  0.00    +0.000 A 
ATOM      8  N   UNL     1      43.347   5.195  12.486  0.00  0.00    +0.000 NA
ATOM      9  C   UNL     1      43.451   4.532  11.319  0.00  0.00    +0.000 A 
ATOM     10  C   UNL     1      44.595   4.528  10.540  0.00  0.00    +0.000 A 
ATOM     11  C   UNL     1      45.704   5.255  11.001  0.00  0.00    +0.000 A 
BRANCH  10  12
ATOM     12  C   UNL     1      44.621   3.766   9.252  0.00  0.00    +0.000 C 
ATOM     13  F   UNL     1      44.109   2.508   9.354  0.00  0.00    +0.000 F 
ATOM     14  F   UNL     1      43.901   4.380   8.272  0.00  0.00    +0.000 F 
ATOM     15  F   UNL     1      45.879   3.616   8.757  0.00  0.00    +0.000 F 
ENDBRANCH  10  12
ENDBRANCH   4   6
BRANCH   1  17
ATOM     16  C   UNL     1      49.134  10.738  10.947  0.00  0.00    +0.000 C 
ATOM     17  C   UNL     1      48.760   9.711  12.030  0.00  0.00    +0.000 C 
ATOM     18  C   UNL     1      49.939   8.713  12.185  0.00  0.00    +0.000 C 
ATOM     19  C   UNL     1      48.670  10.453  13.385  0.00  0.00    +0.000 C 
ENDBRANCH   1  17
BRANCH   4  20
ATOM     20  N   UNL     1      47.823   5.884  13.455  0.00  0.00    +0.000 N 
ATOM     21  H   UNL     1      48.770   5.999  13.098  0.00  0.00    +0.000 HD
BRANCH  20  22
ATOM     22  C   UNL     1      47.841   5.527  14.794  0.00  0.00    +0.000 A 
ATOM     23  C   UNL     1      47.166   4.437  15.342  0.00  0.00    +0.000 A 
ATOM     24  C   UNL     1      47.274   4.139  16.705  0.00  0.00    +0.000 A 
ATOM     25  C   UNL     1      48.101   4.925  17.495  0.00  0.00    +0.000 A 
ATOM     26  N   UNL     1      48.828   5.964  17.011  0.00  0.00    +0.000 NA
ATOM     27  C   UNL     1      48.682   6.217  15.686  0.00  0.00    +0.000 A 
BRANCH  25  28
ATOM     28  C   UNL     1      48.220   4.635  18.962  0.00  0.00    +0.000 C 
ATOM     29  N   UNL     1      48.350   3.310  19.295  0.00  0.00    +0.000 N 
ATOM     30  O   UNL     1      48.221   5.514  19.811  0.00  0.00    +0.000 OA
ATOM     31  H   UNL     1      48.342   2.608  18.564  0.00  0.00    +0.000 HD
ATOM     32  H   UNL     1      48.433   3.048  20.265  0.00  0.00    +0.000 HD
ENDBRANCH  25  28
ENDBRANCH  20  22
ENDBRANCH   4  20
TORSDOF 6
ENDMDL
MODEL 4
REMARK VINA RESULT:    -6.463      3.466      6.768
REMARK INTER + INTRA:          -9.868
REMARK INTER:                  -8.513
REMARK INTRA:                  -1.355
REMARK UNBOUND:                -1.137
REMARK  Name = 
REMARK  9 active torsions:
REMARK  status: ('A' for Active; 'I' for Inactive)
REMARK    1  A    between atoms: C_1  and  C_2
REMARK    2  A    between atoms: C_2  and  C_3
REMARK    3  A    between atoms: C_2  and  C_4
REMARK    4  A    between atoms: C_2  and  N_5
REMARK    5  A    between atoms: C_8  and  N_9
REMARK    6  A    between atoms: C_8  and  C_19
REMARK    7  A    between atoms: N_9  and  C_10
REMARK    8  A    between atoms: C_13  and  C_14
REMARK    9  A    between atoms: C_23  and  C_24
REMARK                            x       y       z     vdW  Elec       q    Type
REMARK                         _______ _______ _______ _____ _____    ______ ____
ROOT
ATOM      1  N   UNL     1      49.147   6.122  15.685  0.00  0.00    +0.000 NA
ATOM      2  C   UNL     1      49.330   7.496  16.152  0.00  0.00    +0.000 C 
ATOM      3  C   UNL     1      48.222   8.314  15.504  0.00  0.00    +0.000 C 
ATOM      4  C   UNL     1      48.067   7.723  14.093  0.00  0.00    +0.000 C 
ATOM      5  C   UNL     1      48.633   6.257  14.301  0.00  0.00    +0.000 C 
ENDROOT
BRANCH   4   6
ATOM      6  C   UNL     1      48.874   8.456  13.011  0.00  0.00    +0.000 A 
ATOM      7  C   UNL     1      48.554   9.749  12.588  0.00  0.00    +0.000 A 
ATOM      8  N   UNL     1      49.219  10.451  11.644  0.00  0.00    +0.000 NA
ATOM      9  C   UNL     1      50.280   9.852  11.071  0.00  0.00    +0.000 A 
ATOM     10  C   UNL     1      50.711   8.579  11.403  0.00  0.00    +0.000 A 
ATOM     11  C   UNL     1      49.996   7.881  12.388  0.00  0.00    +0.000 A 
BRANCH  10  12
ATOM     12  C   UNL     1      51.905   7.991  10.718  0.00  0.00    +0.000 C 
ATOM     13  F   UNL     1      52.314   8.703   9.631  0.00  0.00    +0.000 F 
ATOM     14  F   UNL     1      52.989   7.915  11.539  0.00  0.00    +0.000 F 
ATOM     15  F   UNL     1      51.682   6.725  10.270  0.00  0.00    +0.000 F 
ENDBRANCH  10  12
ENDBRANCH   4   6
BRANCH   1  17
ATOM     16  C   UNL     1      47.899   5.892  17.883  0.00  0.00    +0.000 C 
ATOM     17  C   UNL     1      48.453   5.205  16.622  0.00  0.00    +0.000 C 
ATOM     18  C   UNL     1      49.440   4.093  17.067  0.00  0.00    +0.000 C 
ATOM     19  C   UNL     1      47.286   4.464  15.927  0.00  0.00    +0.000 C 
ENDBRANCH   1  17
BRANCH   4  20
ATOM     20  N   UNL     1      46.631   7.613  13.718  0.00  0.00    +0.000 N 
ATOM     21  H   UNL     1      46.156   8.514  13.741  0.00  0.00    +0.000 HD
BRANCH  20  22
ATOM     22  C   UNL     1      46.058   6.779  12.771  0.00  0.00    +0.000 A 
ATOM     23  C   UNL     1      46.406   6.741  11.421  0.00  0.00    +0.000 A 
ATOM     24  C   UNL     1      45.792   5.837  10.547  0.00  0.00    +0.000 A 
ATOM     25  C   UNL     1      44.857   4.948  11.059  0.00  0.00    +0.000 A 
ATOM     26  N   UNL     1      44.517   4.896  12.372  0.00  0.00    +0.000 NA
ATOM     27  C   UNL     1      45.135   5.799  13.176  0.00  0.00    +0.000 A 
BRANCH  25  28
ATOM     28  C   UNL     1      44.172   3.981  10.139  0.00  0.00    +0.000 C 
ATOM     29  N   UNL     1      44.123   4.353   8.819  0.00  0.00    +0.000 N 
ATOM     30  O   UNL     1      43.703   2.921  10.526  0.00  0.00    +0.000 OA
ATOM     31  H   UNL     1      44.520   5.240   8.535  0.00  0.00    +0.000 HD
ATOM     32  H   UNL     1      43.675   3.747   8.150  0.00  0.00    +0.000 HD
ENDBRANCH  25  28
ENDBRANCH  20  22
ENDBRANCH   4  20
TORSDOF 6
ENDMDL
MODEL 5
REMARK VINA RESULT:    -6.071      2.394      3.233
REMARK INTER + INTRA:          -9.338
REMARK INTER:                  -8.739
REMARK INTRA:                  -0.599
REMARK UNBOUND:                -1.137
REMARK  Name = 
REMARK  9 active torsions:
REMARK  status: ('A' for Active; 'I' for Inactive)
REMARK    1  A    between atoms: C_1  and  C_2
REMARK    2  A    between atoms: C_2  and  C_3
REMARK    3  A    between atoms: C_2  and  C_4
REMARK    4  A    between atoms: C_2  and  N_5
REMARK    5  A    between atoms: C_8  and  N_9
REMARK    6  A    between atoms: C_8  and  C_19
REMARK    7  A    between atoms: N_9  and  C_10
REMARK    8  A    between atoms: C_13  and  C_14
REMARK    9  A    between atoms: C_23  and  C_24
REMARK                            x       y       z     vdW  Elec       q    Type
REMARK                         _______ _______ _______ _____ _____    ______ ____
ROOT
ATOM      1  N   UNL     1      49.284   7.948  11.977  0.00  0.00    +0.000 NA
ATOM      2  C   UNL     1      47.968   8.552  11.761  0.00  0.00    +0.000 C 
ATOM      3  C   UNL     1      47.225   8.428  13.083  0.00  0.00    +0.000 C 
ATOM      4  C   UNL     1      47.644   7.061  13.648  0.00  0.00    +0.000 C 
ATOM      5  C   UNL     1      49.039   6.837  12.929  0.00  0.00    +0.000 C 
ENDROOT
BRANCH   4   6
ATOM      6  C   UNL     1      46.681   5.914  13.306  0.00  0.00    +0.000 A 
ATOM      7  C   UNL     1      47.005   4.574  13.530  0.00  0.00    +0.000 A 
ATOM      8  N   UNL     1      46.208   3.518  13.253  0.00  0.00    +0.000 NA
ATOM      9  C   UNL     1      45.000   3.788  12.724  0.00  0.00    +0.000 A 
ATOM     10  C   UNL     1      44.549   5.069  12.460  0.00  0.00    +0.000 A 
ATOM     11  C   UNL     1      45.405   6.140  12.761  0.00  0.00    +0.000 A 
BRANCH  10  12
ATOM     12  C   UNL     1      43.188   5.278  11.873  0.00  0.00    +0.000 C 
ATOM     13  F   UNL     1      43.091   6.401  11.108  0.00  0.00    +0.000 F 
ATOM     14  F   UNL     1      42.807   4.248  11.068  0.00  0.00    +0.000 F 
ATOM     15  F   UNL     1      42.219   5.392  12.822  0.00  0.00    +0.000 F 
ENDBRANCH  10  12
ENDBRANCH   4   6
BRANCH   1  17
ATOM     16  C   UNL     1      50.622   9.191  13.740  0.00  0.00    +0.000 C 
ATOM     17  C   UNL     1      50.395   8.894  12.247  0.00  0.00    +0.000 C 
ATOM     18  C   UNL     1      50.106  10.235  11.522  0.00  0.00    +0.000 C 
ATOM     19  C   UNL     1      51.728   8.383  11.651  0.00  0.00    +0.000 C 
ENDBRANCH   1  17
BRANCH   4  20
ATOM     20  N   UNL     1      47.889   7.144  15.114  0.00  0.00    +0.000 N 
ATOM     21  H   UNL     1      47.082   7.503  15.620  0.00  0.00    +0.000 HD
BRANCH  20  22
ATOM     22  C   UNL     1      48.622   6.275  15.907  0.00  0.00    +0.000 A 
ATOM     23  C   UNL     1      48.116   5.129  16.519  0.00  0.00    +0.000 A 
ATOM     24  C   UNL     1      48.945   4.294  17.276  0.00  0.00    +0.000 A 
ATOM     25  C   UNL     1      50.294   4.606  17.370  0.00  0.00    +0.000 A 
ATOM     26  N   UNL     1      50.860   5.674  16.751  0.00  0.00    +0.000 NA
ATOM     27  C   UNL     1      50.010   6.456  16.038  0.00  0.00    +0.000 A 
BRANCH  25  28
ATOM     28  C   UNL     1      51.201   3.736  18.189  0.00  0.00    +0.000 C 
ATOM     29  N   UNL     1      51.316   2.436  17.765  0.00  0.00    +0.000 N 
ATOM     30  O   UNL     1      51.816   4.151  19.161  0.00  0.00    +0.000 OA
ATOM     31  H   UNL     1      50.789   2.125  16.957  0.00  0.00    +0.000 HD
ATOM     32  H   UNL     1      51.909   1.798  18.273  0.00  0.00    +0.000 HD
ENDBRANCH  25  28
ENDBRANCH  20  22
ENDBRANCH   4  20
TORSDOF 6
ENDMDL
MODEL 6
REMARK VINA RESULT:    -5.960      2.693      5.208
REMARK INTER + INTRA:          -9.187
REMARK INTER:                  -7.887
REMARK INTRA:                  -1.300
REMARK UNBOUND:                -1.137
REMARK  Name = 
REMARK  9 active torsions:
REMARK  status: ('A' for Active; 'I' for Inactive)
REMARK    1  A    between atoms: C_1  and  C_2
REMARK    2  A    between atoms: C_2  and  C_3
REMARK    3  A    between atoms: C_2  and  C_4
REMARK    4  A    between atoms: C_2  and  N_5
REMARK    5  A    between atoms: C_8  and  N_9
REMARK    6  A    between atoms: C_8  and  C_19
REMARK    7  A    between atoms: N_9  and  C_10
REMARK    8  A    between atoms: C_13  and  C_14
REMARK    9  A    between atoms: C_23  and  C_24
REMARK                            x       y       z     vdW  Elec       q    Type
REMARK                         _______ _______ _______ _____ _____    ______ ____
ROOT
ATOM      1  N   UNL     1      44.643   5.988  11.690  0.00  0.00    +0.000 NA
ATOM      2  C   UNL     1      45.855   5.447  11.072  0.00  0.00    +0.000 C 
ATOM      3  C   UNL     1      46.756   5.012  12.218  0.00  0.00    +0.000 C 
ATOM      4  C   UNL     1      46.550   6.075  13.310  0.00  0.00    +0.000 C 
ATOM      5  C   UNL     1      45.112   6.630  12.942  0.00  0.00    +0.000 C 
ENDROOT
BRANCH   4   6
ATOM      6  C   UNL     1      47.581   7.213  13.285  0.00  0.00    +0.000 A 
ATOM      7  C   UNL     1      47.440   8.366  14.061  0.00  0.00    +0.000 A 
ATOM      8  N   UNL     1      48.307   9.403  14.088  0.00  0.00    +0.000 NA
ATOM      9  C   UNL     1      49.397   9.308  13.304  0.00  0.00    +0.000 A 
ATOM     10  C   UNL     1      49.665   8.217  12.494  0.00  0.00    +0.000 A 
ATOM     11  C   UNL     1      48.742   7.160  12.493  0.00  0.00    +0.000 A 
BRANCH  10  12
ATOM     12  C   UNL     1      50.906   8.193  11.657  0.00  0.00    +0.000 C 
ATOM     13  F   UNL     1      52.053   8.119  12.388  0.00  0.00    +0.000 F 
ATOM     14  F   UNL     1      50.937   7.128  10.809  0.00  0.00    +0.000 F 
ATOM     15  F   UNL     1      51.033   9.300  10.877  0.00  0.00    +0.000 F 
ENDBRANCH  10  12
ENDBRANCH   4   6
BRANCH   1  17
ATOM     16  C   UNL     1      43.435   4.182  13.001  0.00  0.00    +0.000 C 
ATOM     17  C   UNL     1      43.478   5.070  11.746  0.00  0.00    +0.000 C 
ATOM     18  C   UNL     1      43.500   4.149  10.497  0.00  0.00    +0.000 C 
ATOM     19  C   UNL     1      42.143   5.847  11.661  0.00  0.00    +0.000 C 
ENDBRANCH   1  17
BRANCH   4  20
ATOM     20  N   UNL     1      46.469   5.445  14.656  0.00  0.00    +0.000 N 
ATOM     21  H   UNL     1      45.571   4.992  14.818  0.00  0.00    +0.000 HD
BRANCH  20  22
ATOM     22  C   UNL     1      47.477   4.804  15.359  0.00  0.00    +0.000 A 
ATOM     23  C   UNL     1      48.303   5.407  16.307  0.00  0.00    +0.000 A 
ATOM     24  C   UNL     1      49.273   4.666  16.990  0.00  0.00    +0.000 A 
ATOM     25  C   UNL     1      49.370   3.305  16.736  0.00  0.00    +0.000 A 
ATOM     26  N   UNL     1      48.559   2.647  15.868  0.00  0.00    +0.000 NA
ATOM     27  C   UNL     1      47.641   3.413  15.226  0.00  0.00    +0.000 A 
BRANCH  25  28
ATOM     28  C   UNL     1      50.413   2.491  17.443  0.00  0.00    +0.000 C 
ATOM     29  N   UNL     1      51.054   3.122  18.480  0.00  0.00    +0.000 N 
ATOM     30  O   UNL     1      50.671   1.336  17.136  0.00  0.00    +0.000 OA
ATOM     31  H   UNL     1      50.817   4.081  18.704  0.00  0.00    +0.000 HD
ATOM     32  H   UNL     1      51.767   2.630  18.995  0.00  0.00    +0.000 HD
ENDBRANCH  25  28
ENDBRANCH  20  22
ENDBRANCH   4  20
TORSDOF 6
ENDMDL
MODEL 7
REMARK VINA RESULT:    -5.858      2.125      3.021
REMARK INTER + INTRA:          -9.050
REMARK INTER:                  -8.094
REMARK INTRA:                  -0.956
REMARK UNBOUND:                -1.137
REMARK  Name = 
REMARK  9 active torsions:
REMARK  status: ('A' for Active; 'I' for Inactive)
REMARK    1  A    between atoms: C_1  and  C_2
REMARK    2  A    between atoms: C_2  and  C_3
REMARK    3  A    between atoms: C_2  and  C_4
REMARK    4  A    between atoms: C_2  and  N_5
REMARK    5  A    between atoms: C_8  and  N_9
REMARK    6  A    between atoms: C_8  and  C_19
REMARK    7  A    between atoms: N_9  and  C_10
REMARK    8  A    between atoms: C_13  and  C_14
REMARK    9  A    between atoms: C_23  and  C_24
REMARK                            x       y       z     vdW  Elec       q    Type
REMARK                         _______ _______ _______ _____ _____    ______ ____
ROOT
ATOM      1  N   UNL     1      49.692   8.163  11.865  0.00  0.00    +0.000 NA
ATOM      2  C   UNL     1      48.641   9.158  11.647  0.00  0.00    +0.000 C 
ATOM      3  C   UNL     1      47.777   9.141  12.900  0.00  0.00    +0.000 C 
ATOM      4  C   UNL     1      47.717   7.663  13.320  0.00  0.00    +0.000 C 
ATOM      5  C   UNL     1      49.042   7.094  12.661  0.00  0.00    +0.000 C 
ENDROOT
BRANCH   4   6
ATOM      6  C   UNL     1      46.491   6.905  12.788  0.00  0.00    +0.000 A 
ATOM      7  C   UNL     1      45.352   7.564  12.320  0.00  0.00    +0.000 A 
ATOM      8  N   UNL     1      44.241   6.961  11.840  0.00  0.00    +0.000 NA
ATOM      9  C   UNL     1      44.242   5.616  11.806  0.00  0.00    +0.000 A 
ATOM     10  C   UNL     1      45.308   4.841  12.229  0.00  0.00    +0.000 A 
ATOM     11  C   UNL     1      46.444   5.502  12.721  0.00  0.00    +0.000 A 
BRANCH  10  12
ATOM     12  C   UNL     1      45.225   3.348  12.152  0.00  0.00    +0.000 C 
ATOM     13  F   UNL     1      45.372   2.860  10.889  0.00  0.00    +0.000 F 
ATOM     14  F   UNL     1      46.185   2.737  12.899  0.00  0.00    +0.000 F 
ATOM     15  F   UNL     1      44.035   2.865  12.600  0.00  0.00    +0.000 F 
ENDBRANCH  10  12
ENDBRANCH   4   6
BRANCH   1  17
ATOM     16  C   UNL     1      51.121  10.226  12.243  0.00  0.00    +0.000 C 
ATOM     17  C   UNL     1      51.005   8.693  12.310  0.00  0.00    +0.000 C 
ATOM     18  C   UNL     1      52.123   8.079  11.425  0.00  0.00    +0.000 C 
ATOM     19  C   UNL     1      51.333   8.247  13.754  0.00  0.00    +0.000 C 
ENDBRANCH   1  17
BRANCH   4  20
ATOM     20  N   UNL     1      47.841   7.525  14.797  0.00  0.00    +0.000 N 
ATOM     21  H   UNL     1      47.076   7.979  15.293  0.00  0.00    +0.000 HD
BRANCH  20  22
ATOM     22  C   UNL     1      48.318   6.440  15.515  0.00  0.00    +0.000 A 
ATOM     23  C   UNL     1      47.670   5.212  15.637  0.00  0.00    +0.000 A 
ATOM     24  C   UNL     1      48.250   4.163  16.358  0.00  0.00    +0.000 A 
ATOM     25  C   UNL     1      49.506   4.355  16.917  0.00  0.00    +0.000 A 
ATOM     26  N   UNL     1      50.214   5.506  16.786  0.00  0.00    +0.000 NA
ATOM     27  C   UNL     1      49.603   6.495  16.085  0.00  0.00    +0.000 A 
BRANCH  25  28
ATOM     28  C   UNL     1      50.142   3.251  17.710  0.00  0.00    +0.000 C 
ATOM     29  N   UNL     1      50.910   3.653  18.774  0.00  0.00    +0.000 N 
ATOM     30  O   UNL     1      49.980   2.069  17.445  0.00  0.00    +0.000 OA
ATOM     31  H   UNL     1      51.024   4.642  18.962  0.00  0.00    +0.000 HD
ATOM     32  H   UNL     1      51.366   2.960  19.346  0.00  0.00    +0.000 HD
ENDBRANCH  25  28
ENDBRANCH  20  22
ENDBRANCH   4  20
TORSDOF 6
ENDMDL
MODEL 8
REMARK VINA RESULT:    -5.749      3.843      6.917
REMARK INTER + INTRA:          -8.902
REMARK INTER:                  -7.614
REMARK INTRA:                  -1.288
REMARK UNBOUND:                -1.137
REMARK  Name = 
REMARK  9 active torsions:
REMARK  status: ('A' for Active; 'I' for Inactive)
REMARK    1  A    between atoms: C_1  and  C_2
REMARK    2  A    between atoms: C_2  and  C_3
REMARK    3  A    between atoms: C_2  and  C_4
REMARK    4  A    between atoms: C_2  and  N_5
REMARK    5  A    between atoms: C_8  and  N_9
REMARK    6  A    between atoms: C_8  and  C_19
REMARK    7  A    between atoms: N_9  and  C_10
REMARK    8  A    between atoms: C_13  and  C_14
REMARK    9  A    between atoms: C_23  and  C_24
REMARK                            x       y       z     vdW  Elec       q    Type
REMARK                         _______ _______ _______ _____ _____    ______ ____
ROOT
ATOM      1  N   UNL     1      49.596   8.040  16.579  0.00  0.00    +0.000 NA
ATOM      2  C   UNL     1      48.685   9.111  16.173  0.00  0.00    +0.000 C 
ATOM      3  C   UNL     1      47.904   8.572  14.983  0.00  0.00    +0.000 C 
ATOM      4  C   UNL     1      48.921   7.735  14.188  0.00  0.00    +0.000 C 
ATOM      5  C   UNL     1      49.971   7.362  15.315  0.00  0.00    +0.000 C 
ENDROOT
BRANCH   4   6
ATOM      6  C   UNL     1      49.612   8.498  13.048  0.00  0.00    +0.000 A 
ATOM      7  C   UNL     1      49.328   9.836  12.767  0.00  0.00    +0.000 A 
ATOM      8  N   UNL     1      49.897  10.567  11.781  0.00  0.00    +0.000 NA
ATOM      9  C   UNL     1      50.817   9.950  11.017  0.00  0.00    +0.000 A 
ATOM     10  C   UNL     1      51.199   8.631  11.194  0.00  0.00    +0.000 A 
ATOM     11  C   UNL     1      50.586   7.905  12.227  0.00  0.00    +0.000 A 
BRANCH  10  12
ATOM     12  C   UNL     1      52.235   8.025  10.299  0.00  0.00    +0.000 C 
ATOM     13  F   UNL     1      51.769   6.982   9.557  0.00  0.00    +0.000 F 
ATOM     14  F   UNL     1      52.735   8.922   9.405  0.00  0.00    +0.000 F 
ATOM     15  F   UNL     1      53.305   7.542  10.987  0.00  0.00    +0.000 F 
ENDBRANCH  10  12
ENDBRANCH   4   6
BRANCH   1  17
ATOM     16  C   UNL     1      48.018   7.843  18.557  0.00  0.00    +0.000 C 
ATOM     17  C   UNL     1      49.157   7.217  17.733  0.00  0.00    +0.000 C 
ATOM     18  C   UNL     1      50.367   6.981  18.676  0.00  0.00    +0.000 C 
ATOM     19  C   UNL     1      48.706   5.808  17.282  0.00  0.00    +0.000 C 
ENDBRANCH   1  17
BRANCH   4  20
ATOM     20  N   UNL     1      48.302   6.472  13.699  0.00  0.00    +0.000 N 
ATOM     21  H   UNL     1      48.465   5.691  14.333  0.00  0.00    +0.000 HD
BRANCH  20  22
ATOM     22  C   UNL     1      47.101   6.317  13.026  0.00  0.00    +0.000 A 
ATOM     23  C   UNL     1      46.828   6.805  11.749  0.00  0.00    +0.000 A 
ATOM     24  C   UNL     1      45.593   6.567  11.138  0.00  0.00    +0.000 A 
ATOM     25  C   UNL     1      44.655   5.797  11.812  0.00  0.00    +0.000 A 
ATOM     26  N   UNL     1      44.880   5.244  13.032  0.00  0.00    +0.000 NA
ATOM     27  C   UNL     1      46.090   5.513  13.584  0.00  0.00    +0.000 A 
BRANCH  25  28
ATOM     28  C   UNL     1      43.316   5.541  11.185  0.00  0.00    +0.000 C 
ATOM     29  N   UNL     1      42.265   6.233  11.732  0.00  0.00    +0.000 N 
ATOM     30  O   UNL     1      43.164   4.782  10.238  0.00  0.00    +0.000 OA
ATOM     31  H   UNL     1      42.428   6.851  12.518  0.00  0.00    +0.000 HD
ATOM     32  H   UNL     1      41.338   6.104  11.357  0.00  0.00    +0.000 HD
ENDBRANCH  25  28
ENDBRANCH  20  22
ENDBRANCH   4  20
TORSDOF 6
ENDMDL
MODEL 9
REMARK VINA RESULT:    -5.645      4.327      6.774
REMARK INTER + INTRA:          -8.762
REMARK INTER:                  -7.677
REMARK INTRA:                  -1.086
REMARK UNBOUND:                -1.137
REMARK  Name = 
REMARK  9 active torsions:
REMARK  status: ('A' for Active; 'I' for Inactive)
REMARK    1  A    between atoms: C_1  and  C_2
REMARK    2  A    between atoms: C_2  and  C_3
REMARK    3  A    between atoms: C_2  and  C_4
REMARK    4  A    between atoms: C_2  and  N_5
REMARK    5  A    between atoms: C_8  and  N_9
REMARK    6  A    between atoms: C_8  and  C_19
REMARK    7  A    between atoms: N_9  and  C_10
REMARK    8  A    between atoms: C_13  and  C_14
REMARK    9  A    between atoms: C_23  and  C_24
REMARK                            x       y       z     vdW  Elec       q    Type
REMARK                         _______ _______ _______ _____ _____    ______ ____
ROOT
ATOM      1  N   UNL     1      45.214   3.833  11.658  0.00  0.00    +0.000 NA
ATOM      2  C   UNL     1      44.286   3.797  12.789  0.00  0.00    +0.000 C 
ATOM      3  C   UNL     1      44.630   5.000  13.655  0.00  0.00    +0.000 C 
ATOM      4  C   UNL     1      46.162   5.110  13.590  0.00  0.00    +0.000 C 
ATOM      5  C   UNL     1      46.473   4.381  12.218  0.00  0.00    +0.000 C 
ENDROOT
BRANCH   4   6
ATOM      6  C   UNL     1      46.894   4.408  14.744  0.00  0.00    +0.000 A 
ATOM      7  C   UNL     1      47.481   3.149  14.598  0.00  0.00    +0.000 A 
ATOM      8  N   UNL     1      48.138   2.474  15.568  0.00  0.00    +0.000 NA
ATOM      9  C   UNL     1      48.238   3.074  16.769  0.00  0.00    +0.000 A 
ATOM     10  C   UNL     1      47.711   4.324  17.046  0.00  0.00    +0.000 A 
ATOM     11  C   UNL     1      47.035   4.994  16.013  0.00  0.00    +0.000 A 
BRANCH  10  12
ATOM     12  C   UNL     1      47.872   4.919  18.410  0.00  0.00    +0.000 C 
ATOM     13  F   UNL     1      46.729   5.476  18.899  0.00  0.00    +0.000 F 
ATOM     14  F   UNL     1      48.260   3.997  19.335  0.00  0.00    +0.000 F 
ATOM     15  F   UNL     1      48.810   5.904  18.445  0.00  0.00    +0.000 F 
ENDBRANCH  10  12
ENDBRANCH   4   6
BRANCH   1  17
ATOM     16  C   UNL     1      44.486   3.376   9.270  0.00  0.00    +0.000 C 
ATOM     17  C   UNL     1      44.680   4.405  10.397  0.00  0.00    +0.000 C 
ATOM     18  C   UNL     1      45.650   5.506   9.891  0.00  0.00    +0.000 C 
ATOM     19  C   UNL     1      43.330   5.123  10.631  0.00  0.00    +0.000 C 
ENDBRANCH   1  17
BRANCH   4  20
ATOM     20  N   UNL     1      46.587   6.531  13.463  0.00  0.00    +0.000 N 
ATOM     21  H   UNL     1      46.190   7.120  14.194  0.00  0.00    +0.000 HD
BRANCH  20  22
ATOM     22  C   UNL     1      47.817   7.020  13.051  0.00  0.00    +0.000 A 
ATOM     23  C   UNL     1      48.111   7.469  11.764  0.00  0.00    +0.000 A 
ATOM     24  C   UNL     1      49.376   7.978  11.454  0.00  0.00    +0.000 A 
ATOM     25  C   UNL     1      50.324   8.066  12.464  0.00  0.00    +0.000 A 
ATOM     26  N   UNL     1      50.083   7.699  13.748  0.00  0.00    +0.000 NA
ATOM     27  C   UNL     1      48.843   7.204  13.995  0.00  0.00    +0.000 A 
BRANCH  25  28
ATOM     28  C   UNL     1      51.694   8.592  12.152  0.00  0.00    +0.000 C 
ATOM     29  N   UNL     1      52.712   8.083  12.919  0.00  0.00    +0.000 N 
ATOM     30  O   UNL     1      51.904   9.405  11.264  0.00  0.00    +0.000 OA
ATOM     31  H   UNL     1      52.501   7.412  13.649  0.00  0.00    +0.000 HD
ATOM     32  H   UNL     1      53.657   8.397  12.761  0.00  0.00    +0.000 HD
ENDBRANCH  25  28
ENDBRANCH  20  22
ENDBRANCH   4  20
TORSDOF 6
ENDMDL
