MODEL 1
REMARK VINA RESULT:    -7.699      0.000      0.000
REMARK INTER + INTRA:         -11.839
REMARK INTER:                 -10.624
REMARK INTRA:                  -1.215
REMARK UNBOUND:                -1.215
REMARK  Name = 
REMARK  7 active torsions:
REMARK  status: ('A' for Active; 'I' for Inactive)
REMARK    1  A    between atoms: N_1  and  C_2
REMARK    2  A    between atoms: C_2  and  N_3
REMARK    3  A    between atoms: C_2  and  C_16
REMARK    4  A    between atoms: C_4  and  C_6
REMARK    5  A    between atoms: C_19  and  C_20
REMARK    6  A    between atoms: C_20  and  N_21
REMARK    7  A    between atoms: C_22  and  C_24
REMARK                            x       y       z     vdW  Elec       q    Type
REMARK                         _______ _______ _______ _____ _____    ______ ____
ROOT
ATOM      1  C   UNL     1      47.450   3.357  16.508  0.00  0.00    +0.000 C 
ENDROOT
BRANCH   1   2
ATOM      2  C   UNL     1      48.823   3.824  16.960  0.00  0.00    +0.000 A 
ATOM      3  C   UNL     1      49.157   5.189  16.941  0.00  0.00    +0.000 A 
ATOM      4  C   UNL     1      50.447   5.616  17.278  0.00  0.00    +0.000 A 
ATOM      5  C   UNL     1      51.440   4.690  17.630  0.00  0.00    +0.000 A 
ATOM      6  C   UNL     1      51.100   3.334  17.692  0.00  0.00    +0.000 A 
ATOM      7  C   UNL     1      49.810   2.910  17.362  0.00  0.00    +0.000 A 
BRANCH   5   8
ATOM      8  C   UNL     1      52.854   5.123  17.912  0.00  0.00    +0.000 C 
BRANCH   8   9
ATOM      9  N   UNL     1      53.688   4.025  18.338  0.00  0.00    +0.000 N 
ATOM     10  C   UNL     1      54.797   3.662  17.611  0.00  0.00    +0.000 C 
ATOM     11  O   UNL     1      55.120   4.240  16.575  0.00  0.00    +0.000 OA
ATOM     12  H   UNL     1      53.341   3.415  19.072  0.00  0.00    +0.000 HD
BRANCH  10  13
ATOM     13  C   UNL     1      55.572   2.439  18.090  0.00  0.00    +0.000 C 
ATOM     14  C   UNL     1      55.391   1.264  17.156  0.00  0.00    +0.000 C 
ATOM     15  C   UNL     1      54.122   0.618  17.672  0.00  0.00    +0.000 C 
ATOM     16  O   UNL     1      54.003   0.967  19.062  0.00  0.00    +0.000 OA
ATOM     17  C   UNL     1      55.077   1.866  19.400  0.00  0.00    +0.000 C 
ENDBRANCH  10  13
ENDBRANCH   8   9
ENDBRANCH   5   8
ENDBRANCH   1   2
BRANCH   1  18
ATOM     18  N   UNL     1      46.830   4.310  15.633  0.00  0.00    +0.000 N 
ATOM     19  C   UNL     1      46.815   4.142  14.269  0.00  0.00    +0.000 C 
ATOM     20  O   UNL     1      47.240   3.121  13.732  0.00  0.00    +0.000 OA
ATOM     21  H   UNL     1      46.833   5.268  15.972  0.00  0.00    +0.000 HD
BRANCH  19  22
ATOM     22  C   UNL     1      46.152   5.183  13.478  0.00  0.00    +0.000 A 
ATOM     23  C   UNL     1      46.768   6.418  13.330  0.00  0.00    +0.000 A 
ATOM     24  S   UNL     1      45.874   7.519  12.384  0.00  0.00    +0.000 S 
ATOM     25  C   UNL     1      44.613   6.395  12.172  0.00  0.00    +0.000 A 
ATOM     26  N   UNL     1      43.490   6.727  11.484  0.00  0.00    +0.000 NA
ATOM     27  C   UNL     1      42.606   5.787  11.427  0.00  0.00    +0.000 A 
ATOM     28  N   UNL     1      42.753   4.538  11.975  0.00  0.00    +0.000 N 
ATOM     29  C   UNL     1      43.889   4.146  12.651  0.00  0.00    +0.000 A 
ATOM     30  O   UNL     1      44.029   3.009  13.084  0.00  0.00    +0.000 OA
ATOM     31  C   UNL     1      44.894   5.183  12.778  0.00  0.00    +0.000 A 
ATOM     32  H   UNL     1      42.031   3.842  11.876  0.00  0.00    +0.000 HD
ENDBRANCH  19  22
ENDBRANCH   1  18
BRANCH   1  33
ATOM     33  N   UNL     1      46.573   3.210  17.655  0.00  0.00    +0.000 NA
ATOM     34  H   UNL     1      45.979   4.045  17.665  0.00  0.00    +0.000 HD
ATOM     35  H   UNL     1      47.142   3.285  18.493  0.00  0.00    +0.000 HD
ENDBRANCH   1  33
TORSDOF 7
ENDMDL
MODEL 2
REMARK VINA RESULT:    -7.645      4.273      9.284
REMARK INTER + INTRA:         -11.765
REMARK INTER:                 -10.537
REMARK INTRA:                  -1.228
REMARK UNBOUND:                -1.215
REMARK  Name = 
REMARK  7 active torsions:
REMARK  status: ('A' for Active; 'I' for Inactive)
REMARK    1  A    between atoms: N_1  and  C_2
REMARK    2  A    between atoms: C_2  and  N_3
REMARK    3  A    between atoms: C_2  and  C_16
REMARK    4  A    between atoms: C_4  and  C_6
REMARK    5  A    between atoms: C_19  and  C_20
REMARK    6  A    between atoms: C_20  and  N_21
REMARK    7  A    between atoms: C_22  and  C_24
REMARK                            x       y       z     vdW  Elec       q    Type
REMARK                         _______ _______ _______ _____ _____    ______ ____
ROOT
ATOM      1  C   UNL     1      46.399   7.919  12.856  0.00  0.00    +0.000 C 
ENDROOT
BRANCH   1   2
ATOM      2  C   UNL     1      45.716   6.842  12.032  0.00  0.00    +0.000 A 
ATOM      3  C   UNL     1      44.544   6.222  12.495  0.00  0.00    +0.000 A 
ATOM      4  C   UNL     1      43.956   5.172  11.779  0.00  0.00    +0.000 A 
ATOM      5  C   UNL     1      44.532   4.706  10.588  0.00  0.00    +0.000 A 
ATOM      6  C   UNL     1      45.675   5.349  10.101  0.00  0.00    +0.000 A 
ATOM      7  C   UNL     1      46.257   6.401  10.813  0.00  0.00    +0.000 A 
BRANCH   5   8
ATOM      8  C   UNL     1      43.964   3.524   9.849  0.00  0.00    +0.000 C 
BRANCH   8   9
ATOM      9  N   UNL     1      44.476   3.421   8.505  0.00  0.00    +0.000 N 
ATOM     10  C   UNL     1      45.304   2.384   8.146  0.00  0.00    +0.000 C 
ATOM     11  O   UNL     1      45.651   1.516   8.945  0.00  0.00    +0.000 OA
ATOM     12  H   UNL     1      44.365   4.219   7.886  0.00  0.00    +0.000 HD
BRANCH  10  13
ATOM     13  C   UNL     1      45.864   2.401   6.728  0.00  0.00    +0.000 C 
ATOM     14  C   UNL     1      46.854   1.280   6.506  0.00  0.00    +0.000 C 
ATOM     15  C   UNL     1      48.157   1.885   6.988  0.00  0.00    +0.000 C 
ATOM     16  O   UNL     1      48.038   3.312   6.855  0.00  0.00    +0.000 OA
ATOM     17  C   UNL     1      46.703   3.618   6.407  0.00  0.00    +0.000 C 
ENDBRANCH  10  13
ENDBRANCH   8   9
ENDBRANCH   5   8
ENDBRANCH   1   2
BRANCH   1  18
ATOM     18  N   UNL     1      46.967   7.382  14.060  0.00  0.00    +0.000 N 
ATOM     19  C   UNL     1      48.263   6.930  14.114  0.00  0.00    +0.000 C 
ATOM     20  O   UNL     1      49.037   7.052  13.166  0.00  0.00    +0.000 OA
ATOM     21  H   UNL     1      46.302   6.930  14.682  0.00  0.00    +0.000 HD
BRANCH  19  22
ATOM     22  C   UNL     1      48.730   6.402  15.399  0.00  0.00    +0.000 A 
ATOM     23  C   UNL     1      49.771   7.041  16.058  0.00  0.00    +0.000 A 
ATOM     24  S   UNL     1      50.197   6.308  17.537  0.00  0.00    +0.000 S 
ATOM     25  C   UNL     1      49.028   5.088  17.330  0.00  0.00    +0.000 A 
ATOM     26  N   UNL     1      48.897   4.085  18.237  0.00  0.00    +0.000 NA
ATOM     27  C   UNL     1      47.991   3.214  17.938  0.00  0.00    +0.000 A 
ATOM     28  N   UNL     1      47.189   3.268  16.826  0.00  0.00    +0.000 N 
ATOM     29  C   UNL     1      47.262   4.286  15.898  0.00  0.00    +0.000 A 
ATOM     30  O   UNL     1      46.500   4.351  14.942  0.00  0.00    +0.000 OA
ATOM     31  C   UNL     1      48.295   5.265  16.169  0.00  0.00    +0.000 A 
ATOM     32  H   UNL     1      46.486   2.566  16.662  0.00  0.00    +0.000 HD
ENDBRANCH  19  22
ENDBRANCH   1  18
BRANCH   1  33
ATOM     33  N   UNL     1      45.434   8.924  13.261  0.00  0.00    +0.000 NA
ATOM     34  H   UNL     1      44.983   9.246  12.399  0.00  0.00    +0.000 HD
ATOM     35  H   UNL     1      45.949   9.730  13.601  0.00  0.00    +0.000 HD
ENDBRANCH   1  33
TORSDOF 7
ENDMDL
MODEL 3
REMARK VINA RESULT:    -7.455      4.831      9.302
REMARK INTER + INTRA:         -11.503
REMARK INTER:                 -10.395
REMARK INTRA:                  -1.108
REMARK UNBOUND:                -1.215
REMARK  Name = 
REMARK  7 active torsions:
REMARK  status: ('A' for Active; 'I' for Inactive)
REMARK    1  A    between atoms: N_1  and  C_2
REMARK    2  A    between atoms: C_2  and  N_3
REMARK    3  A    between atoms: C_2  and  C_16
REMARK    4  A    between atoms: C_4  and  C_6
REMARK    5  A    between atoms: C_19  and  C_20
REMARK    6  A    between atoms: C_20  and  N_21
REMARK    7  A    between atoms: C_22  and  C_24
REMARK                            x       y       z     vdW  Elec       q    Type
REMARK                         _______ _______ _______ _____ _____    ______ ____
ROOT
ATOM      1  C   UNL     1      46.687   4.306  14.411  0.00  0.00    +0.000 C 
ENDROOT
BRANCH   1   2
ATOM      2  C   UNL     1      45.937   4.422  13.096  0.00  0.00    +0.000 A 
ATOM      3  C   UNL     1      45.174   3.347  12.610  0.00  0.00    +0.000 A 
ATOM      4  C   UNL     1      44.547   3.419  11.359  0.00  0.00    +0.000 A 
ATOM      5  C   UNL     1      44.679   4.562  10.557  0.00  0.00    +0.000 A 
ATOM      6  C   UNL     1      45.402   5.651  11.055  0.00  0.00    +0.000 A 
ATOM      7  C   UNL     1      46.021   5.580  12.307  0.00  0.00    +0.000 A 
BRANCH   5   8
ATOM      8  C   UNL     1      44.084   4.624   9.175  0.00  0.00    +0.000 C 
BRANCH   8   9
ATOM      9  N   UNL     1      44.478   3.502   8.359  0.00  0.00    +0.000 N 
ATOM     10  C   UNL     1      45.611   3.560   7.582  0.00  0.00    +0.000 C 
ATOM     11  O   UNL     1      46.324   4.561   7.539  0.00  0.00    +0.000 OA
ATOM     12  H   UNL     1      43.812   2.746   8.228  0.00  0.00    +0.000 HD
BRANCH  10  13
ATOM     13  C   UNL     1      45.904   2.359   6.690  0.00  0.00    +0.000 C 
ATOM     14  C   UNL     1      46.811   1.363   7.376  0.00  0.00    +0.000 C 
ATOM     15  C   UNL     1      48.193   1.893   7.055  0.00  0.00    +0.000 C 
ATOM     16  O   UNL     1      48.086   2.650   5.837  0.00  0.00    +0.000 OA
ATOM     17  C   UNL     1      46.700   2.690   5.447  0.00  0.00    +0.000 C 
ENDBRANCH  10  13
ENDBRANCH   8   9
ENDBRANCH   5   8
ENDBRANCH   1   2
BRANCH   1  18
ATOM     18  N   UNL     1      47.450   5.489  14.689  0.00  0.00    +0.000 N 
ATOM     19  C   UNL     1      48.269   5.583  15.790  0.00  0.00    +0.000 C 
ATOM     20  O   UNL     1      48.471   4.628  16.537  0.00  0.00    +0.000 OA
ATOM     21  H   UNL     1      47.034   6.355  14.358  0.00  0.00    +0.000 HD
BRANCH  19  22
ATOM     22  C   UNL     1      48.997   6.843  15.970  0.00  0.00    +0.000 A 
ATOM     23  C   UNL     1      49.140   7.368  17.247  0.00  0.00    +0.000 A 
ATOM     24  S   UNL     1      50.010   8.833  17.290  0.00  0.00    +0.000 S 
ATOM     25  C   UNL     1      50.193   8.836  15.598  0.00  0.00    +0.000 A 
ATOM     26  N   UNL     1      50.817   9.864  14.964  0.00  0.00    +0.000 NA
ATOM     27  C   UNL     1      50.858   9.747  13.678  0.00  0.00    +0.000 A 
ATOM     28  N   UNL     1      50.352   8.687  12.971  0.00  0.00    +0.000 N 
ATOM     29  C   UNL     1      49.743   7.606  13.573  0.00  0.00    +0.000 A 
ATOM     30  O   UNL     1      49.350   6.640  12.932  0.00  0.00    +0.000 OA
ATOM     31  C   UNL     1      49.636   7.711  15.015  0.00  0.00    +0.000 A 
ATOM     32  H   UNL     1      50.436   8.648  11.968  0.00  0.00    +0.000 HD
ENDBRANCH  19  22
ENDBRANCH   1  18
BRANCH   1  33
ATOM     33  N   UNL     1      47.631   3.205  14.351  0.00  0.00    +0.000 NA
ATOM     34  H   UNL     1      47.143   2.441  13.875  0.00  0.00    +0.000 HD
ATOM     35  H   UNL     1      47.777   2.870  15.298  0.00  0.00    +0.000 HD
ENDBRANCH   1  33
TORSDOF 7
ENDMDL
MODEL 4
REMARK VINA RESULT:    -7.030      1.673      2.699
REMARK INTER + INTRA:         -10.916
REMARK INTER:                  -9.477
REMARK INTRA:                  -1.439
REMARK UNBOUND:                -1.215
REMARK  Name = 
REMARK  7 active torsions:
REMARK  status: ('A' for Active; 'I' for Inactive)
REMARK    1  A    between atoms: N_1  and  C_2
REMARK    2  A    between atoms: C_2  and  N_3
REMARK    3  A    between atoms: C_2  and  C_16
REMARK    4  A    between atoms: C_4  and  C_6
REMARK    5  A    between atoms: C_19  and  C_20
REMARK    6  A    between atoms: C_20  and  N_21
REMARK    7  A    between atoms: C_22  and  C_24
REMARK                            x       y       z     vdW  Elec       q    Type
REMARK                         _______ _______ _______ _____ _____    ______ ____
ROOT
ATOM      1  C   UNL     1      47.584   3.116  16.599  0.00  0.00    +0.000 C 
ENDROOT
BRANCH   1   2
ATOM      2  C   UNL     1      48.975   3.432  17.119  0.00  0.00    +0.000 A 
ATOM      3  C   UNL     1      49.965   2.436  17.168  0.00  0.00    +0.000 A 
ATOM      4  C   UNL     1      51.223   2.700  17.722  0.00  0.00    +0.000 A 
ATOM      5  C   UNL     1      51.521   3.964  18.254  0.00  0.00    +0.000 A 
ATOM      6  C   UNL     1      50.553   4.971  18.170  0.00  0.00    +0.000 A 
ATOM      7  C   UNL     1      49.300   4.707  17.610  0.00  0.00    +0.000 A 
BRANCH   5   8
ATOM      8  C   UNL     1      52.836   4.242  18.931  0.00  0.00    +0.000 C 
BRANCH   8   9
ATOM      9  N   UNL     1      53.692   3.081  18.960  0.00  0.00    +0.000 N 
ATOM     10  C   UNL     1      54.708   2.934  18.045  0.00  0.00    +0.000 C 
ATOM     11  O   UNL     1      54.925   3.767  17.166  0.00  0.00    +0.000 OA
ATOM     12  H   UNL     1      53.418   2.296  19.543  0.00  0.00    +0.000 HD
BRANCH  10  13
ATOM     13  C   UNL     1      55.509   1.638  18.099  0.00  0.00    +0.000 C 
ATOM     14  C   UNL     1      55.182   0.732  16.933  0.00  0.00    +0.000 C 
ATOM     15  C   UNL     1      53.976  -0.035  17.434  0.00  0.00    +0.000 C 
ATOM     16  O   UNL     1      54.046  -0.046  18.871  0.00  0.00    +0.000 OA
ATOM     17  C   UNL     1      55.175   0.751  19.277  0.00  0.00    +0.000 C 
ENDBRANCH  10  13
ENDBRANCH   8   9
ENDBRANCH   5   8
ENDBRANCH   1   2
BRANCH   1  18
ATOM     18  N   UNL     1      47.079   4.172  15.768  0.00  0.00    +0.000 N 
ATOM     19  C   UNL     1      46.992   4.041  14.402  0.00  0.00    +0.000 C 
ATOM     20  O   UNL     1      47.245   2.983  13.829  0.00  0.00    +0.000 OA
ATOM     21  H   UNL     1      47.234   5.110  16.125  0.00  0.00    +0.000 HD
BRANCH  19  22
ATOM     22  C   UNL     1      46.462   5.188  13.659  0.00  0.00    +0.000 A 
ATOM     23  C   UNL     1      45.205   5.097  13.076  0.00  0.00    +0.000 A 
ATOM     24  S   UNL     1      44.731   6.510  12.249  0.00  0.00    +0.000 S 
ATOM     25  C   UNL     1      46.206   7.280  12.609  0.00  0.00    +0.000 A 
ATOM     26  N   UNL     1      46.475   8.527  12.143  0.00  0.00    +0.000 NA
ATOM     27  C   UNL     1      47.642   8.976  12.470  0.00  0.00    +0.000 A 
ATOM     28  N   UNL     1      48.554   8.299  13.238  0.00  0.00    +0.000 N 
ATOM     29  C   UNL     1      48.310   7.046  13.763  0.00  0.00    +0.000 A 
ATOM     30  O   UNL     1      49.111   6.481  14.496  0.00  0.00    +0.000 OA
ATOM     31  C   UNL     1      47.028   6.484  13.387  0.00  0.00    +0.000 A 
ATOM     32  H   UNL     1      49.440   8.715  13.475  0.00  0.00    +0.000 HD
ENDBRANCH  19  22
ENDBRANCH   1  18
BRANCH   1  33
ATOM     33  N   UNL     1      46.658   2.979  17.708  0.00  0.00    +0.000 NA
ATOM     34  H   UNL     1      46.091   2.151  17.501  0.00  0.00    +0.000 HD
ATOM     35  H   UNL     1      46.006   3.757  17.666  0.00  0.00    +0.000 HD
ENDBRANCH   1  33
TORSDOF 7
ENDMDL
MODEL 5
REMARK VINA RESULT:    -7.022      4.741      9.515
REMARK INTER + INTRA:         -10.905
REMARK INTER:                 -10.145
REMARK INTRA:                  -0.761
REMARK UNBOUND:                -1.215
REMARK  Name = 
REMARK  7 active torsions:
REMARK  status: ('A' for Active; 'I' for Inactive)
REMARK    1  A    between atoms: N_1  and  C_2
REMARK    2  A    between atoms: C_2  and  N_3
REMARK    3  A    between atoms: C_2  and  C_16
REMARK    4  A    between atoms: C_4  and  C_6
REMARK    5  A    between atoms: C_19  and  C_20
REMARK    6  A    between atoms: C_20  and  N_21
REMARK    7  A    between atoms: C_22  and  C_24
REMARK                            x       y       z     vdW  Elec       q    Type
REMARK                         _______ _______ _______ _____ _____    ______ ____
ROOT
ATOM      1  C   UNL     1      46.644   4.289  14.411  0.00  0.00    +0.000 C 
ENDROOT
BRANCH   1   2
ATOM      2  C   UNL     1      45.918   4.435  13.085  0.00  0.00    +0.000 A 
ATOM      3  C   UNL     1      44.982   3.473  12.672  0.00  0.00    +0.000 A 
ATOM      4  C   UNL     1      44.371   3.560  11.415  0.00  0.00    +0.000 A 
ATOM      5  C   UNL     1      44.691   4.603  10.533  0.00  0.00    +0.000 A 
ATOM      6  C   UNL     1      45.591   5.586  10.957  0.00  0.00    +0.000 A 
ATOM      7  C   UNL     1      46.194   5.502  12.215  0.00  0.00    +0.000 A 
BRANCH   5   8
ATOM      8  C   UNL     1      44.109   4.665   9.146  0.00  0.00    +0.000 C 
BRANCH   8   9
ATOM      9  N   UNL     1      44.493   3.532   8.340  0.00  0.00    +0.000 N 
ATOM     10  C   UNL     1      45.631   3.569   7.571  0.00  0.00    +0.000 C 
ATOM     11  O   UNL     1      46.359   4.559   7.525  0.00  0.00    +0.000 OA
ATOM     12  H   UNL     1      43.817   2.785   8.210  0.00  0.00    +0.000 HD
BRANCH  10  13
ATOM     13  C   UNL     1      45.914   2.358   6.689  0.00  0.00    +0.000 C 
ATOM     14  C   UNL     1      46.864   1.391   7.358  0.00  0.00    +0.000 C 
ATOM     15  C   UNL     1      48.223   1.939   6.977  0.00  0.00    +0.000 C 
ATOM     16  O   UNL     1      48.057   2.672   5.751  0.00  0.00    +0.000 OA
ATOM     17  C   UNL     1      46.657   2.681   5.412  0.00  0.00    +0.000 C 
ENDBRANCH  10  13
ENDBRANCH   8   9
ENDBRANCH   5   8
ENDBRANCH   1   2
BRANCH   1  18
ATOM     18  N   UNL     1      47.427   5.453  14.715  0.00  0.00    +0.000 N 
ATOM     19  C   UNL     1      48.291   5.488  15.784  0.00  0.00    +0.000 C 
ATOM     20  O   UNL     1      48.518   4.496  16.473  0.00  0.00    +0.000 OA
ATOM     21  H   UNL     1      47.003   6.336  14.446  0.00  0.00    +0.000 HD
BRANCH  19  22
ATOM     22  C   UNL     1      49.035   6.733  15.995  0.00  0.00    +0.000 A 
ATOM     23  C   UNL     1      49.838   7.226  14.976  0.00  0.00    +0.000 A 
ATOM     24  S   UNL     1      50.635   8.680  15.375  0.00  0.00    +0.000 S 
ATOM     25  C   UNL     1      49.964   8.679  16.939  0.00  0.00    +0.000 A 
ATOM     26  N   UNL     1      50.286   9.647  17.837  0.00  0.00    +0.000 NA
ATOM     27  C   UNL     1      49.726   9.506  18.993  0.00  0.00    +0.000 A 
ATOM     28  N   UNL     1      48.856   8.499  19.324  0.00  0.00    +0.000 N 
ATOM     29  C   UNL     1      48.473   7.516  18.435  0.00  0.00    +0.000 A 
ATOM     30  O   UNL     1      47.650   6.658  18.728  0.00  0.00    +0.000 OA
ATOM     31  C   UNL     1      49.109   7.609  17.136  0.00  0.00    +0.000 A 
ATOM     32  H   UNL     1      48.437   8.458  20.239  0.00  0.00    +0.000 HD
ENDBRANCH  19  22
ENDBRANCH   1  18
BRANCH   1  33
ATOM     33  N   UNL     1      47.566   3.170  14.353  0.00  0.00    +0.000 NA
ATOM     34  H   UNL     1      46.992   2.340  14.177  0.00  0.00    +0.000 HD
ATOM     35  H   UNL     1      47.944   3.031  15.285  0.00  0.00    +0.000 HD
ENDBRANCH   1  33
TORSDOF 7
ENDMDL
MODEL 6
REMARK VINA RESULT:    -7.015      3.891      9.031
REMARK INTER + INTRA:         -10.896
REMARK INTER:                  -9.138
REMARK INTRA:                  -1.758
REMARK UNBOUND:                -1.215
REMARK  Name = 
REMARK  7 active torsions:
REMARK  status: ('A' for Active; 'I' for Inactive)
REMARK    1  A    between atoms: N_1  and  C_2
REMARK    2  A    between atoms: C_2  and  N_3
REMARK    3  A    between atoms: C_2  and  C_16
REMARK    4  A    between atoms: C_4  and  C_6
REMARK    5  A    between atoms: C_19  and  C_20
REMARK    6  A    between atoms: C_20  and  N_21
REMARK    7  A    between atoms: C_22  and  C_24
REMARK                            x       y       z     vdW  Elec       q    Type
REMARK                         _______ _______ _______ _____ _____    ______ ____
ROOT
ATOM      1  C   UNL     1      48.471   8.780  14.411  0.00  0.00    +0.000 C 
ENDROOT
BRANCH   1   2
ATOM      2  C   UNL     1      47.360   8.455  13.429  0.00  0.00    +0.000 A 
ATOM      3  C   UNL     1      46.257   9.313  13.286  0.00  0.00    +0.000 A 
ATOM      4  C   UNL     1      45.191   8.977  12.442  0.00  0.00    +0.000 A 
ATOM      5  C   UNL     1      45.194   7.768  11.729  0.00  0.00    +0.000 A 
ATOM      6  C   UNL     1      46.310   6.931  11.836  0.00  0.00    +0.000 A 
ATOM      7  C   UNL     1      47.377   7.271  12.673  0.00  0.00    +0.000 A 
BRANCH   5   8
ATOM      8  C   UNL     1      44.020   7.351  10.885  0.00  0.00    +0.000 C 
BRANCH   8   9
ATOM      9  N   UNL     1      43.973   5.924  10.681  0.00  0.00    +0.000 N 
ATOM     10  C   UNL     1      43.090   5.142  11.387  0.00  0.00    +0.000 C 
ATOM     11  O   UNL     1      42.318   5.614  12.221  0.00  0.00    +0.000 OA
ATOM     12  H   UNL     1      44.722   5.489  10.149  0.00  0.00    +0.000 HD
BRANCH  10  13
ATOM     13  C   UNL     1      43.167   3.634  11.168  0.00  0.00    +0.000 C 
ATOM     14  C   UNL     1      43.692   2.919  12.392  0.00  0.00    +0.000 C 
ATOM     15  C   UNL     1      45.192   2.987  12.202  0.00  0.00    +0.000 C 
ATOM     16  O   UNL     1      45.437   3.108  10.790  0.00  0.00    +0.000 OA
ATOM     17  C   UNL     1      44.168   3.212  10.116  0.00  0.00    +0.000 C 
ENDBRANCH  10  13
ENDBRANCH   8   9
ENDBRANCH   5   8
ENDBRANCH   1   2
BRANCH   1  18
ATOM     18  N   UNL     1      48.541   7.812  15.469  0.00  0.00    +0.000 N 
ATOM     19  C   UNL     1      49.622   6.976  15.617  0.00  0.00    +0.000 C 
ATOM     20  O   UNL     1      50.629   7.079  14.919  0.00  0.00    +0.000 OA
ATOM     21  H   UNL     1      47.644   7.453  15.780  0.00  0.00    +0.000 HD
BRANCH  19  22
ATOM     22  C   UNL     1      49.579   6.028  16.734  0.00  0.00    +0.000 A 
ATOM     23  C   UNL     1      50.508   6.143  17.759  0.00  0.00    +0.000 A 
ATOM     24  S   UNL     1      50.326   4.969  18.982  0.00  0.00    +0.000 S 
ATOM     25  C   UNL     1      49.022   4.243  18.164  0.00  0.00    +0.000 A 
ATOM     26  N   UNL     1      48.422   3.128  18.658  0.00  0.00    +0.000 NA
ATOM     27  C   UNL     1      47.466   2.669  17.919  0.00  0.00    +0.000 A 
ATOM     28  N   UNL     1      47.042   3.235  16.745  0.00  0.00    +0.000 N 
ATOM     29  C   UNL     1      47.598   4.386  16.224  0.00  0.00    +0.000 A 
ATOM     30  O   UNL     1      47.169   4.912  15.205  0.00  0.00    +0.000 OA
ATOM     31  C   UNL     1      48.704   4.915  16.997  0.00  0.00    +0.000 A 
ATOM     32  H   UNL     1      46.276   2.838  16.226  0.00  0.00    +0.000 HD
ENDBRANCH  19  22
ENDBRANCH   1  18
BRANCH   1  33
ATOM     33  N   UNL     1      48.222  10.065  15.037  0.00  0.00    +0.000 NA
ATOM     34  H   UNL     1      48.868  10.725  14.595  0.00  0.00    +0.000 HD
ATOM     35  H   UNL     1      48.532  10.005  16.002  0.00  0.00    +0.000 HD
ENDBRANCH   1  33
TORSDOF 7
ENDMDL
MODEL 7
REMARK VINA RESULT:    -7.003      4.027      9.494
REMARK INTER + INTRA:         -10.879
REMARK INTER:                  -9.907
REMARK INTRA:                  -0.971
REMARK UNBOUND:                -1.215
REMARK  Name = 
REMARK  7 active torsions:
REMARK  status: ('A' for Active; 'I' for Inactive)
REMARK    1  A    between atoms: N_1  and  C_2
REMARK    2  A    between atoms: C_2  and  N_3
REMARK    3  A    between atoms: C_2  and  C_16
REMARK    4  A    between atoms: C_4  and  C_6
REMARK    5  A    between atoms: C_19  and  C_20
REMARK    6  A    between atoms: C_20  and  N_21
REMARK    7  A    between atoms: C_22  and  C_24
REMARK                            x       y       z     vdW  Elec       q    Type
REMARK                         _______ _______ _______ _____ _____    ______ ____
ROOT
ATOM      1  C   UNL     1      48.383   6.731  13.446  0.00  0.00    +0.000 C 
ENDROOT
BRANCH   1   2
ATOM      2  C   UNL     1      47.201   6.167  12.678  0.00  0.00    +0.000 A 
ATOM      3  C   UNL     1      46.419   5.136  13.222  0.00  0.00    +0.000 A 
ATOM      4  C   UNL     1      45.379   4.557  12.484  0.00  0.00    +0.000 A 
ATOM      5  C   UNL     1      45.104   4.986  11.176  0.00  0.00    +0.000 A 
ATOM      6  C   UNL     1      45.853   6.041  10.646  0.00  0.00    +0.000 A 
ATOM      7  C   UNL     1      46.885   6.623  11.387  0.00  0.00    +0.000 A 
BRANCH   5   8
ATOM      8  C   UNL     1      44.047   4.318  10.337  0.00  0.00    +0.000 C 
BRANCH   8   9
ATOM      9  N   UNL     1      44.451   4.181   8.958  0.00  0.00    +0.000 N 
ATOM     10  C   UNL     1      45.108   3.053   8.528  0.00  0.00    +0.000 C 
ATOM     11  O   UNL     1      45.389   2.127   9.288  0.00  0.00    +0.000 OA
ATOM     12  H   UNL     1      44.406   5.001   8.361  0.00  0.00    +0.000 HD
BRANCH  10  13
ATOM     13  C   UNL     1      45.569   3.029   7.074  0.00  0.00    +0.000 C 
ATOM     14  C   UNL     1      46.093   1.668   6.678  0.00  0.00    +0.000 C 
ATOM     15  C   UNL     1      47.546   1.733   7.099  0.00  0.00    +0.000 C 
ATOM     16  O   UNL     1      47.928   3.120   7.098  0.00  0.00    +0.000 OA
ATOM     17  C   UNL     1      46.764   3.911   6.789  0.00  0.00    +0.000 C 
ENDBRANCH  10  13
ENDBRANCH   8   9
ENDBRANCH   5   8
ENDBRANCH   1   2
BRANCH   1  18
ATOM     18  N   UNL     1      48.133   6.750  14.860  0.00  0.00    +0.000 N 
ATOM     19  C   UNL     1      49.156   6.742  15.778  0.00  0.00    +0.000 C 
ATOM     20  O   UNL     1      50.336   6.821  15.443  0.00  0.00    +0.000 OA
ATOM     21  H   UNL     1      47.262   6.312  15.146  0.00  0.00    +0.000 HD
BRANCH  19  22
ATOM     22  C   UNL     1      48.776   6.762  17.194  0.00  0.00    +0.000 A 
ATOM     23  C   UNL     1      48.380   7.959  17.775  0.00  0.00    +0.000 A 
ATOM     24  S   UNL     1      47.971   7.817  19.424  0.00  0.00    +0.000 S 
ATOM     25  C   UNL     1      48.345   6.156  19.428  0.00  0.00    +0.000 A 
ATOM     26  N   UNL     1      48.258   5.424  20.569  0.00  0.00    +0.000 NA
ATOM     27  C   UNL     1      48.599   4.185  20.432  0.00  0.00    +0.000 A 
ATOM     28  N   UNL     1      48.998   3.609  19.253  0.00  0.00    +0.000 N 
ATOM     29  C   UNL     1      49.068   4.304  18.064  0.00  0.00    +0.000 A 
ATOM     30  O   UNL     1      49.369   3.761  17.009  0.00  0.00    +0.000 OA
ATOM     31  C   UNL     1      48.734   5.710  18.177  0.00  0.00    +0.000 A 
ATOM     32  H   UNL     1      49.232   2.630  19.210  0.00  0.00    +0.000 HD
ENDBRANCH  19  22
ENDBRANCH   1  18
BRANCH   1  33
ATOM     33  N   UNL     1      48.627   8.105  13.047  0.00  0.00    +0.000 NA
ATOM     34  H   UNL     1      47.894   8.337  12.370  0.00  0.00    +0.000 HD
ATOM     35  H   UNL     1      49.490   8.123  12.512  0.00  0.00    +0.000 HD
ENDBRANCH   1  33
TORSDOF 7
ENDMDL
MODEL 8
REMARK VINA RESULT:    -6.994      2.414      3.911
REMARK INTER + INTRA:         -10.867
REMARK INTER:                  -9.599
REMARK INTRA:                  -1.269
REMARK UNBOUND:                -1.215
REMARK  Name = 
REMARK  7 active torsions:
REMARK  status: ('A' for Active; 'I' for Inactive)
REMARK    1  A    between atoms: N_1  and  C_2
REMARK    2  A    between atoms: C_2  and  N_3
REMARK    3  A    between atoms: C_2  and  C_16
REMARK    4  A    between atoms: C_4  and  C_6
REMARK    5  A    between atoms: C_19  and  C_20
REMARK    6  A    between atoms: C_20  and  N_21
REMARK    7  A    between atoms: C_22  and  C_24
REMARK                            x       y       z     vdW  Elec       q    Type
REMARK                         _______ _______ _______ _____ _____    ______ ____
ROOT
ATOM      1  C   UNL     1      47.468   3.405  16.468  0.00  0.00    +0.000 C 
ENDROOT
BRANCH   1   2
ATOM      2  C   UNL     1      48.794   3.957  16.962  0.00  0.00    +0.000 A 
ATOM      3  C   UNL     1      49.045   5.339  16.947  0.00  0.00    +0.000 A 
ATOM      4  C   UNL     1      50.295   5.846  17.324  0.00  0.00    +0.000 A 
ATOM      5  C   UNL     1      51.331   4.983  17.713  0.00  0.00    +0.000 A 
ATOM      6  C   UNL     1      51.072   3.609  17.770  0.00  0.00    +0.000 A 
ATOM      7  C   UNL     1      49.822   3.105  17.400  0.00  0.00    +0.000 A 
BRANCH   5   8
ATOM      8  C   UNL     1      52.705   5.502  18.039  0.00  0.00    +0.000 C 
BRANCH   8   9
ATOM      9  N   UNL     1      52.916   6.841  17.543  0.00  0.00    +0.000 N 
ATOM     10  C   UNL     1      52.926   7.914  18.402  0.00  0.00    +0.000 C 
ATOM     11  O   UNL     1      52.748   7.787  19.612  0.00  0.00    +0.000 OA
ATOM     12  H   UNL     1      52.872   6.994  16.540  0.00  0.00    +0.000 HD
BRANCH  10  13
ATOM     13  C   UNL     1      53.073   9.299  17.781  0.00  0.00    +0.000 C 
ATOM     14  C   UNL     1      51.926  10.207  18.164  0.00  0.00    +0.000 C 
ATOM     15  C   UNL     1      50.881   9.887  17.116  0.00  0.00    +0.000 C 
ATOM     16  O   UNL     1      51.578   9.399  15.956  0.00  0.00    +0.000 OA
ATOM     17  C   UNL     1      52.981   9.314  16.271  0.00  0.00    +0.000 C 
ENDBRANCH  10  13
ENDBRANCH   8   9
ENDBRANCH   5   8
ENDBRANCH   1   2
BRANCH   1  18
ATOM     18  N   UNL     1      46.801   4.333  15.599  0.00  0.00    +0.000 N 
ATOM     19  C   UNL     1      46.837   4.201  14.231  0.00  0.00    +0.000 C 
ATOM     20  O   UNL     1      47.353   3.230  13.682  0.00  0.00    +0.000 OA
ATOM     21  H   UNL     1      46.722   5.278  15.962  0.00  0.00    +0.000 HD
BRANCH  19  22
ATOM     22  C   UNL     1      46.119   5.211  13.448  0.00  0.00    +0.000 A 
ATOM     23  C   UNL     1      46.671   6.476  13.303  0.00  0.00    +0.000 A 
ATOM     24  S   UNL     1      45.718   7.535  12.365  0.00  0.00    +0.000 S 
ATOM     25  C   UNL     1      44.515   6.349  12.154  0.00  0.00    +0.000 A 
ATOM     26  N   UNL     1      43.373   6.627  11.472  0.00  0.00    +0.000 NA
ATOM     27  C   UNL     1      42.537   5.643  11.415  0.00  0.00    +0.000 A 
ATOM     28  N   UNL     1      42.749   4.402  11.957  0.00  0.00    +0.000 N 
ATOM     29  C   UNL     1      43.908   4.064  12.626  0.00  0.00    +0.000 A 
ATOM     30  O   UNL     1      44.107   2.934  13.053  0.00  0.00    +0.000 OA
ATOM     31  C   UNL     1      44.859   5.150  12.753  0.00  0.00    +0.000 A 
ATOM     32  H   UNL     1      42.064   3.671  11.858  0.00  0.00    +0.000 HD
ENDBRANCH  19  22
ENDBRANCH   1  18
BRANCH   1  33
ATOM     33  N   UNL     1      46.579   3.170  17.590  0.00  0.00    +0.000 NA
ATOM     34  H   UNL     1      46.875   2.281  18.003  0.00  0.00    +0.000 HD
ATOM     35  H   UNL     1      45.652   2.987  17.217  0.00  0.00    +0.000 HD
ENDBRANCH   1  33
TORSDOF 7
ENDMDL
MODEL 9
REMARK VINA RESULT:    -6.766      3.363      4.828
REMARK INTER + INTRA:         -10.552
REMARK INTER:                  -9.251
REMARK INTRA:                  -1.301
REMARK UNBOUND:                -1.215
REMARK  Name = 
REMARK  7 active torsions:
REMARK  status: ('A' for Active; 'I' for Inactive)
REMARK    1  A    between atoms: N_1  and  C_2
REMARK    2  A    between atoms: C_2  and  N_3
REMARK    3  A    between atoms: C_2  and  C_16
REMARK    4  A    between atoms: C_4  and  C_6
REMARK    5  A    between atoms: C_19  and  C_20
REMARK    6  A    between atoms: C_20  and  N_21
REMARK    7  A    between atoms: C_22  and  C_24
REMARK                            x       y       z     vdW  Elec       q    Type
REMARK                         _______ _______ _______ _____ _____    ______ ____
ROOT
ATOM      1  C   UNL     1      48.284   8.135  11.979  0.00  0.00    +0.000 C 
ENDROOT
BRANCH   1   2
ATOM      2  C   UNL     1      48.642   7.903  13.436  0.00  0.00    +0.000 A 
ATOM      3  C   UNL     1      49.402   8.847  14.146  0.00  0.00    +0.000 A 
ATOM      4  C   UNL     1      49.803   8.601  15.465  0.00  0.00    +0.000 A 
ATOM      5  C   UNL     1      49.467   7.398  16.104  0.00  0.00    +0.000 A 
ATOM      6  C   UNL     1      48.674   6.473  15.415  0.00  0.00    +0.000 A 
ATOM      7  C   UNL     1      48.268   6.724  14.102  0.00  0.00    +0.000 A 
BRANCH   5   8
ATOM      8  C   UNL     1      49.961   7.079  17.489  0.00  0.00    +0.000 C 
BRANCH   8   9
ATOM      9  N   UNL     1      49.539   5.773  17.933  0.00  0.00    +0.000 N 
ATOM     10  C   UNL     1      50.298   4.659  17.663  0.00  0.00    +0.000 C 
ATOM     11  O   UNL     1      51.351   4.721  17.030  0.00  0.00    +0.000 OA
ATOM     12  H   UNL     1      48.591   5.668  18.283  0.00  0.00    +0.000 HD
BRANCH  10  13
ATOM     13  C   UNL     1      49.734   3.311  18.098  0.00  0.00    +0.000 C 
ATOM     14  C   UNL     1      49.403   2.436  16.911  0.00  0.00    +0.000 C 
ATOM     15  C   UNL     1      47.996   2.869  16.557  0.00  0.00    +0.000 C 
ATOM     16  O   UNL     1      47.400   3.397  17.755  0.00  0.00    +0.000 OA
ATOM     17  C   UNL     1      48.395   3.396  18.797  0.00  0.00    +0.000 C 
ENDBRANCH  10  13
ENDBRANCH   8   9
ENDBRANCH   5   8
ENDBRANCH   1   2
BRANCH   1  18
ATOM     18  N   UNL     1      47.587   7.011  11.421  0.00  0.00    +0.000 N 
ATOM     19  C   UNL     1      46.214   6.942  11.406  0.00  0.00    +0.000 C 
ATOM     20  O   UNL     1      45.509   7.879  11.775  0.00  0.00    +0.000 OA
ATOM     21  H   UNL     1      48.085   6.127  11.478  0.00  0.00    +0.000 HD
BRANCH  19  22
ATOM     22  C   UNL     1      45.617   5.743  10.811  0.00  0.00    +0.000 A 
ATOM     23  C   UNL     1      45.758   5.519   9.448  0.00  0.00    +0.000 A 
ATOM     24  S   UNL     1      45.008   4.085   8.910  0.00  0.00    +0.000 S 
ATOM     25  C   UNL     1      44.437   3.734  10.474  0.00  0.00    +0.000 A 
ATOM     26  N   UNL     1      43.661   2.642  10.705  0.00  0.00    +0.000 NA
ATOM     27  C   UNL     1      43.276   2.516  11.932  0.00  0.00    +0.000 A 
ATOM     28  N   UNL     1      43.614   3.368  12.951  0.00  0.00    +0.000 N 
ATOM     29  C   UNL     1      44.427   4.468  12.771  0.00  0.00    +0.000 A 
ATOM     30  O   UNL     1      44.768   5.185  13.702  0.00  0.00    +0.000 OA
ATOM     31  C   UNL     1      44.851   4.675  11.400  0.00  0.00    +0.000 A 
ATOM     32  H   UNL     1      43.296   3.200  13.892  0.00  0.00    +0.000 HD
ENDBRANCH  19  22
ENDBRANCH   1  18
BRANCH   1  33
ATOM     33  N   UNL     1      49.490   8.310  11.192  0.00  0.00    +0.000 NA
ATOM     34  H   UNL     1      49.430   7.632  10.427  0.00  0.00    +0.000 HD
ATOM     35  H   UNL     1      50.276   7.998  11.755  0.00  0.00    +0.000 HD
ENDBRANCH   1  33
TORSDOF 7
ENDMDL
