MODEL 1
REMARK VINA RESULT:    -8.222      0.000      0.000
REMARK INTER + INTRA:         -12.171
REMARK INTER:                 -11.106
REMARK INTRA:                  -1.065
REMARK UNBOUND:                -1.065
REMARK  Name = 
REMARK  7 active torsions:
REMARK  status: ('A' for Active; 'I' for Inactive)
REMARK    1  A    between atoms: C_1  and  O_2
REMARK    2  A    between atoms: O_2  and  C_3
REMARK    3  A    between atoms: C_7  and  N_8
REMARK    4  A    between atoms: N_8  and  C_9
REMARK    5  A    between atoms: C_12  and  C_13
REMARK    6  A    between atoms: C_13  and  N_14
REMARK    7  A    between atoms: C_15  and  C_17
REMARK                            x       y       z     vdW  Elec       q    Type
REMARK                         _______ _______ _______ _____ _____    ______ ____
ROOT
ATOM      1  C   UNL     1      44.893   5.598  10.757  0.00  0.00    +0.000 A 
ATOM      2  N   UNL     1      46.180   5.954  10.525  0.00  0.00    +0.000 NA
ATOM      3  C   UNL     1      46.816   6.729  11.425  0.00  0.00    +0.000 A 
ATOM      4  C   UNL     1      46.236   7.178  12.601  0.00  0.00    +0.000 A 
ATOM      5  C   UNL     1      44.931   6.756  12.873  0.00  0.00    +0.000 A 
ATOM      6  C   UNL     1      44.260   5.940  11.957  0.00  0.00    +0.000 A 
ATOM      7 CL   UNL     1      42.644   5.445  12.306  0.00  0.00    +0.000 Cl
ENDROOT
BRANCH   1   8
ATOM      8  N   UNL     1      44.213   4.872   9.747  0.00  0.00    +0.000 N 
ATOM      9  H   UNL     1      43.732   5.501   9.111  0.00  0.00    +0.000 HD
BRANCH   8  14
ATOM     10  C   UNL     1      46.115   2.943   7.150  0.00  0.00    +0.000 A 
ATOM     11  C   UNL     1      46.013   1.655   7.671  0.00  0.00    +0.000 A 
ATOM     12  C   UNL     1      45.274   1.431   8.837  0.00  0.00    +0.000 A 
ATOM     13  C   UNL     1      44.658   2.495   9.502  0.00  0.00    +0.000 A 
ATOM     14  C   UNL     1      44.806   3.800   9.032  0.00  0.00    +0.000 A 
ATOM     15  C   UNL     1      45.497   3.998   7.827  0.00  0.00    +0.000 A 
BRANCH  10  17
ATOM     16  C   UNL     1      47.776   2.409   5.539  0.00  0.00    +0.000 C 
ATOM     17  O   UNL     1      46.783   3.307   6.013  0.00  0.00    +0.000 OA
ENDBRANCH  10  17
ENDBRANCH   8  14
ENDBRANCH   1   8
BRANCH   4  18
ATOM     18  C   UNL     1      46.965   8.146  13.482  0.00  0.00    +0.000 C 
BRANCH  18  19
ATOM     19  N   UNL     1      47.453   7.486  14.669  0.00  0.00    +0.000 N 
ATOM     20  C   UNL     1      48.679   6.872  14.686  0.00  0.00    +0.000 C 
ATOM     21  O   UNL     1      49.425   6.895  13.710  0.00  0.00    +0.000 OA
ATOM     22  H   UNL     1      46.785   7.283  15.406  0.00  0.00    +0.000 HD
BRANCH  20  23
ATOM     23  C   UNL     1      49.084   6.232  15.944  0.00  0.00    +0.000 A 
ATOM     24  C   UNL     1      50.167   6.739  16.651  0.00  0.00    +0.000 A 
ATOM     25  S   UNL     1      50.486   5.910  18.105  0.00  0.00    +0.000 S 
ATOM     26  C   UNL     1      49.218   4.813  17.822  0.00  0.00    +0.000 A 
ATOM     27  N   UNL     1      48.962   3.802  18.695  0.00  0.00    +0.000 NA
ATOM     28  C   UNL     1      47.993   3.025  18.342  0.00  0.00    +0.000 A 
ATOM     29  N   UNL     1      47.256   3.171  17.195  0.00  0.00    +0.000 N 
ATOM     30  C   UNL     1      47.455   4.192  16.300  0.00  0.00    +0.000 A 
ATOM     31  O   UNL     1      46.739   4.326  15.312  0.00  0.00    +0.000 OA
ATOM     32  C   UNL     1      48.547   5.088  16.641  0.00  0.00    +0.000 A 
ATOM     33  H   UNL     1      46.502   2.531  16.986  0.00  0.00    +0.000 HD
ENDBRANCH  20  23
ENDBRANCH  18  19
ENDBRANCH   4  18
TORSDOF 6
ENDMDL
MODEL 2
REMARK VINA RESULT:    -7.764      3.238      4.670
REMARK INTER + INTRA:         -11.552
REMARK INTER:                 -10.319
REMARK INTRA:                  -1.232
REMARK UNBOUND:                -1.065
REMARK  Name = 
REMARK  7 active torsions:
REMARK  status: ('A' for Active; 'I' for Inactive)
REMARK    1  A    between atoms: C_1  and  O_2
REMARK    2  A    between atoms: O_2  and  C_3
REMARK    3  A    between atoms: C_7  and  N_8
REMARK    4  A    between atoms: N_8  and  C_9
REMARK    5  A    between atoms: C_12  and  C_13
REMARK    6  A    between atoms: C_13  and  N_14
REMARK    7  A    between atoms: C_15  and  C_17
REMARK                            x       y       z     vdW  Elec       q    Type
REMARK                         _______ _______ _______ _____ _____    ______ ____
ROOT
ATOM      1  C   UNL     1      46.936   4.359  14.328  0.00  0.00    +0.000 A 
ATOM      2  N   UNL     1      46.874   3.844  15.580  0.00  0.00    +0.000 NA
ATOM      3  C   UNL     1      47.534   4.468  16.576  0.00  0.00    +0.000 A 
ATOM      4  C   UNL     1      48.268   5.630  16.404  0.00  0.00    +0.000 A 
ATOM      5  C   UNL     1      48.276   6.199  15.126  0.00  0.00    +0.000 A 
ATOM      6  C   UNL     1      47.586   5.573  14.083  0.00  0.00    +0.000 A 
ATOM      7 CL   UNL     1      47.625   6.284  12.511  0.00  0.00    +0.000 Cl
ENDROOT
BRANCH   1   8
ATOM      8  N   UNL     1      46.322   3.628  13.279  0.00  0.00    +0.000 N 
ATOM      9  H   UNL     1      46.218   2.650  13.533  0.00  0.00    +0.000 HD
BRANCH   8  14
ATOM     10  C   UNL     1      43.926   4.448  10.511  0.00  0.00    +0.000 A 
ATOM     11  C   UNL     1      42.858   4.955  11.247  0.00  0.00    +0.000 A 
ATOM     12  C   UNL     1      42.961   5.071  12.637  0.00  0.00    +0.000 A 
ATOM     13  C   UNL     1      44.121   4.658  13.299  0.00  0.00    +0.000 A 
ATOM     14  C   UNL     1      45.174   4.086  12.585  0.00  0.00    +0.000 A 
ATOM     15  C   UNL     1      45.078   4.035  11.185  0.00  0.00    +0.000 A 
BRANCH  10  17
ATOM     16  C   UNL     1      45.260   4.113   8.574  0.00  0.00    +0.000 C 
ATOM     17  O   UNL     1      43.975   4.297   9.152  0.00  0.00    +0.000 OA
ENDBRANCH  10  17
ENDBRANCH   8  14
ENDBRANCH   1   8
BRANCH   4  18
ATOM     18  C   UNL     1      49.081   6.185  17.533  0.00  0.00    +0.000 C 
BRANCH  18  19
ATOM     19  N   UNL     1      50.109   5.253  17.926  0.00  0.00    +0.000 N 
ATOM     20  C   UNL     1      51.375   5.331  17.404  0.00  0.00    +0.000 C 
ATOM     21  O   UNL     1      51.695   6.218  16.618  0.00  0.00    +0.000 OA
ATOM     22  H   UNL     1      49.822   4.407  18.408  0.00  0.00    +0.000 HD
BRANCH  20  23
ATOM     23  C   UNL     1      52.349   4.336  17.873  0.00  0.00    +0.000 A 
ATOM     24  C   UNL     1      53.544   4.763  18.439  0.00  0.00    +0.000 A 
ATOM     25  S   UNL     1      54.547   3.490  18.965  0.00  0.00    +0.000 S 
ATOM     26  C   UNL     1      53.445   2.320  18.412  0.00  0.00    +0.000 A 
ATOM     27  N   UNL     1      53.717   0.993  18.534  0.00  0.00    +0.000 NA
ATOM     28  C   UNL     1      52.810   0.215  18.045  0.00  0.00    +0.000 A 
ATOM     29  N   UNL     1      51.653   0.647  17.448  0.00  0.00    +0.000 N 
ATOM     30  C   UNL     1      51.319   1.973  17.332  0.00  0.00    +0.000 A 
ATOM     31  O   UNL     1      50.248   2.322  16.844  0.00  0.00    +0.000 OA
ATOM     32  C   UNL     1      52.315   2.894  17.852  0.00  0.00    +0.000 A 
ATOM     33  H   UNL     1      50.979  -0.019  17.097  0.00  0.00    +0.000 HD
ENDBRANCH  20  23
ENDBRANCH  18  19
ENDBRANCH   4  18
TORSDOF 6
ENDMDL
MODEL 3
REMARK VINA RESULT:    -7.384      1.760      1.994
REMARK INTER + INTRA:         -11.038
REMARK INTER:                 -10.283
REMARK INTRA:                  -0.755
REMARK UNBOUND:                -1.065
REMARK  Name = 
REMARK  7 active torsions:
REMARK  status: ('A' for Active; 'I' for Inactive)
REMARK    1  A    between atoms: C_1  and  O_2
REMARK    2  A    between atoms: O_2  and  C_3
REMARK    3  A    between atoms: C_7  and  N_8
REMARK    4  A    between atoms: N_8  and  C_9
REMARK    5  A    between atoms: C_12  and  C_13
REMARK    6  A    between atoms: C_13  and  N_14
REMARK    7  A    between atoms: C_15  and  C_17
REMARK                            x       y       z     vdW  Elec       q    Type
REMARK                         _______ _______ _______ _____ _____    ______ ____
ROOT
ATOM      1  C   UNL     1      45.297   6.399  11.555  0.00  0.00    +0.000 A 
ATOM      2  N   UNL     1      46.214   5.614  12.171  0.00  0.00    +0.000 NA
ATOM      3  C   UNL     1      47.163   6.192  12.934  0.00  0.00    +0.000 A 
ATOM      4  C   UNL     1      47.252   7.558  13.148  0.00  0.00    +0.000 A 
ATOM      5  C   UNL     1      46.267   8.363  12.567  0.00  0.00    +0.000 A 
ATOM      6  C   UNL     1      45.267   7.779  11.784  0.00  0.00    +0.000 A 
ATOM      7 CL   UNL     1      44.072   8.795  11.062  0.00  0.00    +0.000 Cl
ENDROOT
BRANCH   1   8
ATOM      8  N   UNL     1      44.376   5.778  10.674  0.00  0.00    +0.000 N 
ATOM      9  H   UNL     1      43.899   6.470  10.103  0.00  0.00    +0.000 HD
BRANCH   8  14
ATOM     10  C   UNL     1      45.831   3.566   8.016  0.00  0.00    +0.000 A 
ATOM     11  C   UNL     1      45.349   2.326   8.431  0.00  0.00    +0.000 A 
ATOM     12  C   UNL     1      44.508   2.242   9.545  0.00  0.00    +0.000 A 
ATOM     13  C   UNL     1      44.167   3.392  10.265  0.00  0.00    +0.000 A 
ATOM     14  C   UNL     1      44.695   4.632   9.904  0.00  0.00    +0.000 A 
ATOM     15  C   UNL     1      45.486   4.706   8.746  0.00  0.00    +0.000 A 
BRANCH  10  17
ATOM     16  C   UNL     1      47.641   2.831   6.665  0.00  0.00    +0.000 C 
ATOM     17  O   UNL     1      46.640   3.802   6.938  0.00  0.00    +0.000 OA
ENDBRANCH  10  17
ENDBRANCH   8  14
ENDBRANCH   1   8
BRANCH   4  18
ATOM     18  C   UNL     1      48.415   8.131  13.898  0.00  0.00    +0.000 C 
BRANCH  18  19
ATOM     19  N   UNL     1      48.251   7.934  15.318  0.00  0.00    +0.000 N 
ATOM     20  C   UNL     1      49.137   7.170  16.035  0.00  0.00    +0.000 C 
ATOM     21  O   UNL     1      50.123   6.662  15.508  0.00  0.00    +0.000 OA
ATOM     22  H   UNL     1      47.353   8.171  15.729  0.00  0.00    +0.000 HD
BRANCH  20  23
ATOM     23  C   UNL     1      48.883   7.035  17.475  0.00  0.00    +0.000 A 
ATOM     24  C   UNL     1      48.639   8.171  18.236  0.00  0.00    +0.000 A 
ATOM     25  S   UNL     1      48.327   7.843  19.879  0.00  0.00    +0.000 S 
ATOM     26  C   UNL     1      48.553   6.175  19.645  0.00  0.00    +0.000 A 
ATOM     27  N   UNL     1      48.454   5.305  20.686  0.00  0.00    +0.000 NA
ATOM     28  C   UNL     1      48.681   4.072  20.375  0.00  0.00    +0.000 A 
ATOM     29  N   UNL     1      48.994   3.633  19.115  0.00  0.00    +0.000 N 
ATOM     30  C   UNL     1      49.073   4.466  18.027  0.00  0.00    +0.000 A 
ATOM     31  O   UNL     1      49.300   4.030  16.903  0.00  0.00    +0.000 OA
ATOM     32  C   UNL     1      48.844   5.870  18.326  0.00  0.00    +0.000 A 
ATOM     33  H   UNL     1      49.148   2.649  18.939  0.00  0.00    +0.000 HD
ENDBRANCH  20  23
ENDBRANCH  18  19
ENDBRANCH   4  18
TORSDOF 6
ENDMDL
MODEL 4
REMARK VINA RESULT:    -7.161      3.960      8.684
REMARK INTER + INTRA:         -10.738
REMARK INTER:                  -9.788
REMARK INTRA:                  -0.949
REMARK UNBOUND:                -1.065
REMARK  Name = 
REMARK  7 active torsions:
REMARK  status: ('A' for Active; 'I' for Inactive)
REMARK    1  A    between atoms: C_1  and  O_2
REMARK    2  A    between atoms: O_2  and  C_3
REMARK    3  A    between atoms: C_7  and  N_8
REMARK    4  A    between atoms: N_8  and  C_9
REMARK    5  A    between atoms: C_12  and  C_13
REMARK    6  A    between atoms: C_13  and  N_14
REMARK    7  A    between atoms: C_15  and  C_17
REMARK                            x       y       z     vdW  Elec       q    Type
REMARK                         _______ _______ _______ _____ _____    ______ ____
ROOT
ATOM      1  C   UNL     1      49.819   4.287  17.486  0.00  0.00    +0.000 A 
ATOM      2  N   UNL     1      50.562   5.355  17.105  0.00  0.00    +0.000 NA
ATOM      3  C   UNL     1      50.035   6.241  16.235  0.00  0.00    +0.000 A 
ATOM      4  C   UNL     1      48.756   6.137  15.711  0.00  0.00    +0.000 A 
ATOM      5  C   UNL     1      47.966   5.072  16.156  0.00  0.00    +0.000 A 
ATOM      6  C   UNL     1      48.491   4.152  17.068  0.00  0.00    +0.000 A 
ATOM      7 CL   UNL     1      47.503   2.836  17.589  0.00  0.00    +0.000 Cl
ENDROOT
BRANCH   1   8
ATOM      8  N   UNL     1      50.433   3.316  18.316  0.00  0.00    +0.000 N 
ATOM      9  H   UNL     1      49.752   2.637  18.643  0.00  0.00    +0.000 HD
BRANCH   8  14
ATOM     10  C   UNL     1      54.092   2.691  17.770  0.00  0.00    +0.000 A 
ATOM     11  C   UNL     1      54.061   1.355  17.376  0.00  0.00    +0.000 A 
ATOM     12  C   UNL     1      52.836   0.695  17.243  0.00  0.00    +0.000 A 
ATOM     13  C   UNL     1      51.638   1.358  17.527  0.00  0.00    +0.000 A 
ATOM     14  C   UNL     1      51.654   2.676  17.987  0.00  0.00    +0.000 A 
ATOM     15  C   UNL     1      52.889   3.341  18.054  0.00  0.00    +0.000 A 
BRANCH  10  17
ATOM     16  C   UNL     1      55.561   3.830  19.249  0.00  0.00    +0.000 C 
ATOM     17  O   UNL     1      55.209   3.466  17.921  0.00  0.00    +0.000 OA
ENDBRANCH  10  17
ENDBRANCH   8  14
ENDBRANCH   1   8
BRANCH   4  18
ATOM     18  C   UNL     1      48.295   7.087  14.649  0.00  0.00    +0.000 C 
BRANCH  18  19
ATOM     19  N   UNL     1      47.062   6.628  14.056  0.00  0.00    +0.000 N 
ATOM     20  C   UNL     1      46.844   6.728  12.705  0.00  0.00    +0.000 C 
ATOM     21  O   UNL     1      47.702   7.171  11.945  0.00  0.00    +0.000 OA
ATOM     22  H   UNL     1      46.277   6.451  14.674  0.00  0.00    +0.000 HD
BRANCH  20  23
ATOM     23  C   UNL     1      45.558   6.229  12.202  0.00  0.00    +0.000 A 
ATOM     24  C   UNL     1      44.662   7.115  11.619  0.00  0.00    +0.000 A 
ATOM     25  S   UNL     1      43.234   6.375  11.054  0.00  0.00    +0.000 S 
ATOM     26  C   UNL     1      43.740   4.850  11.610  0.00  0.00    +0.000 A 
ATOM     27  N   UNL     1      42.946   3.756  11.463  0.00  0.00    +0.000 NA
ATOM     28  C   UNL     1      43.438   2.669  11.957  0.00  0.00    +0.000 A 
ATOM     29  N   UNL     1      44.655   2.580  12.583  0.00  0.00    +0.000 N 
ATOM     30  C   UNL     1      45.505   3.648  12.726  0.00  0.00    +0.000 A 
ATOM     31  O   UNL     1      46.611   3.519  13.241  0.00  0.00    +0.000 OA
ATOM     32  C   UNL     1      44.991   4.902  12.201  0.00  0.00    +0.000 A 
ATOM     33  H   UNL     1      44.984   1.693  12.937  0.00  0.00    +0.000 HD
ENDBRANCH  20  23
ENDBRANCH  18  19
ENDBRANCH   4  18
TORSDOF 6
ENDMDL
MODEL 5
REMARK VINA RESULT:    -7.059      4.180      8.018
REMARK INTER + INTRA:         -10.600
REMARK INTER:                  -9.133
REMARK INTRA:                  -1.467
REMARK UNBOUND:                -1.065
REMARK  Name = 
REMARK  7 active torsions:
REMARK  status: ('A' for Active; 'I' for Inactive)
REMARK    1  A    between atoms: C_1  and  O_2
REMARK    2  A    between atoms: O_2  and  C_3
REMARK    3  A    between atoms: C_7  and  N_8
REMARK    4  A    between atoms: N_8  and  C_9
REMARK    5  A    between atoms: C_12  and  C_13
REMARK    6  A    between atoms: C_13  and  N_14
REMARK    7  A    between atoms: C_15  and  C_17
REMARK                            x       y       z     vdW  Elec       q    Type
REMARK                         _______ _______ _______ _____ _____    ______ ____
ROOT
ATOM      1  C   UNL     1      50.920   6.376  17.635  0.00  0.00    +0.000 A 
ATOM      2  N   UNL     1      51.270   6.698  16.366  0.00  0.00    +0.000 NA
ATOM      3  C   UNL     1      50.482   7.536  15.663  0.00  0.00    +0.000 A 
ATOM      4  C   UNL     1      49.328   8.112  16.169  0.00  0.00    +0.000 A 
ATOM      5  C   UNL     1      49.003   7.834  17.500  0.00  0.00    +0.000 A 
ATOM      6  C   UNL     1      49.816   6.978  18.249  0.00  0.00    +0.000 A 
ATOM      7 CL   UNL     1      49.385   6.635  19.884  0.00  0.00    +0.000 Cl
ENDROOT
BRANCH   1   8
ATOM      8  N   UNL     1      51.706   5.412  18.316  0.00  0.00    +0.000 N 
ATOM      9  H   UNL     1      51.658   5.550  19.321  0.00  0.00    +0.000 HD
BRANCH   8  14
ATOM     10  C   UNL     1      50.593   2.082  16.994  0.00  0.00    +0.000 A 
ATOM     11  C   UNL     1      51.684   1.294  17.352  0.00  0.00    +0.000 A 
ATOM     12  C   UNL     1      52.744   1.855  18.071  0.00  0.00    +0.000 A 
ATOM     13  C   UNL     1      52.731   3.211  18.412  0.00  0.00    +0.000 A 
ATOM     14  C   UNL     1      51.678   4.030  18.003  0.00  0.00    +0.000 A 
ATOM     15  C   UNL     1      50.594   3.436  17.337  0.00  0.00    +0.000 A 
BRANCH  10  17
ATOM     16  C   UNL     1      48.322   2.481  16.422  0.00  0.00    +0.000 C 
ATOM     17  O   UNL     1      49.481   1.667  16.313  0.00  0.00    +0.000 OA
ENDBRANCH  10  17
ENDBRANCH   8  14
ENDBRANCH   1   8
BRANCH   4  18
ATOM     18  C   UNL     1      48.437   8.925  15.280  0.00  0.00    +0.000 C 
BRANCH  18  19
ATOM     19  N   UNL     1      47.440   8.088  14.656  0.00  0.00    +0.000 N 
ATOM     20  C   UNL     1      47.240   8.114  13.300  0.00  0.00    +0.000 C 
ATOM     21  O   UNL     1      47.925   8.816  12.560  0.00  0.00    +0.000 OA
ATOM     22  H   UNL     1      46.740   7.660  15.254  0.00  0.00    +0.000 HD
BRANCH  20  23
ATOM     23  C   UNL     1      46.204   7.221  12.765  0.00  0.00    +0.000 A 
ATOM     24  C   UNL     1      45.131   7.760  12.067  0.00  0.00    +0.000 A 
ATOM     25  S   UNL     1      44.037   6.591  11.481  0.00  0.00    +0.000 S 
ATOM     26  C   UNL     1      44.931   5.325  12.179  0.00  0.00    +0.000 A 
ATOM     27  N   UNL     1      44.514   4.035  12.072  0.00  0.00    +0.000 NA
ATOM     28  C   UNL     1      45.268   3.178  12.674  0.00  0.00    +0.000 A 
ATOM     29  N   UNL     1      46.405   3.497  13.372  0.00  0.00    +0.000 N 
ATOM     30  C   UNL     1      46.884   4.778  13.481  0.00  0.00    +0.000 A 
ATOM     31  O   UNL     1      47.935   5.021  14.065  0.00  0.00    +0.000 OA
ATOM     32  C   UNL     1      46.061   5.786  12.834  0.00  0.00    +0.000 A 
ATOM     33  H   UNL     1      46.956   2.772  13.811  0.00  0.00    +0.000 HD
ENDBRANCH  20  23
ENDBRANCH  18  19
ENDBRANCH   4  18
TORSDOF 6
ENDMDL
MODEL 6
REMARK VINA RESULT:    -6.915      4.276      8.669
REMARK INTER + INTRA:         -10.405
REMARK INTER:                  -9.741
REMARK INTRA:                  -0.664
REMARK UNBOUND:                -1.065
REMARK  Name = 
REMARK  7 active torsions:
REMARK  status: ('A' for Active; 'I' for Inactive)
REMARK    1  A    between atoms: C_1  and  O_2
REMARK    2  A    between atoms: O_2  and  C_3
REMARK    3  A    between atoms: C_7  and  N_8
REMARK    4  A    between atoms: N_8  and  C_9
REMARK    5  A    between atoms: C_12  and  C_13
REMARK    6  A    between atoms: C_13  and  N_14
REMARK    7  A    between atoms: C_15  and  C_17
REMARK                            x       y       z     vdW  Elec       q    Type
REMARK                         _______ _______ _______ _____ _____    ______ ____
ROOT
ATOM      1  C   UNL     1      50.579   4.091  17.759  0.00  0.00    +0.000 A 
ATOM      2  N   UNL     1      51.416   5.117  17.467  0.00  0.00    +0.000 NA
ATOM      3  C   UNL     1      50.936   6.179  16.790  0.00  0.00    +0.000 A 
ATOM      4  C   UNL     1      49.617   6.300  16.381  0.00  0.00    +0.000 A 
ATOM      5  C   UNL     1      48.739   5.273  16.741  0.00  0.00    +0.000 A 
ATOM      6  C   UNL     1      49.216   4.170  17.456  0.00  0.00    +0.000 A 
ATOM      7 CL   UNL     1      48.117   2.906  17.873  0.00  0.00    +0.000 Cl
ENDROOT
BRANCH   1   8
ATOM      8  N   UNL     1      51.131   2.941  18.377  0.00  0.00    +0.000 N 
ATOM      9  H   UNL     1      50.468   2.171  18.367  0.00  0.00    +0.000 HD
BRANCH   8  14
ATOM     10  C   UNL     1      53.972   0.795  17.194  0.00  0.00    +0.000 A 
ATOM     11  C   UNL     1      55.055   1.598  17.545  0.00  0.00    +0.000 A 
ATOM     12  C   UNL     1      54.839   2.807  18.215  0.00  0.00    +0.000 A 
ATOM     13  C   UNL     1      53.541   3.231  18.513  0.00  0.00    +0.000 A 
ATOM     14  C   UNL     1      52.442   2.472  18.109  0.00  0.00    +0.000 A 
ATOM     15  C   UNL     1      52.680   1.232  17.494  0.00  0.00    +0.000 A 
BRANCH  10  17
ATOM     16  C   UNL     1      55.201  -1.194  16.777  0.00  0.00    +0.000 C 
ATOM     17  O   UNL     1      54.033  -0.415  16.559  0.00  0.00    +0.000 OA
ENDBRANCH  10  17
ENDBRANCH   8  14
ENDBRANCH   1   8
BRANCH   4  18
ATOM     18  C   UNL     1      49.195   7.449  15.517  0.00  0.00    +0.000 C 
BRANCH  18  19
ATOM     19  N   UNL     1      48.004   7.116  14.774  0.00  0.00    +0.000 N 
ATOM     20  C   UNL     1      48.076   6.681  13.475  0.00  0.00    +0.000 C 
ATOM     21  O   UNL     1      49.154   6.519  12.909  0.00  0.00    +0.000 OA
ATOM     22  H   UNL     1      47.112   7.429  15.145  0.00  0.00    +0.000 HD
BRANCH  20  23
ATOM     23  C   UNL     1      46.806   6.365  12.809  0.00  0.00    +0.000 A 
ATOM     24  C   UNL     1      46.074   7.384  12.213  0.00  0.00    +0.000 A 
ATOM     25  S   UNL     1      44.646   6.850  11.453  0.00  0.00    +0.000 S 
ATOM     26  C   UNL     1      44.926   5.243  11.933  0.00  0.00    +0.000 A 
ATOM     27  N   UNL     1      44.042   4.258  11.622  0.00  0.00    +0.000 NA
ATOM     28  C   UNL     1      44.362   3.092  12.075  0.00  0.00    +0.000 A 
ATOM     29  N   UNL     1      45.489   2.824  12.809  0.00  0.00    +0.000 N 
ATOM     30  C   UNL     1      46.426   3.777  13.119  0.00  0.00    +0.000 A 
ATOM     31  O   UNL     1      47.452   3.490  13.729  0.00  0.00    +0.000 OA
ATOM     32  C   UNL     1      46.106   5.113  12.648  0.00  0.00    +0.000 A 
ATOM     33  H   UNL     1      45.684   1.883  13.122  0.00  0.00    +0.000 HD
ENDBRANCH  20  23
ENDBRANCH  18  19
ENDBRANCH   4  18
TORSDOF 6
ENDMDL
MODEL 7
REMARK VINA RESULT:    -6.773      2.118      2.394
REMARK INTER + INTRA:         -10.214
REMARK INTER:                  -9.407
REMARK INTRA:                  -0.807
REMARK UNBOUND:                -1.065
REMARK  Name = 
REMARK  7 active torsions:
REMARK  status: ('A' for Active; 'I' for Inactive)
REMARK    1  A    between atoms: C_1  and  O_2
REMARK    2  A    between atoms: O_2  and  C_3
REMARK    3  A    between atoms: C_7  and  N_8
REMARK    4  A    between atoms: N_8  and  C_9
REMARK    5  A    between atoms: C_12  and  C_13
REMARK    6  A    between atoms: C_13  and  N_14
REMARK    7  A    between atoms: C_15  and  C_17
REMARK                            x       y       z     vdW  Elec       q    Type
REMARK                         _______ _______ _______ _____ _____    ______ ____
ROOT
ATOM      1  C   UNL     1      45.132   6.406  11.853  0.00  0.00    +0.000 A 
ATOM      2  N   UNL     1      45.913   5.576  12.587  0.00  0.00    +0.000 NA
ATOM      3  C   UNL     1      46.905   6.103  13.333  0.00  0.00    +0.000 A 
ATOM      4  C   UNL     1      47.169   7.461  13.413  0.00  0.00    +0.000 A 
ATOM      5  C   UNL     1      46.321   8.321  12.709  0.00  0.00    +0.000 A 
ATOM      6  C   UNL     1      45.279   7.794  11.941  0.00  0.00    +0.000 A 
ATOM      7 CL   UNL     1      44.256   8.875  11.067  0.00  0.00    +0.000 Cl
ENDROOT
BRANCH   1   8
ATOM      8  N   UNL     1      44.166   5.821  10.996  0.00  0.00    +0.000 N 
ATOM      9  H   UNL     1      43.688   6.532  10.450  0.00  0.00    +0.000 HD
BRANCH   8  14
ATOM     10  C   UNL     1      45.414   3.624   8.222  0.00  0.00    +0.000 A 
ATOM     11  C   UNL     1      44.978   2.380   8.673  0.00  0.00    +0.000 A 
ATOM     12  C   UNL     1      44.233   2.287   9.853  0.00  0.00    +0.000 A 
ATOM     13  C   UNL     1      43.943   3.433  10.601  0.00  0.00    +0.000 A 
ATOM     14  C   UNL     1      44.429   4.678  10.199  0.00  0.00    +0.000 A 
ATOM     15  C   UNL     1      45.120   4.760   8.980  0.00  0.00    +0.000 A 
BRANCH  10  17
ATOM     16  C   UNL     1      47.270   3.053   6.855  0.00  0.00    +0.000 C 
ATOM     17  O   UNL     1      46.128   3.867   7.081  0.00  0.00    +0.000 OA
ENDBRANCH  10  17
ENDBRANCH   8  14
ENDBRANCH   1   8
BRANCH   4  18
ATOM     18  C   UNL     1      48.372   7.954  14.158  0.00  0.00    +0.000 C 
BRANCH  18  19
ATOM     19  N   UNL     1      48.733   7.033  15.208  0.00  0.00    +0.000 N 
ATOM     20  C   UNL     1      49.203   7.483  16.416  0.00  0.00    +0.000 C 
ATOM     21  O   UNL     1      49.295   8.682  16.665  0.00  0.00    +0.000 OA
ATOM     22  H   UNL     1      48.856   6.056  14.960  0.00  0.00    +0.000 HD
BRANCH  20  23
ATOM     23  C   UNL     1      49.539   6.464  17.419  0.00  0.00    +0.000 A 
ATOM     24  C   UNL     1      50.579   5.578  17.172  0.00  0.00    +0.000 A 
ATOM     25  S   UNL     1      50.866   4.483  18.446  0.00  0.00    +0.000 S 
ATOM     26  C   UNL     1      49.579   5.121  19.356  0.00  0.00    +0.000 A 
ATOM     27  N   UNL     1      49.259   4.600  20.571  0.00  0.00    +0.000 NA
ATOM     28  C   UNL     1      48.242   5.157  21.139  0.00  0.00    +0.000 A 
ATOM     29  N   UNL     1      47.519   6.191  20.601  0.00  0.00    +0.000 N 
ATOM     30  C   UNL     1      47.823   6.771  19.395  0.00  0.00    +0.000 A 
ATOM     31  O   UNL     1      47.190   7.732  18.970  0.00  0.00    +0.000 OA
ATOM     32  C   UNL     1      48.951   6.169  18.704  0.00  0.00    +0.000 A 
ATOM     33  H   UNL     1      46.740   6.588  21.107  0.00  0.00    +0.000 HD
ENDBRANCH  20  23
ENDBRANCH  18  19
ENDBRANCH   4  18
TORSDOF 6
ENDMDL
MODEL 8
REMARK VINA RESULT:    -6.751      2.077      2.565
REMARK INTER + INTRA:         -10.184
REMARK INTER:                  -9.204
REMARK INTRA:                  -0.980
REMARK UNBOUND:                -1.065
REMARK  Name = 
REMARK  7 active torsions:
REMARK  status: ('A' for Active; 'I' for Inactive)
REMARK    1  A    between atoms: C_1  and  O_2
REMARK    2  A    between atoms: O_2  and  C_3
REMARK    3  A    between atoms: C_7  and  N_8
REMARK    4  A    between atoms: N_8  and  C_9
REMARK    5  A    between atoms: C_12  and  C_13
REMARK    6  A    between atoms: C_13  and  N_14
REMARK    7  A    between atoms: C_15  and  C_17
REMARK                            x       y       z     vdW  Elec       q    Type
REMARK                         _______ _______ _______ _____ _____    ______ ____
ROOT
ATOM      1  C   UNL     1      45.552   5.312  10.810  0.00  0.00    +0.000 A 
ATOM      2  N   UNL     1      46.492   6.238  10.499  0.00  0.00    +0.000 NA
ATOM      3  C   UNL     1      47.106   6.907  11.495  0.00  0.00    +0.000 A 
ATOM      4  C   UNL     1      46.846   6.693  12.839  0.00  0.00    +0.000 A 
ATOM      5  C   UNL     1      45.926   5.692  13.163  0.00  0.00    +0.000 A 
ATOM      6  C   UNL     1      45.290   4.977  12.143  0.00  0.00    +0.000 A 
ATOM      7 CL   UNL     1      44.144   3.758  12.566  0.00  0.00    +0.000 Cl
ENDROOT
BRANCH   1   8
ATOM      8  N   UNL     1      44.847   4.699   9.744  0.00  0.00    +0.000 N 
ATOM      9  H   UNL     1      44.242   5.369   9.277  0.00  0.00    +0.000 HD
BRANCH   8  14
ATOM     10  C   UNL     1      46.107   1.613   8.021  0.00  0.00    +0.000 A 
ATOM     11  C   UNL     1      46.654   2.176   6.870  0.00  0.00    +0.000 A 
ATOM     12  C   UNL     1      46.650   3.564   6.703  0.00  0.00    +0.000 A 
ATOM     13  C   UNL     1      46.077   4.394   7.670  0.00  0.00    +0.000 A 
ATOM     14  C   UNL     1      45.465   3.844   8.797  0.00  0.00    +0.000 A 
ATOM     15  C   UNL     1      45.534   2.453   8.979  0.00  0.00    +0.000 A 
BRANCH  10  17
ATOM     16  C   UNL     1      46.646  -0.613   7.394  0.00  0.00    +0.000 C 
ATOM     17  O   UNL     1      46.059   0.281   8.329  0.00  0.00    +0.000 OA
ENDBRANCH  10  17
ENDBRANCH   8  14
ENDBRANCH   1   8
BRANCH   4  18
ATOM     18  C   UNL     1      47.472   7.572  13.879  0.00  0.00    +0.000 C 
BRANCH  18  19
ATOM     19  N   UNL     1      47.515   6.900  15.155  0.00  0.00    +0.000 N 
ATOM     20  C   UNL     1      48.696   6.427  15.669  0.00  0.00    +0.000 C 
ATOM     21  O   UNL     1      49.764   6.593  15.086  0.00  0.00    +0.000 OA
ATOM     22  H   UNL     1      46.637   6.578  15.550  0.00  0.00    +0.000 HD
BRANCH  20  23
ATOM     23  C   UNL     1      48.631   5.761  16.976  0.00  0.00    +0.000 A 
ATOM     24  C   UNL     1      48.880   4.398  17.062  0.00  0.00    +0.000 A 
ATOM     25  S   UNL     1      48.803   3.784  18.650  0.00  0.00    +0.000 S 
ATOM     26  C   UNL     1      48.386   5.309  19.277  0.00  0.00    +0.000 A 
ATOM     27  N   UNL     1      48.145   5.475  20.605  0.00  0.00    +0.000 NA
ATOM     28  C   UNL     1      47.809   6.675  20.940  0.00  0.00    +0.000 A 
ATOM     29  N   UNL     1      47.695   7.725  20.065  0.00  0.00    +0.000 N 
ATOM     30  C   UNL     1      47.960   7.615  18.724  0.00  0.00    +0.000 A 
ATOM     31  O   UNL     1      47.904   8.589  17.979  0.00  0.00    +0.000 OA
ATOM     32  C   UNL     1      48.327   6.278  18.289  0.00  0.00    +0.000 A 
ATOM     33  H   UNL     1      47.438   8.644  20.399  0.00  0.00    +0.000 HD
ENDBRANCH  20  23
ENDBRANCH  18  19
ENDBRANCH   4  18
TORSDOF 6
ENDMDL
MODEL 9
REMARK VINA RESULT:    -6.150      2.393      3.273
REMARK INTER + INTRA:          -9.372
REMARK INTER:                  -8.356
REMARK INTRA:                  -1.017
REMARK UNBOUND:                -1.065
REMARK  Name = 
REMARK  7 active torsions:
REMARK  status: ('A' for Active; 'I' for Inactive)
REMARK    1  A    between atoms: C_1  and  O_2
REMARK    2  A    between atoms: O_2  and  C_3
REMARK    3  A    between atoms: C_7  and  N_8
REMARK    4  A    between atoms: N_8  and  C_9
REMARK    5  A    between atoms: C_12  and  C_13
REMARK    6  A    between atoms: C_13  and  N_14
REMARK    7  A    between atoms: C_15  and  C_17
REMARK                            x       y       z     vdW  Elec       q    Type
REMARK                         _______ _______ _______ _____ _____    ______ ____
ROOT
ATOM      1  C   UNL     1      45.071   7.645  11.834  0.00  0.00    +0.000 A 
ATOM      2  N   UNL     1      46.101   6.903  12.308  0.00  0.00    +0.000 NA
ATOM      3  C   UNL     1      47.264   7.515  12.611  0.00  0.00    +0.000 A 
ATOM      4  C   UNL     1      47.470   8.880  12.483  0.00  0.00    +0.000 A 
ATOM      5  C   UNL     1      46.387   9.655  12.057  0.00  0.00    +0.000 A 
ATOM      6  C   UNL     1      45.170   9.038  11.753  0.00  0.00    +0.000 A 
ATOM      7 CL   UNL     1      43.852  10.013  11.212  0.00  0.00    +0.000 Cl
ENDROOT
BRANCH   1   8
ATOM      8  N   UNL     1      43.897   6.965  11.424  0.00  0.00    +0.000 N 
ATOM      9  H   UNL     1      43.538   7.353  10.556  0.00  0.00    +0.000 HD
BRANCH   8  14
ATOM     10  C   UNL     1      43.966   3.390  10.287  0.00  0.00    +0.000 A 
ATOM     11  C   UNL     1      43.598   2.745  11.466  0.00  0.00    +0.000 A 
ATOM     12  C   UNL     1      43.278   3.497  12.601  0.00  0.00    +0.000 A 
ATOM     13  C   UNL     1      43.351   4.893  12.572  0.00  0.00    +0.000 A 
ATOM     14  C   UNL     1      43.783   5.551  11.420  0.00  0.00    +0.000 A 
ATOM     15  C   UNL     1      44.039   4.785  10.272  0.00  0.00    +0.000 A 
BRANCH  10  17
ATOM     16  C   UNL     1      44.984   3.578   8.149  0.00  0.00    +0.000 C 
ATOM     17  O   UNL     1      44.283   2.788   9.100  0.00  0.00    +0.000 OA
ENDBRANCH  10  17
ENDBRANCH   8  14
ENDBRANCH   1   8
BRANCH   4  18
ATOM     18  C   UNL     1      48.832   9.462  12.711  0.00  0.00    +0.000 C 
BRANCH  18  19
ATOM     19  N   UNL     1      49.650   8.558  13.482  0.00  0.00    +0.000 N 
ATOM     20  C   UNL     1      50.321   8.986  14.599  0.00  0.00    +0.000 C 
ATOM     21  O   UNL     1      50.220  10.139  15.010  0.00  0.00    +0.000 OA
ATOM     22  H   UNL     1      49.905   7.672  13.058  0.00  0.00    +0.000 HD
BRANCH  20  23
ATOM     23  C   UNL     1      51.123   7.985  15.315  0.00  0.00    +0.000 A 
ATOM     24  C   UNL     1      52.509   8.085  15.305  0.00  0.00    +0.000 A 
ATOM     25  S   UNL     1      53.291   6.872  16.211  0.00  0.00    +0.000 S 
ATOM     26  C   UNL     1      51.810   6.139  16.611  0.00  0.00    +0.000 A 
ATOM     27  N   UNL     1      51.773   5.007  17.364  0.00  0.00    +0.000 NA
ATOM     28  C   UNL     1      50.586   4.540  17.566  0.00  0.00    +0.000 A 
ATOM     29  N   UNL     1      49.434   5.106  17.084  0.00  0.00    +0.000 N 
ATOM     30  C   UNL     1      49.417   6.264  16.349  0.00  0.00    +0.000 A 
ATOM     31  O   UNL     1      48.363   6.773  15.982  0.00  0.00    +0.000 OA
ATOM     32  C   UNL     1      50.731   6.824  16.077  0.00  0.00    +0.000 A 
ATOM     33  H   UNL     1      48.535   4.692  17.291  0.00  0.00    +0.000 HD
ENDBRANCH  20  23
ENDBRANCH  18  19
ENDBRANCH   4  18
TORSDOF 6
ENDMDL
