MODEL 1
REMARK VINA RESULT:    -8.101      0.000      0.000
REMARK INTER + INTRA:         -11.916
REMARK INTER:                 -10.942
REMARK INTRA:                  -0.973
REMARK UNBOUND:                -0.973
REMARK  Name = 
REMARK  6 active torsions:
REMARK  status: ('A' for Active; 'I' for Inactive)
REMARK    1  A    between atoms: C_2  and  C_19
REMARK    2  A    between atoms: N_3  and  C_4
REMARK    3  A    between atoms: C_4  and  C_5
REMARK    4  A    between atoms: C_8  and  C_9
REMARK    5  A    between atoms: C_9  and  C_10
REMARK    6  A    between atoms: C_10  and  N_11
REMARK                            x       y       z     vdW  Elec       q    Type
REMARK                         _______ _______ _______ _____ _____    ______ ____
ROOT
ATOM      1  C   UNL     1      46.856   7.945  13.235  0.00  0.00    +0.000 C 
ENDROOT
BRANCH   1   2
ATOM      2  C   UNL     1      46.037   7.021  12.375  0.00  0.00    +0.000 A 
ATOM      3  C   UNL     1      46.515   6.641  11.117  0.00  0.00    +0.000 A 
ATOM      4  C   UNL     1      45.825   5.706  10.342  0.00  0.00    +0.000 A 
ATOM      5  C   UNL     1      44.624   5.136  10.788  0.00  0.00    +0.000 A 
ATOM      6  C   UNL     1      44.131   5.541  12.038  0.00  0.00    +0.000 A 
ATOM      7  C   UNL     1      44.824   6.479  12.819  0.00  0.00    +0.000 A 
BRANCH   5   8
ATOM      8  C   UNL     1      43.851   4.109   9.972  0.00  0.00    +0.000 C 
BRANCH   8   9
ATOM      9  C   UNL     1      44.714   3.017   9.327  0.00  0.00    +0.000 C 
BRANCH   9  10
ATOM     10  N   UNL     1      45.082   3.333   7.959  0.00  0.00    +0.000 N 
ATOM     11  C   UNL     1      46.161   2.670   7.420  0.00  0.00    +0.000 C 
ATOM     12  N   UNL     1      46.937   3.228   6.490  0.00  0.00    +0.000 NA
ATOM     13  C   UNL     1      47.947   2.364   6.308  0.00  0.00    +0.000 C 
ATOM     14  N   UNL     1      47.826   1.289   7.108  0.00  0.00    +0.000 NA
ATOM     15  N   UNL     1      46.670   1.485   7.813  0.00  0.00    +0.000 NA
ATOM     16  H   UNL     1      45.114   4.315   7.733  0.00  0.00    +0.000 HD
ENDBRANCH   9  10
ENDBRANCH   8   9
ENDBRANCH   5   8
ENDBRANCH   1   2
BRANCH   1  19
ATOM     17  O   UNL     1      49.301   6.684  13.492  0.00  0.00    +0.000 OA
ATOM     18  C   UNL     1      48.583   6.770  14.484  0.00  0.00    +0.000 C 
ATOM     19  N   UNL     1      47.330   7.335  14.447  0.00  0.00    +0.000 N 
ATOM     20  H   UNL     1      46.895   7.638  15.313  0.00  0.00    +0.000 HD
BRANCH  18  21
ATOM     21  C   UNL     1      49.009   6.227  15.774  0.00  0.00    +0.000 A 
ATOM     22  C   UNL     1      50.025   6.831  16.501  0.00  0.00    +0.000 A 
ATOM     23  S   UNL     1      50.337   6.056  17.992  0.00  0.00    +0.000 S 
ATOM     24  C   UNL     1      49.109   4.909  17.720  0.00  0.00    +0.000 A 
ATOM     25  N   UNL     1      48.813   3.956  18.643  0.00  0.00    +0.000 NA
ATOM     26  C   UNL     1      47.841   3.175  18.305  0.00  0.00    +0.000 A 
ATOM     27  N   UNL     1      47.144   3.258  17.124  0.00  0.00    +0.000 N 
ATOM     28  C   UNL     1      47.435   4.168  16.149  0.00  0.00    +0.000 A 
ATOM     29  O   UNL     1      46.854   4.151  15.068  0.00  0.00    +0.000 OA
ATOM     30  C   UNL     1      48.495   5.092  16.495  0.00  0.00    +0.000 A 
ATOM     31  H   UNL     1      46.413   2.594  16.904  0.00  0.00    +0.000 HD
ENDBRANCH  18  21
ENDBRANCH   1  19
TORSDOF 6
ENDMDL
MODEL 2
REMARK VINA RESULT:    -7.797      1.621      1.841
REMARK INTER + INTRA:         -11.505
REMARK INTER:                 -10.785
REMARK INTRA:                  -0.720
REMARK UNBOUND:                -0.973
REMARK  Name = 
REMARK  6 active torsions:
REMARK  status: ('A' for Active; 'I' for Inactive)
REMARK    1  A    between atoms: C_2  and  C_19
REMARK    2  A    between atoms: N_3  and  C_4
REMARK    3  A    between atoms: C_4  and  C_5
REMARK    4  A    between atoms: C_8  and  C_9
REMARK    5  A    between atoms: C_9  and  C_10
REMARK    6  A    between atoms: C_10  and  N_11
REMARK                            x       y       z     vdW  Elec       q    Type
REMARK                         _______ _______ _______ _____ _____    ______ ____
ROOT
ATOM      1  C   UNL     1      48.126   6.884  13.609  0.00  0.00    +0.000 C 
ENDROOT
BRANCH   1   2
ATOM      2  C   UNL     1      47.034   6.112  12.920  0.00  0.00    +0.000 A 
ATOM      3  C   UNL     1      46.541   6.556  11.689  0.00  0.00    +0.000 A 
ATOM      4  C   UNL     1      45.601   5.804  10.981  0.00  0.00    +0.000 A 
ATOM      5  C   UNL     1      45.107   4.595  11.487  0.00  0.00    +0.000 A 
ATOM      6  C   UNL     1      45.580   4.164  12.736  0.00  0.00    +0.000 A 
ATOM      7  C   UNL     1      46.526   4.917  13.448  0.00  0.00    +0.000 A 
BRANCH   5   8
ATOM      8  C   UNL     1      44.088   3.747  10.737  0.00  0.00    +0.000 C 
BRANCH   8   9
ATOM      9  C   UNL     1      44.692   2.657   9.842  0.00  0.00    +0.000 C 
BRANCH   9  10
ATOM     10  N   UNL     1      45.161   3.175   8.570  0.00  0.00    +0.000 N 
ATOM     11  C   UNL     1      46.110   2.443   7.894  0.00  0.00    +0.000 C 
ATOM     12  N   UNL     1      47.010   3.022   7.099  0.00  0.00    +0.000 NA
ATOM     13  C   UNL     1      47.841   2.036   6.730  0.00  0.00    +0.000 C 
ATOM     14  N   UNL     1      47.489   0.862   7.283  0.00  0.00    +0.000 NA
ATOM     15  N   UNL     1      46.367   1.126   8.022  0.00  0.00    +0.000 NA
ATOM     16  H   UNL     1      45.388   4.158   8.559  0.00  0.00    +0.000 HD
ENDBRANCH   9  10
ENDBRANCH   8   9
ENDBRANCH   5   8
ENDBRANCH   1   2
BRANCH   1  19
ATOM     17  O   UNL     1      50.251   6.658  15.359  0.00  0.00    +0.000 OA
ATOM     18  C   UNL     1      49.128   6.829  15.826  0.00  0.00    +0.000 C 
ATOM     19  N   UNL     1      48.002   6.905  15.041  0.00  0.00    +0.000 N 
ATOM     20  H   UNL     1      47.157   7.319  15.422  0.00  0.00    +0.000 HD
BRANCH  18  21
ATOM     21  C   UNL     1      48.916   6.920  17.271  0.00  0.00    +0.000 A 
ATOM     22  C   UNL     1      48.634   8.137  17.874  0.00  0.00    +0.000 A 
ATOM     23  S   UNL     1      48.386   8.009  19.560  0.00  0.00    +0.000 S 
ATOM     24  C   UNL     1      48.625   6.325  19.527  0.00  0.00    +0.000 A 
ATOM     25  N   UNL     1      48.512   5.571  20.653  0.00  0.00    +0.000 NA
ATOM     26  C   UNL     1      48.696   4.306  20.465  0.00  0.00    +0.000 A 
ATOM     27  N   UNL     1      48.988   3.729  19.252  0.00  0.00    +0.000 N 
ATOM     28  C   UNL     1      49.155   4.449  18.105  0.00  0.00    +0.000 A 
ATOM     29  O   UNL     1      49.508   3.910  17.060  0.00  0.00    +0.000 OA
ATOM     30  C   UNL     1      48.924   5.871  18.256  0.00  0.00    +0.000 A 
ATOM     31  H   UNL     1      49.152   2.734  19.177  0.00  0.00    +0.000 HD
ENDBRANCH  18  21
ENDBRANCH   1  19
TORSDOF 6
ENDMDL
MODEL 3
REMARK VINA RESULT:    -7.384      4.507      9.205
REMARK INTER + INTRA:         -10.948
REMARK INTER:                 -10.237
REMARK INTRA:                  -0.711
REMARK UNBOUND:                -0.973
REMARK  Name = 
REMARK  6 active torsions:
REMARK  status: ('A' for Active; 'I' for Inactive)
REMARK    1  A    between atoms: C_2  and  C_19
REMARK    2  A    between atoms: N_3  and  C_4
REMARK    3  A    between atoms: C_4  and  C_5
REMARK    4  A    between atoms: C_8  and  C_9
REMARK    5  A    between atoms: C_9  and  C_10
REMARK    6  A    between atoms: C_10  and  N_11
REMARK                            x       y       z     vdW  Elec       q    Type
REMARK                         _______ _______ _______ _____ _____    ______ ____
ROOT
ATOM      1  C   UNL     1      47.188   3.373  16.764  0.00  0.00    +0.000 C 
ENDROOT
BRANCH   1   2
ATOM      2  C   UNL     1      48.667   3.270  17.025  0.00  0.00    +0.000 A 
ATOM      3  C   UNL     1      49.349   4.361  17.574  0.00  0.00    +0.000 A 
ATOM      4  C   UNL     1      50.699   4.259  17.921  0.00  0.00    +0.000 A 
ATOM      5  C   UNL     1      51.416   3.073  17.713  0.00  0.00    +0.000 A 
ATOM      6  C   UNL     1      50.737   1.989  17.135  0.00  0.00    +0.000 A 
ATOM      7  C   UNL     1      49.381   2.089  16.788  0.00  0.00    +0.000 A 
BRANCH   5   8
ATOM      8  C   UNL     1      52.884   2.925  18.087  0.00  0.00    +0.000 C 
BRANCH   8   9
ATOM      9  C   UNL     1      53.525   1.595  17.669  0.00  0.00    +0.000 C 
BRANCH   9  10
ATOM     10  N   UNL     1      53.780   0.720  18.798  0.00  0.00    +0.000 N 
ATOM     11  C   UNL     1      54.191  -0.565  18.529  0.00  0.00    +0.000 C 
ATOM     12  N   UNL     1      53.901  -1.582  19.341  0.00  0.00    +0.000 NA
ATOM     13  C   UNL     1      54.332  -2.679  18.702  0.00  0.00    +0.000 C 
ATOM     14  N   UNL     1      54.872  -2.374  17.508  0.00  0.00    +0.000 NA
ATOM     15  N   UNL     1      54.789  -1.011  17.406  0.00  0.00    +0.000 NA
ATOM     16  H   UNL     1      53.078   0.730  19.523  0.00  0.00    +0.000 HD
ENDBRANCH   9  10
ENDBRANCH   8   9
ENDBRANCH   5   8
ENDBRANCH   1   2
BRANCH   1  19
ATOM     17  O   UNL     1      47.241   3.128  14.012  0.00  0.00    +0.000 OA
ATOM     18  C   UNL     1      46.853   4.188  14.495  0.00  0.00    +0.000 C 
ATOM     19  N   UNL     1      46.837   4.425  15.849  0.00  0.00    +0.000 N 
ATOM     20  H   UNL     1      46.262   5.178  16.216  0.00  0.00    +0.000 HD
BRANCH  18  21
ATOM     21  C   UNL     1      46.421   5.295  13.641  0.00  0.00    +0.000 A 
ATOM     22  C   UNL     1      47.260   6.370  13.390  0.00  0.00    +0.000 A 
ATOM     23  S   UNL     1      46.571   7.529  12.340  0.00  0.00    +0.000 S 
ATOM     24  C   UNL     1      45.144   6.616  12.173  0.00  0.00    +0.000 A 
ATOM     25  N   UNL     1      44.132   7.025  11.363  0.00  0.00    +0.000 NA
ATOM     26  C   UNL     1      43.127   6.215  11.320  0.00  0.00    +0.000 A 
ATOM     27  N   UNL     1      43.042   5.034  12.019  0.00  0.00    +0.000 N 
ATOM     28  C   UNL     1      44.012   4.605  12.876  0.00  0.00    +0.000 A 
ATOM     29  O   UNL     1      43.861   3.594  13.555  0.00  0.00    +0.000 OA
ATOM     30  C   UNL     1      45.178   5.462  12.934  0.00  0.00    +0.000 A 
ATOM     31  H   UNL     1      42.212   4.459  11.967  0.00  0.00    +0.000 HD
ENDBRANCH  18  21
ENDBRANCH   1  19
TORSDOF 6
ENDMDL
MODEL 4
REMARK VINA RESULT:    -7.147      2.859      3.810
REMARK INTER + INTRA:         -10.627
REMARK INTER:                  -9.876
REMARK INTRA:                  -0.752
REMARK UNBOUND:                -0.973
REMARK  Name = 
REMARK  6 active torsions:
REMARK  status: ('A' for Active; 'I' for Inactive)
REMARK    1  A    between atoms: C_2  and  C_19
REMARK    2  A    between atoms: N_3  and  C_4
REMARK    3  A    between atoms: C_4  and  C_5
REMARK    4  A    between atoms: C_8  and  C_9
REMARK    5  A    between atoms: C_9  and  C_10
REMARK    6  A    between atoms: C_10  and  N_11
REMARK                            x       y       z     vdW  Elec       q    Type
REMARK                         _______ _______ _______ _____ _____    ______ ____
ROOT
ATOM      1  C   UNL     1      47.575   4.510  16.514  0.00  0.00    +0.000 C 
ENDROOT
BRANCH   1   2
ATOM      2  C   UNL     1      47.264   4.880  15.089  0.00  0.00    +0.000 A 
ATOM      3  C   UNL     1      46.386   4.087  14.344  0.00  0.00    +0.000 A 
ATOM      4  C   UNL     1      46.002   4.462  13.055  0.00  0.00    +0.000 A 
ATOM      5  C   UNL     1      46.497   5.630  12.459  0.00  0.00    +0.000 A 
ATOM      6  C   UNL     1      47.401   6.410  13.197  0.00  0.00    +0.000 A 
ATOM      7  C   UNL     1      47.787   6.035  14.493  0.00  0.00    +0.000 A 
BRANCH   5   8
ATOM      8  C   UNL     1      46.092   6.072  11.059  0.00  0.00    +0.000 C 
BRANCH   8   9
ATOM      9  C   UNL     1      45.161   5.102  10.321  0.00  0.00    +0.000 C 
BRANCH   9  10
ATOM     10  N   UNL     1      45.348   5.135   8.882  0.00  0.00    +0.000 N 
ATOM     11  C   UNL     1      45.767   3.978   8.267  0.00  0.00    +0.000 C 
ATOM     12  N   UNL     1      46.509   3.998   7.159  0.00  0.00    +0.000 NA
ATOM     13  C   UNL     1      46.839   2.718   6.931  0.00  0.00    +0.000 C 
ATOM     14  N   UNL     1      46.331   1.903   7.874  0.00  0.00    +0.000 NA
ATOM     15  N   UNL     1      45.633   2.716   8.725  0.00  0.00    +0.000 NA
ATOM     16  H   UNL     1      45.852   5.934   8.528  0.00  0.00    +0.000 HD
ENDBRANCH   9  10
ENDBRANCH   8   9
ENDBRANCH   5   8
ENDBRANCH   1   2
BRANCH   1  19
ATOM     17  O   UNL     1      48.813   4.829  18.964  0.00  0.00    +0.000 OA
ATOM     18  C   UNL     1      49.483   4.411  18.023  0.00  0.00    +0.000 C 
ATOM     19  N   UNL     1      48.971   4.266  16.755  0.00  0.00    +0.000 N 
ATOM     20  H   UNL     1      49.453   3.669  16.089  0.00  0.00    +0.000 HD
BRANCH  18  21
ATOM     21  C   UNL     1      50.898   4.082  18.190  0.00  0.00    +0.000 A 
ATOM     22  C   UNL     1      51.772   4.976  18.790  0.00  0.00    +0.000 A 
ATOM     23  S   UNL     1      53.367   4.376  18.917  0.00  0.00    +0.000 S 
ATOM     24  C   UNL     1      52.930   2.897  18.196  0.00  0.00    +0.000 A 
ATOM     25  N   UNL     1      53.833   1.894  18.034  0.00  0.00    +0.000 NA
ATOM     26  C   UNL     1      53.347   0.825  17.495  0.00  0.00    +0.000 A 
ATOM     27  N   UNL     1      52.040   0.672  17.099  0.00  0.00    +0.000 N 
ATOM     28  C   UNL     1      51.110   1.666  17.201  0.00  0.00    +0.000 A 
ATOM     29  O   UNL     1      49.977   1.526  16.750  0.00  0.00    +0.000 OA
ATOM     30  C   UNL     1      51.596   2.875  17.832  0.00  0.00    +0.000 A 
ATOM     31  H   UNL     1      51.728  -0.180  16.653  0.00  0.00    +0.000 HD
ENDBRANCH  18  21
ENDBRANCH   1  19
TORSDOF 6
ENDMDL
MODEL 5
REMARK VINA RESULT:    -7.005      1.906      2.381
REMARK INTER + INTRA:         -10.435
REMARK INTER:                  -9.934
REMARK INTRA:                  -0.501
REMARK UNBOUND:                -0.973
REMARK  Name = 
REMARK  6 active torsions:
REMARK  status: ('A' for Active; 'I' for Inactive)
REMARK    1  A    between atoms: C_2  and  C_19
REMARK    2  A    between atoms: N_3  and  C_4
REMARK    3  A    between atoms: C_4  and  C_5
REMARK    4  A    between atoms: C_8  and  C_9
REMARK    5  A    between atoms: C_9  and  C_10
REMARK    6  A    between atoms: C_10  and  N_11
REMARK                            x       y       z     vdW  Elec       q    Type
REMARK                         _______ _______ _______ _____ _____    ______ ____
ROOT
ATOM      1  C   UNL     1      47.466   6.564  13.514  0.00  0.00    +0.000 C 
ENDROOT
BRANCH   1   2
ATOM      2  C   UNL     1      46.554   5.932  12.498  0.00  0.00    +0.000 A 
ATOM      3  C   UNL     1      46.499   6.449  11.200  0.00  0.00    +0.000 A 
ATOM      4  C   UNL     1      45.739   5.820  10.211  0.00  0.00    +0.000 A 
ATOM      5  C   UNL     1      44.993   4.667  10.490  0.00  0.00    +0.000 A 
ATOM      6  C   UNL     1      45.027   4.165  11.800  0.00  0.00    +0.000 A 
ATOM      7  C   UNL     1      45.791   4.795  12.795  0.00  0.00    +0.000 A 
BRANCH   5   8
ATOM      8  C   UNL     1      44.161   3.952   9.434  0.00  0.00    +0.000 C 
BRANCH   8   9
ATOM      9  C   UNL     1      44.451   2.452   9.292  0.00  0.00    +0.000 C 
BRANCH   9  10
ATOM     10  N   UNL     1      45.860   2.173   9.084  0.00  0.00    +0.000 N 
ATOM     11  C   UNL     1      46.375   2.397   7.827  0.00  0.00    +0.000 C 
ATOM     12  N   UNL     1      47.393   1.683   7.346  0.00  0.00    +0.000 NA
ATOM     13  C   UNL     1      47.528   2.075   6.070  0.00  0.00    +0.000 C 
ATOM     14  N   UNL     1      46.615   3.006   5.742  0.00  0.00    +0.000 NA
ATOM     15  N   UNL     1      45.882   3.218   6.878  0.00  0.00    +0.000 NA
ATOM     16  H   UNL     1      46.190   1.297   9.457  0.00  0.00    +0.000 HD
ENDBRANCH   9  10
ENDBRANCH   8   9
ENDBRANCH   5   8
ENDBRANCH   1   2
BRANCH   1  19
ATOM     17  O   UNL     1      49.620   6.539  15.245  0.00  0.00    +0.000 OA
ATOM     18  C   UNL     1      48.589   5.967  15.589  0.00  0.00    +0.000 C 
ATOM     19  N   UNL     1      47.482   5.881  14.779  0.00  0.00    +0.000 N 
ATOM     20  H   UNL     1      46.580   5.658  15.190  0.00  0.00    +0.000 HD
BRANCH  18  21
ATOM     21  C   UNL     1      48.495   5.294  16.885  0.00  0.00    +0.000 A 
ATOM     22  C   UNL     1      48.565   3.912  16.976  0.00  0.00    +0.000 A 
ATOM     23  S   UNL     1      48.471   3.339  18.584  0.00  0.00    +0.000 S 
ATOM     24  C   UNL     1      48.358   4.920  19.202  0.00  0.00    +0.000 A 
ATOM     25  N   UNL     1      48.289   5.154  20.540  0.00  0.00    +0.000 NA
ATOM     26  C   UNL     1      48.233   6.405  20.857  0.00  0.00    +0.000 A 
ATOM     27  N   UNL     1      48.235   7.443  19.956  0.00  0.00    +0.000 N 
ATOM     28  C   UNL     1      48.258   7.255  18.604  0.00  0.00    +0.000 A 
ATOM     29  O   UNL     1      48.163   8.201  17.828  0.00  0.00    +0.000 OA
ATOM     30  C   UNL     1      48.356   5.869  18.197  0.00  0.00    +0.000 A 
ATOM     31  H   UNL     1      48.157   8.402  20.267  0.00  0.00    +0.000 HD
ENDBRANCH  18  21
ENDBRANCH   1  19
TORSDOF 6
ENDMDL
MODEL 6
REMARK VINA RESULT:    -6.913      3.546      7.720
REMARK INTER + INTRA:         -10.312
REMARK INTER:                  -8.649
REMARK INTRA:                  -1.663
REMARK UNBOUND:                -0.973
REMARK  Name = 
REMARK  6 active torsions:
REMARK  status: ('A' for Active; 'I' for Inactive)
REMARK    1  A    between atoms: C_2  and  C_19
REMARK    2  A    between atoms: N_3  and  C_4
REMARK    3  A    between atoms: C_4  and  C_5
REMARK    4  A    between atoms: C_8  and  C_9
REMARK    5  A    between atoms: C_9  and  C_10
REMARK    6  A    between atoms: C_10  and  N_11
REMARK                            x       y       z     vdW  Elec       q    Type
REMARK                         _______ _______ _______ _____ _____    ______ ____
ROOT
ATOM      1  C   UNL     1      48.478   9.027  15.226  0.00  0.00    +0.000 C 
ENDROOT
BRANCH   1   2
ATOM      2  C   UNL     1      49.451   8.221  16.045  0.00  0.00    +0.000 A 
ATOM      3  C   UNL     1      49.291   8.145  17.432  0.00  0.00    +0.000 A 
ATOM      4  C   UNL     1      50.116   7.323  18.204  0.00  0.00    +0.000 A 
ATOM      5  C   UNL     1      51.141   6.568  17.619  0.00  0.00    +0.000 A 
ATOM      6  C   UNL     1      51.319   6.667  16.230  0.00  0.00    +0.000 A 
ATOM      7  C   UNL     1      50.489   7.490  15.453  0.00  0.00    +0.000 A 
BRANCH   5   8
ATOM      8  C   UNL     1      52.053   5.656  18.429  0.00  0.00    +0.000 C 
BRANCH   8   9
ATOM      9  C   UNL     1      51.821   4.155  18.212  0.00  0.00    +0.000 C 
BRANCH   9  10
ATOM     10  N   UNL     1      50.543   3.707  18.734  0.00  0.00    +0.000 N 
ATOM     11  C   UNL     1      49.627   3.210  17.836  0.00  0.00    +0.000 C 
ATOM     12  N   UNL     1      48.313   3.320  18.036  0.00  0.00    +0.000 NA
ATOM     13  C   UNL     1      47.744   2.859  16.913  0.00  0.00    +0.000 C 
ATOM     14  N   UNL     1      48.668   2.475  16.015  0.00  0.00    +0.000 NA
ATOM     15  N   UNL     1      49.878   2.691  16.617  0.00  0.00    +0.000 NA
ATOM     16  H   UNL     1      50.101   4.329  19.393  0.00  0.00    +0.000 HD
ENDBRANCH   9  10
ENDBRANCH   8   9
ENDBRANCH   5   8
ENDBRANCH   1   2
BRANCH   1  19
ATOM     17  O   UNL     1      48.106   8.785  12.499  0.00  0.00    +0.000 OA
ATOM     18  C   UNL     1      47.371   8.145  13.246  0.00  0.00    +0.000 C 
ATOM     19  N   UNL     1      47.445   8.235  14.616  0.00  0.00    +0.000 N 
ATOM     20  H   UNL     1      47.032   7.503  15.186  0.00  0.00    +0.000 HD
BRANCH  18  21
ATOM     21  C   UNL     1      46.329   7.268  12.711  0.00  0.00    +0.000 A 
ATOM     22  C   UNL     1      45.321   7.772  11.903  0.00  0.00    +0.000 A 
ATOM     23  S   UNL     1      44.232   6.571  11.360  0.00  0.00    +0.000 S 
ATOM     24  C   UNL     1      45.090   5.345  12.169  0.00  0.00    +0.000 A 
ATOM     25  N   UNL     1      44.710   4.042  12.086  0.00  0.00    +0.000 NA
ATOM     26  C   UNL     1      45.474   3.225  12.733  0.00  0.00    +0.000 A 
ATOM     27  N   UNL     1      46.580   3.595  13.459  0.00  0.00    +0.000 N 
ATOM     28  C   UNL     1      46.974   4.893  13.607  0.00  0.00    +0.000 A 
ATOM     29  O   UNL     1      47.911   5.195  14.341  0.00  0.00    +0.000 OA
ATOM     30  C   UNL     1      46.170   5.847  12.872  0.00  0.00    +0.000 A 
ATOM     31  H   UNL     1      47.120   2.909  13.971  0.00  0.00    +0.000 HD
ENDBRANCH  18  21
ENDBRANCH   1  19
TORSDOF 6
ENDMDL
MODEL 7
REMARK VINA RESULT:    -6.882      2.609      3.283
REMARK INTER + INTRA:         -10.270
REMARK INTER:                  -9.381
REMARK INTRA:                  -0.889
REMARK UNBOUND:                -0.973
REMARK  Name = 
REMARK  6 active torsions:
REMARK  status: ('A' for Active; 'I' for Inactive)
REMARK    1  A    between atoms: C_2  and  C_19
REMARK    2  A    between atoms: N_3  and  C_4
REMARK    3  A    between atoms: C_4  and  C_5
REMARK    4  A    between atoms: C_8  and  C_9
REMARK    5  A    between atoms: C_9  and  C_10
REMARK    6  A    between atoms: C_10  and  N_11
REMARK                            x       y       z     vdW  Elec       q    Type
REMARK                         _______ _______ _______ _____ _____    ______ ____
ROOT
ATOM      1  C   UNL     1      47.404   4.332  15.609  0.00  0.00    +0.000 C 
ENDROOT
BRANCH   1   2
ATOM      2  C   UNL     1      46.880   4.617  14.228  0.00  0.00    +0.000 A 
ATOM      3  C   UNL     1      46.139   3.641  13.554  0.00  0.00    +0.000 A 
ATOM      4  C   UNL     1      45.556   3.915  12.314  0.00  0.00    +0.000 A 
ATOM      5  C   UNL     1      45.711   5.164  11.697  0.00  0.00    +0.000 A 
ATOM      6  C   UNL     1      46.479   6.132  12.362  0.00  0.00    +0.000 A 
ATOM      7  C   UNL     1      47.064   5.860  13.608  0.00  0.00    +0.000 A 
BRANCH   5   8
ATOM      8  C   UNL     1      45.082   5.498  10.352  0.00  0.00    +0.000 C 
BRANCH   8   9
ATOM      9  C   UNL     1      44.517   4.293   9.587  0.00  0.00    +0.000 C 
BRANCH   9  10
ATOM     10  N   UNL     1      45.129   4.124   8.282  0.00  0.00    +0.000 N 
ATOM     11  C   UNL     1      45.732   2.917   8.013  0.00  0.00    +0.000 C 
ATOM     12  N   UNL     1      46.773   2.820   7.185  0.00  0.00    +0.000 NA
ATOM     13  C   UNL     1      47.177   1.544   7.273  0.00  0.00    +0.000 C 
ATOM     14  N   UNL     1      46.422   0.848   8.142  0.00  0.00    +0.000 NA
ATOM     15  N   UNL     1      45.487   1.732   8.607  0.00  0.00    +0.000 NA
ATOM     16  H   UNL     1      45.702   4.892   7.968  0.00  0.00    +0.000 HD
ENDBRANCH   9  10
ENDBRANCH   8   9
ENDBRANCH   5   8
ENDBRANCH   1   2
BRANCH   1  19
ATOM     17  O   UNL     1      49.804   4.483  16.970  0.00  0.00    +0.000 OA
ATOM     18  C   UNL     1      49.104   5.490  16.911  0.00  0.00    +0.000 C 
ATOM     19  N   UNL     1      47.872   5.503  16.300  0.00  0.00    +0.000 N 
ATOM     20  H   UNL     1      47.461   6.391  16.028  0.00  0.00    +0.000 HD
BRANCH  18  21
ATOM     21  C   UNL     1      49.528   6.743  17.537  0.00  0.00    +0.000 A 
ATOM     22  C   UNL     1      50.605   7.460  17.037  0.00  0.00    +0.000 A 
ATOM     23  S   UNL     1      50.904   8.907  17.894  0.00  0.00    +0.000 S 
ATOM     24  C   UNL     1      49.591   8.629  18.940  0.00  0.00    +0.000 A 
ATOM     25  N   UNL     1      49.254   9.522  19.908  0.00  0.00    +0.000 NA
ATOM     26  C   UNL     1      48.221   9.184  20.605  0.00  0.00    +0.000 A 
ATOM     27  N   UNL     1      47.496   8.030  20.423  0.00  0.00    +0.000 N 
ATOM     28  C   UNL     1      47.823   7.085  19.495  0.00  0.00    +0.000 A 
ATOM     29  O   UNL     1      47.210   6.023  19.425  0.00  0.00    +0.000 OA
ATOM     30  C   UNL     1      48.956   7.433  18.662  0.00  0.00    +0.000 A 
ATOM     31  H   UNL     1      46.714   7.808  21.024  0.00  0.00    +0.000 HD
ENDBRANCH  18  21
ENDBRANCH   1  19
TORSDOF 6
ENDMDL
MODEL 8
REMARK VINA RESULT:    -6.829      1.652      2.003
REMARK INTER + INTRA:         -10.198
REMARK INTER:                  -9.226
REMARK INTRA:                  -0.972
REMARK UNBOUND:                -0.973
REMARK  Name = 
REMARK  6 active torsions:
REMARK  status: ('A' for Active; 'I' for Inactive)
REMARK    1  A    between atoms: C_2  and  C_19
REMARK    2  A    between atoms: N_3  and  C_4
REMARK    3  A    between atoms: C_4  and  C_5
REMARK    4  A    between atoms: C_8  and  C_9
REMARK    5  A    between atoms: C_9  and  C_10
REMARK    6  A    between atoms: C_10  and  N_11
REMARK                            x       y       z     vdW  Elec       q    Type
REMARK                         _______ _______ _______ _____ _____    ______ ____
ROOT
ATOM      1  C   UNL     1      48.499   7.480  12.553  0.00  0.00    +0.000 C 
ENDROOT
BRANCH   1   2
ATOM      2  C   UNL     1      47.230   6.685  12.401  0.00  0.00    +0.000 A 
ATOM      3  C   UNL     1      46.206   7.166  11.581  0.00  0.00    +0.000 A 
ATOM      4  C   UNL     1      45.062   6.401  11.341  0.00  0.00    +0.000 A 
ATOM      5  C   UNL     1      44.893   5.141  11.929  0.00  0.00    +0.000 A 
ATOM      6  C   UNL     1      45.910   4.671  12.775  0.00  0.00    +0.000 A 
ATOM      7  C   UNL     1      47.061   5.437  13.015  0.00  0.00    +0.000 A 
BRANCH   5   8
ATOM      8  C   UNL     1      43.663   4.278  11.683  0.00  0.00    +0.000 C 
BRANCH   8   9
ATOM      9  C   UNL     1      43.827   3.222  10.581  0.00  0.00    +0.000 C 
BRANCH   9  10
ATOM     10  N   UNL     1      44.050   3.811   9.274  0.00  0.00    +0.000 N 
ATOM     11  C   UNL     1      45.065   3.289   8.505  0.00  0.00    +0.000 C 
ATOM     12  N   UNL     1      45.741   4.035   7.631  0.00  0.00    +0.000 NA
ATOM     13  C   UNL     1      46.725   3.245   7.177  0.00  0.00    +0.000 C 
ATOM     14  N   UNL     1      46.686   2.030   7.754  0.00  0.00    +0.000 NA
ATOM     15  N   UNL     1      45.610   2.059   8.599  0.00  0.00    +0.000 NA
ATOM     16  H   UNL     1      44.060   4.819   9.247  0.00  0.00    +0.000 HD
ENDBRANCH   9  10
ENDBRANCH   8   9
ENDBRANCH   5   8
ENDBRANCH   1   2
BRANCH   1  19
ATOM     17  O   UNL     1      49.439   8.878  14.743  0.00  0.00    +0.000 OA
ATOM     18  C   UNL     1      49.778   7.705  14.612  0.00  0.00    +0.000 C 
ATOM     19  N   UNL     1      49.403   6.941  13.532  0.00  0.00    +0.000 N 
ATOM     20  H   UNL     1      49.460   5.929  13.594  0.00  0.00    +0.000 HD
BRANCH  18  21
ATOM     21  C   UNL     1      50.651   7.056  15.590  0.00  0.00    +0.000 A 
ATOM     22  C   UNL     1      51.996   7.383  15.673  0.00  0.00    +0.000 A 
ATOM     23  S   UNL     1      52.819   6.534  16.906  0.00  0.00    +0.000 S 
ATOM     24  C   UNL     1      51.399   5.725  17.379  0.00  0.00    +0.000 A 
ATOM     25  N   UNL     1      51.392   4.860  18.428  0.00  0.00    +0.000 NA
ATOM     26  C   UNL     1      50.235   4.343  18.681  0.00  0.00    +0.000 A 
ATOM     27  N   UNL     1      49.087   4.611  17.977  0.00  0.00    +0.000 N 
ATOM     28  C   UNL     1      49.054   5.437  16.891  0.00  0.00    +0.000 A 
ATOM     29  O   UNL     1      48.030   5.579  16.228  0.00  0.00    +0.000 OA
ATOM     30  C   UNL     1      50.321   6.070  16.586  0.00  0.00    +0.000 A 
ATOM     31  H   UNL     1      48.217   4.149  18.206  0.00  0.00    +0.000 HD
ENDBRANCH  18  21
ENDBRANCH   1  19
TORSDOF 6
ENDMDL
MODEL 9
REMARK VINA RESULT:    -6.551      4.671      7.266
REMARK INTER + INTRA:          -9.822
REMARK INTER:                  -8.981
REMARK INTRA:                  -0.841
REMARK UNBOUND:                -0.973
REMARK  Name = 
REMARK  6 active torsions:
REMARK  status: ('A' for Active; 'I' for Inactive)
REMARK    1  A    between atoms: C_2  and  C_19
REMARK    2  A    between atoms: N_3  and  C_4
REMARK    3  A    between atoms: C_4  and  C_5
REMARK    4  A    between atoms: C_8  and  C_9
REMARK    5  A    between atoms: C_9  and  C_10
REMARK    6  A    between atoms: C_10  and  N_11
REMARK                            x       y       z     vdW  Elec       q    Type
REMARK                         _______ _______ _______ _____ _____    ______ ____
ROOT
ATOM      1  C   UNL     1      46.336   8.150  13.028  0.00  0.00    +0.000 C 
ENDROOT
BRANCH   1   2
ATOM      2  C   UNL     1      47.722   8.404  12.499  0.00  0.00    +0.000 A 
ATOM      3  C   UNL     1      48.594   7.330  12.299  0.00  0.00    +0.000 A 
ATOM      4  C   UNL     1      49.848   7.525  11.715  0.00  0.00    +0.000 A 
ATOM      5  C   UNL     1      50.280   8.801  11.329  0.00  0.00    +0.000 A 
ATOM      6  C   UNL     1      49.415   9.883  11.556  0.00  0.00    +0.000 A 
ATOM      7  C   UNL     1      48.154   9.688  12.142  0.00  0.00    +0.000 A 
BRANCH   5   8
ATOM      8  C   UNL     1      51.636   9.048  10.682  0.00  0.00    +0.000 C 
BRANCH   8   9
ATOM      9  C   UNL     1      52.495   7.791  10.487  0.00  0.00    +0.000 C 
BRANCH   9  10
ATOM     10  N   UNL     1      53.527   7.972   9.482  0.00  0.00    +0.000 N 
ATOM     11  C   UNL     1      53.409   7.258   8.312  0.00  0.00    +0.000 C 
ATOM     12  N   UNL     1      54.476   6.871   7.613  0.00  0.00    +0.000 NA
ATOM     13  C   UNL     1      53.994   6.095   6.631  0.00  0.00    +0.000 C 
ATOM     14  N   UNL     1      52.656   5.979   6.708  0.00  0.00    +0.000 NA
ATOM     15  N   UNL     1      52.283   6.738   7.783  0.00  0.00    +0.000 NA
ATOM     16  H   UNL     1      54.475   7.950   9.824  0.00  0.00    +0.000 HD
ENDBRANCH   9  10
ENDBRANCH   8   9
ENDBRANCH   5   8
ENDBRANCH   1   2
BRANCH   1  19
ATOM     17  O   UNL     1      44.319   7.541  11.241  0.00  0.00    +0.000 OA
ATOM     18  C   UNL     1      44.876   6.616  11.827  0.00  0.00    +0.000 C 
ATOM     19  N   UNL     1      45.856   6.819  12.769  0.00  0.00    +0.000 N 
ATOM     20  H   UNL     1      46.475   6.053  13.016  0.00  0.00    +0.000 HD
BRANCH  18  21
ATOM     21  C   UNL     1      44.492   5.226  11.583  0.00  0.00    +0.000 A 
ATOM     22  C   UNL     1      43.741   4.521  12.512  0.00  0.00    +0.000 A 
ATOM     23  S   UNL     1      43.375   2.929  12.011  0.00  0.00    +0.000 S 
ATOM     24  C   UNL     1      44.187   3.145  10.531  0.00  0.00    +0.000 A 
ATOM     25  N   UNL     1      44.224   2.162   9.593  0.00  0.00    +0.000 NA
ATOM     26  C   UNL     1      44.856   2.482   8.513  0.00  0.00    +0.000 A 
ATOM     27  N   UNL     1      45.459   3.697   8.290  0.00  0.00    +0.000 N 
ATOM     28  C   UNL     1      45.486   4.697   9.218  0.00  0.00    +0.000 A 
ATOM     29  O   UNL     1      46.115   5.732   9.021  0.00  0.00    +0.000 OA
ATOM     30  C   UNL     1      44.760   4.400  10.436  0.00  0.00    +0.000 A 
ATOM     31  H   UNL     1      45.967   3.875   7.434  0.00  0.00    +0.000 HD
ENDBRANCH  18  21
ENDBRANCH   1  19
TORSDOF 6
ENDMDL
