MODEL 1
REMARK VINA RESULT:    -7.361      0.000      0.000
REMARK INTER + INTRA:         -13.169
REMARK INTER:                 -11.663
REMARK INTRA:                  -1.506
REMARK UNBOUND:                -1.506
REMARK  Name = 
REMARK  13 active torsions:
REMARK  status: ('A' for Active; 'I' for Inactive)
REMARK    1  A    between atoms: C_1  and  N_2
REMARK    2  A    between atoms: N_2  and  C_3
REMARK    3  A    between atoms: N_2  and  C_4
REMARK    4  A    between atoms: C_4  and  C_5
REMARK    5  A    between atoms: C_5  and  N_6
REMARK    6  A    between atoms: C_7  and  C_9
REMARK    7  A    between atoms: C_9  and  C_10
REMARK    8  A    between atoms: C_9  and  C_11
REMARK    9  A    between atoms: C_9  and  C_22
REMARK   10  A    between atoms: C_11  and  N_12
REMARK   11  A    between atoms: C_16  and  C_17
REMARK   12  A    between atoms: C_26  and  O_27
REMARK   13  A    between atoms: O_27  and  C_28
REMARK                            x       y       z     vdW  Elec       q    Type
REMARK                         _______ _______ _______ _____ _____    ______ ____
ROOT
ATOM      1  C   UNL     1      44.533   5.313  11.320  0.00  0.00    +0.000 C 
ATOM      2  C   UNL     1      43.039   5.703  11.365  0.00  0.00    +0.000 C 
ENDROOT
BRANCH   1   3
ATOM      3  C   UNL     1      44.720   4.174  10.284  0.00  0.00    +0.000 A 
ATOM      4  C   UNL     1      44.179   2.895  10.473  0.00  0.00    +0.000 A 
ATOM      5  C   UNL     1      44.306   1.907   9.490  0.00  0.00    +0.000 A 
ATOM      6  C   UNL     1      44.959   2.175   8.288  0.00  0.00    +0.000 A 
ATOM      7  C   UNL     1      45.480   3.439   8.056  0.00  0.00    +0.000 A 
ATOM      8  C   UNL     1      45.410   4.407   9.071  0.00  0.00    +0.000 A 
BRANCH   7   9
ATOM      9  O   UNL     1      46.113   3.833   6.913  0.00  0.00    +0.000 OA
BRANCH   9  10
ATOM     10  C   UNL     1      47.008   2.931   6.268  0.00  0.00    +0.000 C 
ATOM     11  F   UNL     1      46.599   1.645   6.251  0.00  0.00    +0.000 F 
ATOM     12  F   UNL     1      47.166   3.324   4.983  0.00  0.00    +0.000 F 
ATOM     13  F   UNL     1      48.214   2.992   6.873  0.00  0.00    +0.000 F 
ENDBRANCH   9  10
ENDBRANCH   7   9
ENDBRANCH   1   3
BRANCH   1  15
ATOM     14  N   UNL     1      46.317   4.454  12.875  0.00  0.00    +0.000 N 
ATOM     15  C   UNL     1      45.036   4.944  12.741  0.00  0.00    +0.000 C 
ATOM     16  O   UNL     1      44.319   5.067  13.739  0.00  0.00    +0.000 OA
ATOM     17  H   UNL     1      47.031   4.698  12.197  0.00  0.00    +0.000 HD
BRANCH  14  18
ATOM     18  C   UNL     1      46.762   4.018  14.188  0.00  0.00    +0.000 C 
BRANCH  18  19
ATOM     19  C   UNL     1      47.513   5.102  14.976  0.00  0.00    +0.000 C 
BRANCH  19  21
ATOM     20  C   UNL     1      48.788   5.690  16.959  0.00  0.00    +0.000 C 
ATOM     21  N   UNL     1      48.178   4.597  16.196  0.00  0.00    +0.000 NA
ATOM     22  C   UNL     1      47.198   3.906  17.042  0.00  0.00    +0.000 C 
ENDBRANCH  19  21
ENDBRANCH  18  19
ENDBRANCH  14  18
ENDBRANCH   1  15
BRANCH   1  23
ATOM     23  C   UNL     1      45.388   6.560  10.906  0.00  0.00    +0.000 C 
BRANCH  23  24
ATOM     24  N   UNL     1      45.470   7.572  11.992  0.00  0.00    +0.000 N 
ATOM     25  C   UNL     1      46.784   7.801  12.445  0.00  0.00    +0.000 A 
ATOM     26  C   UNL     1      47.023   8.723  13.482  0.00  0.00    +0.000 A 
ATOM     27  N   UNL     1      48.251   8.974  14.016  0.00  0.00    +0.000 NA
ATOM     28  C   UNL     1      49.258   8.249  13.460  0.00  0.00    +0.000 A 
ATOM     29  C   UNL     1      49.041   7.350  12.429  0.00  0.00    +0.000 A 
ATOM     30  N   UNL     1      47.815   7.123  11.900  0.00  0.00    +0.000 NA
ATOM     31  H   UNL     1      44.947   7.235  12.809  0.00  0.00    +0.000 HD
BRANCH  28  32
ATOM     32  C   UNL     1      50.644   8.424  13.987  0.00  0.00    +0.000 C 
ATOM     33  N   UNL     1      51.125   7.412  14.772  0.00  0.00    +0.000 N 
ATOM     34  O   UNL     1      51.316   9.412  13.731  0.00  0.00    +0.000 OA
ATOM     35  H   UNL     1      50.556   6.596  14.971  0.00  0.00    +0.000 HD
ATOM     36  H   UNL     1      52.063   7.479  15.145  0.00  0.00    +0.000 HD
ENDBRANCH  28  32
ENDBRANCH  23  24
ENDBRANCH   1  23
TORSDOF 10
ENDMDL
MODEL 2
REMARK VINA RESULT:    -7.280      2.607      5.077
REMARK INTER + INTRA:         -13.042
REMARK INTER:                 -11.730
REMARK INTRA:                  -1.313
REMARK UNBOUND:                -1.506
REMARK  Name = 
REMARK  13 active torsions:
REMARK  status: ('A' for Active; 'I' for Inactive)
REMARK    1  A    between atoms: C_1  and  N_2
REMARK    2  A    between atoms: N_2  and  C_3
REMARK    3  A    between atoms: N_2  and  C_4
REMARK    4  A    between atoms: C_4  and  C_5
REMARK    5  A    between atoms: C_5  and  N_6
REMARK    6  A    between atoms: C_7  and  C_9
REMARK    7  A    between atoms: C_9  and  C_10
REMARK    8  A    between atoms: C_9  and  C_11
REMARK    9  A    between atoms: C_9  and  C_22
REMARK   10  A    between atoms: C_11  and  N_12
REMARK   11  A    between atoms: C_16  and  C_17
REMARK   12  A    between atoms: C_26  and  O_27
REMARK   13  A    between atoms: O_27  and  C_28
REMARK                            x       y       z     vdW  Elec       q    Type
REMARK                         _______ _______ _______ _____ _____    ______ ____
ROOT
ATOM      1  C   UNL     1      45.040   5.765  11.520  0.00  0.00    +0.000 C 
ATOM      2  C   UNL     1      46.330   6.506  11.100  0.00  0.00    +0.000 C 
ENDROOT
BRANCH   1   3
ATOM      3  C   UNL     1      44.917   4.465  10.683  0.00  0.00    +0.000 A 
ATOM      4  C   UNL     1      44.389   3.281  11.214  0.00  0.00    +0.000 A 
ATOM      5  C   UNL     1      44.227   2.142  10.416  0.00  0.00    +0.000 A 
ATOM      6  C   UNL     1      44.573   2.162   9.065  0.00  0.00    +0.000 A 
ATOM      7  C   UNL     1      45.072   3.327   8.500  0.00  0.00    +0.000 A 
ATOM      8  C   UNL     1      45.295   4.446   9.320  0.00  0.00    +0.000 A 
BRANCH   7   9
ATOM      9  O   UNL     1      45.419   3.482   7.190  0.00  0.00    +0.000 OA
BRANCH   9  10
ATOM     10  C   UNL     1      46.780   3.314   6.806  0.00  0.00    +0.000 C 
ATOM     11  F   UNL     1      47.384   2.225   7.328  0.00  0.00    +0.000 F 
ATOM     12  F   UNL     1      46.840   3.205   5.459  0.00  0.00    +0.000 F 
ATOM     13  F   UNL     1      47.483   4.410   7.168  0.00  0.00    +0.000 F 
ENDBRANCH   9  10
ENDBRANCH   7   9
ENDBRANCH   1   3
BRANCH   1  15
ATOM     14  N   UNL     1      44.027   8.013  11.017  0.00  0.00    +0.000 N 
ATOM     15  C   UNL     1      43.812   6.704  11.387  0.00  0.00    +0.000 C 
ATOM     16  O   UNL     1      42.664   6.312  11.615  0.00  0.00    +0.000 OA
ATOM     17  H   UNL     1      44.842   8.261  10.465  0.00  0.00    +0.000 HD
BRANCH  14  18
ATOM     18  C   UNL     1      42.894   8.922  10.981  0.00  0.00    +0.000 C 
BRANCH  18  19
ATOM     19  C   UNL     1      43.290  10.405  11.025  0.00  0.00    +0.000 C 
BRANCH  19  21
ATOM     20  C   UNL     1      43.156  10.908   8.651  0.00  0.00    +0.000 C 
ATOM     21  N   UNL     1      42.635  11.227   9.985  0.00  0.00    +0.000 NA
ATOM     22  C   UNL     1      41.187  10.986  10.006  0.00  0.00    +0.000 C 
ENDBRANCH  19  21
ENDBRANCH  18  19
ENDBRANCH  14  18
ENDBRANCH   1  15
BRANCH   1  23
ATOM     23  C   UNL     1      45.111   5.414  13.046  0.00  0.00    +0.000 C 
BRANCH  23  24
ATOM     24  N   UNL     1      46.221   6.122  13.735  0.00  0.00    +0.000 N 
ATOM     25  C   UNL     1      46.982   5.287  14.576  0.00  0.00    +0.000 A 
ATOM     26  C   UNL     1      48.061   5.816  15.310  0.00  0.00    +0.000 A 
ATOM     27  N   UNL     1      48.821   5.096  16.182  0.00  0.00    +0.000 NA
ATOM     28  C   UNL     1      48.451   3.793  16.298  0.00  0.00    +0.000 A 
ATOM     29  C   UNL     1      47.401   3.255  15.572  0.00  0.00    +0.000 A 
ATOM     30  N   UNL     1      46.665   3.981  14.697  0.00  0.00    +0.000 NA
ATOM     31  H   UNL     1      45.832   6.853  14.343  0.00  0.00    +0.000 HD
BRANCH  28  32
ATOM     32  C   UNL     1      49.197   2.916  17.248  0.00  0.00    +0.000 C 
ATOM     33  N   UNL     1      49.233   3.328  18.551  0.00  0.00    +0.000 N 
ATOM     34  O   UNL     1      49.744   1.885  16.885  0.00  0.00    +0.000 OA
ATOM     35  H   UNL     1      48.770   4.184  18.837  0.00  0.00    +0.000 HD
ATOM     36  H   UNL     1      49.719   2.763  19.235  0.00  0.00    +0.000 HD
ENDBRANCH  28  32
ENDBRANCH  23  24
ENDBRANCH   1  23
TORSDOF 10
ENDMDL
MODEL 3
REMARK VINA RESULT:    -7.019      3.850      6.625
REMARK INTER + INTRA:         -12.628
REMARK INTER:                 -11.072
REMARK INTRA:                  -1.555
REMARK UNBOUND:                -1.506
REMARK  Name = 
REMARK  13 active torsions:
REMARK  status: ('A' for Active; 'I' for Inactive)
REMARK    1  A    between atoms: C_1  and  N_2
REMARK    2  A    between atoms: N_2  and  C_3
REMARK    3  A    between atoms: N_2  and  C_4
REMARK    4  A    between atoms: C_4  and  C_5
REMARK    5  A    between atoms: C_5  and  N_6
REMARK    6  A    between atoms: C_7  and  C_9
REMARK    7  A    between atoms: C_9  and  C_10
REMARK    8  A    between atoms: C_9  and  C_11
REMARK    9  A    between atoms: C_9  and  C_22
REMARK   10  A    between atoms: C_11  and  N_12
REMARK   11  A    between atoms: C_16  and  C_17
REMARK   12  A    between atoms: C_26  and  O_27
REMARK   13  A    between atoms: O_27  and  C_28
REMARK                            x       y       z     vdW  Elec       q    Type
REMARK                         _______ _______ _______ _____ _____    ______ ____
ROOT
ATOM      1  C   UNL     1      45.619   5.686  12.234  0.00  0.00    +0.000 C 
ATOM      2  C   UNL     1      44.358   5.473  13.101  0.00  0.00    +0.000 C 
ENDROOT
BRANCH   1   3
ATOM      3  C   UNL     1      45.991   7.191  12.256  0.00  0.00    +0.000 A 
ATOM      4  C   UNL     1      47.321   7.633  12.219  0.00  0.00    +0.000 A 
ATOM      5  C   UNL     1      47.625   8.999  12.172  0.00  0.00    +0.000 A 
ATOM      6  C   UNL     1      46.611   9.955  12.144  0.00  0.00    +0.000 A 
ATOM      7  C   UNL     1      45.284   9.551  12.151  0.00  0.00    +0.000 A 
ATOM      8  C   UNL     1      44.984   8.184  12.265  0.00  0.00    +0.000 A 
BRANCH   7   9
ATOM      9  O   UNL     1      44.205  10.386  12.098  0.00  0.00    +0.000 OA
BRANCH   9  10
ATOM     10  C   UNL     1      43.404  10.412  10.920  0.00  0.00    +0.000 C 
ATOM     11  F   UNL     1      42.595   9.343  10.763  0.00  0.00    +0.000 F 
ATOM     12  F   UNL     1      42.620  11.514  10.955  0.00  0.00    +0.000 F 
ATOM     13  F   UNL     1      44.207  10.506   9.837  0.00  0.00    +0.000 F 
ENDBRANCH   9  10
ENDBRANCH   7   9
ENDBRANCH   1   3
BRANCH   1  15
ATOM     14  N   UNL     1      44.552   4.044  10.652  0.00  0.00    +0.000 N 
ATOM     15  C   UNL     1      45.389   5.127  10.804  0.00  0.00    +0.000 C 
ATOM     16  O   UNL     1      45.942   5.618   9.816  0.00  0.00    +0.000 OA
ATOM     17  H   UNL     1      43.812   3.872  11.324  0.00  0.00    +0.000 HD
BRANCH  14  18
ATOM     18  C   UNL     1      44.405   3.457   9.330  0.00  0.00    +0.000 C 
BRANCH  18  19
ATOM     19  C   UNL     1      45.213   2.166   9.135  0.00  0.00    +0.000 C 
BRANCH  19  21
ATOM     20  C   UNL     1      46.738   1.032   7.619  0.00  0.00    +0.000 C 
ATOM     21  N   UNL     1      46.363   2.317   8.217  0.00  0.00    +0.000 NA
ATOM     22  C   UNL     1      46.018   3.264   7.149  0.00  0.00    +0.000 C 
ENDBRANCH  19  21
ENDBRANCH  18  19
ENDBRANCH  14  18
ENDBRANCH   1  15
BRANCH   1  23
ATOM     23  C   UNL     1      46.801   4.833  12.810  0.00  0.00    +0.000 C 
BRANCH  23  24
ATOM     24  N   UNL     1      46.421   4.111  14.053  0.00  0.00    +0.000 N 
ATOM     25  C   UNL     1      47.156   4.517  15.184  0.00  0.00    +0.000 A 
ATOM     26  C   UNL     1      46.920   3.915  16.434  0.00  0.00    +0.000 A 
ATOM     27  N   UNL     1      47.613   4.209  17.569  0.00  0.00    +0.000 NA
ATOM     28  C   UNL     1      48.578   5.152  17.403  0.00  0.00    +0.000 A 
ATOM     29  C   UNL     1      48.812   5.764  16.183  0.00  0.00    +0.000 A 
ATOM     30  N   UNL     1      48.103   5.471  15.067  0.00  0.00    +0.000 NA
ATOM     31  H   UNL     1      46.615   3.110  13.937  0.00  0.00    +0.000 HD
BRANCH  28  32
ATOM     32  C   UNL     1      49.420   5.532  18.576  0.00  0.00    +0.000 C 
ATOM     33  N   UNL     1      49.831   4.509  19.384  0.00  0.00    +0.000 N 
ATOM     34  O   UNL     1      49.730   6.693  18.802  0.00  0.00    +0.000 OA
ATOM     35  H   UNL     1      49.569   3.550  19.180  0.00  0.00    +0.000 HD
ATOM     36  H   UNL     1      50.411   4.715  20.186  0.00  0.00    +0.000 HD
ENDBRANCH  28  32
ENDBRANCH  23  24
ENDBRANCH   1  23
TORSDOF 10
ENDMDL
MODEL 4
REMARK VINA RESULT:    -6.868      3.530      6.468
REMARK INTER + INTRA:         -12.389
REMARK INTER:                 -11.158
REMARK INTRA:                  -1.232
REMARK UNBOUND:                -1.506
REMARK  Name = 
REMARK  13 active torsions:
REMARK  status: ('A' for Active; 'I' for Inactive)
REMARK    1  A    between atoms: C_1  and  N_2
REMARK    2  A    between atoms: N_2  and  C_3
REMARK    3  A    between atoms: N_2  and  C_4
REMARK    4  A    between atoms: C_4  and  C_5
REMARK    5  A    between atoms: C_5  and  N_6
REMARK    6  A    between atoms: C_7  and  C_9
REMARK    7  A    between atoms: C_9  and  C_10
REMARK    8  A    between atoms: C_9  and  C_11
REMARK    9  A    between atoms: C_9  and  C_22
REMARK   10  A    between atoms: C_11  and  N_12
REMARK   11  A    between atoms: C_16  and  C_17
REMARK   12  A    between atoms: C_26  and  O_27
REMARK   13  A    between atoms: O_27  and  C_28
REMARK                            x       y       z     vdW  Elec       q    Type
REMARK                         _______ _______ _______ _____ _____    ______ ____
ROOT
ATOM      1  C   UNL     1      44.892   5.217  12.472  0.00  0.00    +0.000 C 
ATOM      2  C   UNL     1      43.423   5.470  12.880  0.00  0.00    +0.000 C 
ENDROOT
BRANCH   1   3
ATOM      3  C   UNL     1      45.607   6.584  12.314  0.00  0.00    +0.000 A 
ATOM      4  C   UNL     1      44.998   7.793  12.678  0.00  0.00    +0.000 A 
ATOM      5  C   UNL     1      45.692   9.005  12.588  0.00  0.00    +0.000 A 
ATOM      6  C   UNL     1      47.015   9.039  12.149  0.00  0.00    +0.000 A 
ATOM      7  C   UNL     1      47.658   7.858  11.808  0.00  0.00    +0.000 A 
ATOM      8  C   UNL     1      46.937   6.653  11.836  0.00  0.00    +0.000 A 
BRANCH   7   9
ATOM      9  O   UNL     1      48.953   7.756  11.393  0.00  0.00    +0.000 OA
BRANCH   9  10
ATOM     10  C   UNL     1      50.003   8.001  12.325  0.00  0.00    +0.000 C 
ATOM     11  F   UNL     1      50.054   9.264  12.799  0.00  0.00    +0.000 F 
ATOM     12  F   UNL     1      49.841   7.176  13.385  0.00  0.00    +0.000 F 
ATOM     13  F   UNL     1      51.188   7.711  11.747  0.00  0.00    +0.000 F 
ENDBRANCH   9  10
ENDBRANCH   7   9
ENDBRANCH   1   3
BRANCH   1  15
ATOM     14  N   UNL     1      44.625   4.912   9.987  0.00  0.00    +0.000 N 
ATOM     15  C   UNL     1      44.952   4.337  11.195  0.00  0.00    +0.000 C 
ATOM     16  O   UNL     1      45.270   3.145  11.240  0.00  0.00    +0.000 OA
ATOM     17  H   UNL     1      44.743   5.911   9.849  0.00  0.00    +0.000 HD
BRANCH  14  18
ATOM     18  C   UNL     1      44.588   4.072   8.802  0.00  0.00    +0.000 C 
BRANCH  18  19
ATOM     19  C   UNL     1      45.903   4.066   8.009  0.00  0.00    +0.000 C 
BRANCH  19  21
ATOM     20  C   UNL     1      47.586   2.717   6.889  0.00  0.00    +0.000 C 
ATOM     21  N   UNL     1      46.197   2.772   7.357  0.00  0.00    +0.000 NA
ATOM     22  C   UNL     1      45.965   1.678   8.307  0.00  0.00    +0.000 C 
ENDBRANCH  19  21
ENDBRANCH  18  19
ENDBRANCH  14  18
ENDBRANCH   1  15
BRANCH   1  23
ATOM     23  C   UNL     1      45.603   4.365  13.578  0.00  0.00    +0.000 C 
BRANCH  23  24
ATOM     24  N   UNL     1      46.357   5.209  14.542  0.00  0.00    +0.000 N 
ATOM     25  C   UNL     1      47.366   4.509  15.231  0.00  0.00    +0.000 A 
ATOM     26  C   UNL     1      48.157   5.169  16.189  0.00  0.00    +0.000 A 
ATOM     27  N   UNL     1      49.122   4.564  16.936  0.00  0.00    +0.000 NA
ATOM     28  C   UNL     1      49.268   3.236  16.685  0.00  0.00    +0.000 A 
ATOM     29  C   UNL     1      48.507   2.575  15.734  0.00  0.00    +0.000 A 
ATOM     30  N   UNL     1      47.563   3.196  14.989  0.00  0.00    +0.000 NA
ATOM     31  H   UNL     1      45.714   5.557  15.263  0.00  0.00    +0.000 HD
BRANCH  28  32
ATOM     32  C   UNL     1      50.278   2.463  17.467  0.00  0.00    +0.000 C 
ATOM     33  N   UNL     1      50.879   3.126  18.501  0.00  0.00    +0.000 N 
ATOM     34  O   UNL     1      50.553   1.302  17.203  0.00  0.00    +0.000 OA
ATOM     35  H   UNL     1      50.637   4.089  18.710  0.00  0.00    +0.000 HD
ATOM     36  H   UNL     1      51.564   2.642  19.067  0.00  0.00    +0.000 HD
ENDBRANCH  28  32
ENDBRANCH  23  24
ENDBRANCH   1  23
TORSDOF 10
ENDMDL
MODEL 5
REMARK VINA RESULT:    -6.723      3.628      6.633
REMARK INTER + INTRA:         -12.159
REMARK INTER:                 -10.231
REMARK INTRA:                  -1.928
REMARK UNBOUND:                -1.506
REMARK  Name = 
REMARK  13 active torsions:
REMARK  status: ('A' for Active; 'I' for Inactive)
REMARK    1  A    between atoms: C_1  and  N_2
REMARK    2  A    between atoms: N_2  and  C_3
REMARK    3  A    between atoms: N_2  and  C_4
REMARK    4  A    between atoms: C_4  and  C_5
REMARK    5  A    between atoms: C_5  and  N_6
REMARK    6  A    between atoms: C_7  and  C_9
REMARK    7  A    between atoms: C_9  and  C_10
REMARK    8  A    between atoms: C_9  and  C_11
REMARK    9  A    between atoms: C_9  and  C_22
REMARK   10  A    between atoms: C_11  and  N_12
REMARK   11  A    between atoms: C_16  and  C_17
REMARK   12  A    between atoms: C_26  and  O_27
REMARK   13  A    between atoms: O_27  and  C_28
REMARK                            x       y       z     vdW  Elec       q    Type
REMARK                         _______ _______ _______ _____ _____    ______ ____
ROOT
ATOM      1  C   UNL     1      45.535   5.463  12.103  0.00  0.00    +0.000 C 
ATOM      2  C   UNL     1      44.276   5.279  12.979  0.00  0.00    +0.000 C 
ENDROOT
BRANCH   1   3
ATOM      3  C   UNL     1      45.935   6.962  12.116  0.00  0.00    +0.000 A 
ATOM      4  C   UNL     1      44.984   7.989  12.170  0.00  0.00    +0.000 A 
ATOM      5  C   UNL     1      45.376   9.331  12.248  0.00  0.00    +0.000 A 
ATOM      6  C   UNL     1      46.725   9.679  12.292  0.00  0.00    +0.000 A 
ATOM      7  C   UNL     1      47.693   8.685  12.269  0.00  0.00    +0.000 A 
ATOM      8  C   UNL     1      47.297   7.346  12.123  0.00  0.00    +0.000 A 
BRANCH   7   9
ATOM      9  O   UNL     1      49.040   8.894  12.335  0.00  0.00    +0.000 OA
BRANCH   9  10
ATOM     10  C   UNL     1      49.669   8.974  13.611  0.00  0.00    +0.000 C 
ATOM     11  F   UNL     1      48.822   8.944  14.662  0.00  0.00    +0.000 F 
ATOM     12  F   UNL     1      50.516   7.926  13.741  0.00  0.00    +0.000 F 
ATOM     13  F   UNL     1      50.398  10.109  13.677  0.00  0.00    +0.000 F 
ENDBRANCH   9  10
ENDBRANCH   7   9
ENDBRANCH   1   3
BRANCH   1  15
ATOM     14  N   UNL     1      44.623   3.701  10.554  0.00  0.00    +0.000 N 
ATOM     15  C   UNL     1      45.285   4.903  10.678  0.00  0.00    +0.000 C 
ATOM     16  O   UNL     1      45.672   5.496   9.666  0.00  0.00    +0.000 OA
ATOM     17  H   UNL     1      43.976   3.398  11.274  0.00  0.00    +0.000 HD
BRANCH  14  18
ATOM     18  C   UNL     1      44.468   3.124   9.229  0.00  0.00    +0.000 C 
BRANCH  18  19
ATOM     19  C   UNL     1      45.427   1.958   8.948  0.00  0.00    +0.000 C 
BRANCH  19  21
ATOM     20  C   UNL     1      47.031   1.104   7.334  0.00  0.00    +0.000 C 
ATOM     21  N   UNL     1      46.519   2.299   8.011  0.00  0.00    +0.000 NA
ATOM     22  C   UNL     1      46.026   3.249   7.006  0.00  0.00    +0.000 C 
ENDBRANCH  19  21
ENDBRANCH  18  19
ENDBRANCH  14  18
ENDBRANCH   1  15
BRANCH   1  23
ATOM     23  C   UNL     1      46.704   4.591  12.675  0.00  0.00    +0.000 C 
BRANCH  23  24
ATOM     24  N   UNL     1      46.359   3.977  13.984  0.00  0.00    +0.000 N 
ATOM     25  C   UNL     1      47.078   4.522  15.066  0.00  0.00    +0.000 A 
ATOM     26  C   UNL     1      46.872   4.032  16.370  0.00  0.00    +0.000 A 
ATOM     27  N   UNL     1      47.554   4.465  17.467  0.00  0.00    +0.000 NA
ATOM     28  C   UNL     1      48.476   5.428  17.205  0.00  0.00    +0.000 A 
ATOM     29  C   UNL     1      48.679   5.930  15.930  0.00  0.00    +0.000 A 
ATOM     30  N   UNL     1      47.982   5.500  14.852  0.00  0.00    +0.000 NA
ATOM     31  H   UNL     1      46.597   2.978  13.964  0.00  0.00    +0.000 HD
BRANCH  28  32
ATOM     32  C   UNL     1      49.303   5.957  18.330  0.00  0.00    +0.000 C 
ATOM     33  N   UNL     1      49.241   5.261  19.505  0.00  0.00    +0.000 N 
ATOM     34  O   UNL     1      50.000   6.953  18.210  0.00  0.00    +0.000 OA
ATOM     35  H   UNL     1      48.661   4.432  19.587  0.00  0.00    +0.000 HD
ATOM     36  H   UNL     1      49.791   5.574  20.295  0.00  0.00    +0.000 HD
ENDBRANCH  28  32
ENDBRANCH  23  24
ENDBRANCH   1  23
TORSDOF 10
ENDMDL
MODEL 6
REMARK VINA RESULT:    -6.586      1.824      2.008
REMARK INTER + INTRA:         -11.941
REMARK INTER:                 -10.292
REMARK INTRA:                  -1.649
REMARK UNBOUND:                -1.506
REMARK  Name = 
REMARK  13 active torsions:
REMARK  status: ('A' for Active; 'I' for Inactive)
REMARK    1  A    between atoms: C_1  and  N_2
REMARK    2  A    between atoms: N_2  and  C_3
REMARK    3  A    between atoms: N_2  and  C_4
REMARK    4  A    between atoms: C_4  and  C_5
REMARK    5  A    between atoms: C_5  and  N_6
REMARK    6  A    between atoms: C_7  and  C_9
REMARK    7  A    between atoms: C_9  and  C_10
REMARK    8  A    between atoms: C_9  and  C_11
REMARK    9  A    between atoms: C_9  and  C_22
REMARK   10  A    between atoms: C_11  and  N_12
REMARK   11  A    between atoms: C_16  and  C_17
REMARK   12  A    between atoms: C_26  and  O_27
REMARK   13  A    between atoms: O_27  and  C_28
REMARK                            x       y       z     vdW  Elec       q    Type
REMARK                         _______ _______ _______ _____ _____    ______ ____
ROOT
ATOM      1  C   UNL     1      45.896   5.672  12.353  0.00  0.00    +0.000 C 
ATOM      2  C   UNL     1      44.724   6.360  13.088  0.00  0.00    +0.000 C 
ENDROOT
BRANCH   1   3
ATOM      3  C   UNL     1      45.320   4.617  11.374  0.00  0.00    +0.000 A 
ATOM      4  C   UNL     1      44.455   3.598  11.798  0.00  0.00    +0.000 A 
ATOM      5  C   UNL     1      43.896   2.700  10.881  0.00  0.00    +0.000 A 
ATOM      6  C   UNL     1      44.172   2.806   9.518  0.00  0.00    +0.000 A 
ATOM      7  C   UNL     1      45.002   3.821   9.062  0.00  0.00    +0.000 A 
ATOM      8  C   UNL     1      45.613   4.677   9.992  0.00  0.00    +0.000 A 
BRANCH   7   9
ATOM      9  O   UNL     1      45.325   4.047   7.756  0.00  0.00    +0.000 OA
BRANCH   9  10
ATOM     10  C   UNL     1      46.454   3.383   7.194  0.00  0.00    +0.000 C 
ATOM     11  F   UNL     1      46.817   2.250   7.830  0.00  0.00    +0.000 F 
ATOM     12  F   UNL     1      46.169   3.056   5.912  0.00  0.00    +0.000 F 
ATOM     13  F   UNL     1      47.507   4.229   7.184  0.00  0.00    +0.000 F 
ENDBRANCH   9  10
ENDBRANCH   7   9
ENDBRANCH   1   3
BRANCH   1  15
ATOM     14  N   UNL     1      46.412   4.274  14.382  0.00  0.00    +0.000 N 
ATOM     15  C   UNL     1      46.901   5.081  13.378  0.00  0.00    +0.000 C 
ATOM     16  O   UNL     1      48.110   5.325  13.321  0.00  0.00    +0.000 OA
ATOM     17  H   UNL     1      45.553   3.752  14.245  0.00  0.00    +0.000 HD
BRANCH  14  18
ATOM     18  C   UNL     1      47.332   3.793  15.399  0.00  0.00    +0.000 C 
BRANCH  18  19
ATOM     19  C   UNL     1      47.059   4.364  16.798  0.00  0.00    +0.000 C 
BRANCH  19  21
ATOM     20  C   UNL     1      48.865   5.989  16.738  0.00  0.00    +0.000 C 
ATOM     21  N   UNL     1      48.269   4.873  17.479  0.00  0.00    +0.000 NA
ATOM     22  C   UNL     1      47.920   5.324  18.831  0.00  0.00    +0.000 C 
ENDBRANCH  19  21
ENDBRANCH  18  19
ENDBRANCH  14  18
ENDBRANCH   1  15
BRANCH   1  23
ATOM     23  C   UNL     1      46.720   6.745  11.561  0.00  0.00    +0.000 C 
BRANCH  23  24
ATOM     24  N   UNL     1      46.947   7.980  12.357  0.00  0.00    +0.000 N 
ATOM     25  C   UNL     1      48.253   8.492  12.235  0.00  0.00    +0.000 A 
ATOM     26  C   UNL     1      48.626   9.652  12.941  0.00  0.00    +0.000 A 
ATOM     27  N   UNL     1      49.877  10.192  12.922  0.00  0.00    +0.000 NA
ATOM     28  C   UNL     1      50.765   9.509  12.152  0.00  0.00    +0.000 A 
ATOM     29  C   UNL     1      50.409   8.376  11.440  0.00  0.00    +0.000 A 
ATOM     30  N   UNL     1      49.157   7.861  11.457  0.00  0.00    +0.000 NA
ATOM     31  H   UNL     1      46.820   7.770  13.353  0.00  0.00    +0.000 HD
BRANCH  28  32
ATOM     32  C   UNL     1      52.176   9.995  12.079  0.00  0.00    +0.000 C 
ATOM     33  N   UNL     1      52.506  11.021  12.920  0.00  0.00    +0.000 N 
ATOM     34  O   UNL     1      52.992   9.503  11.315  0.00  0.00    +0.000 OA
ATOM     35  H   UNL     1      51.817  11.416  13.553  0.00  0.00    +0.000 HD
ATOM     36  H   UNL     1      53.452  11.379  12.915  0.00  0.00    +0.000 HD
ENDBRANCH  28  32
ENDBRANCH  23  24
ENDBRANCH   1  23
TORSDOF 10
ENDMDL
MODEL 7
REMARK VINA RESULT:    -6.451      5.234      8.944
REMARK INTER + INTRA:         -11.727
REMARK INTER:                 -10.197
REMARK INTRA:                  -1.530
REMARK UNBOUND:                -1.506
REMARK  Name = 
REMARK  13 active torsions:
REMARK  status: ('A' for Active; 'I' for Inactive)
REMARK    1  A    between atoms: C_1  and  N_2
REMARK    2  A    between atoms: N_2  and  C_3
REMARK    3  A    between atoms: N_2  and  C_4
REMARK    4  A    between atoms: C_4  and  C_5
REMARK    5  A    between atoms: C_5  and  N_6
REMARK    6  A    between atoms: C_7  and  C_9
REMARK    7  A    between atoms: C_9  and  C_10
REMARK    8  A    between atoms: C_9  and  C_11
REMARK    9  A    between atoms: C_9  and  C_22
REMARK   10  A    between atoms: C_11  and  N_12
REMARK   11  A    between atoms: C_16  and  C_17
REMARK   12  A    between atoms: C_26  and  O_27
REMARK   13  A    between atoms: O_27  and  C_28
REMARK                            x       y       z     vdW  Elec       q    Type
REMARK                         _______ _______ _______ _____ _____    ______ ____
ROOT
ATOM      1  C   UNL     1      48.400   4.931  16.894  0.00  0.00    +0.000 C 
ATOM      2  C   UNL     1      47.535   5.119  18.160  0.00  0.00    +0.000 C 
ENDROOT
BRANCH   1   3
ATOM      3  C   UNL     1      49.524   3.909  17.206  0.00  0.00    +0.000 A 
ATOM      4  C   UNL     1      49.390   2.542  16.925  0.00  0.00    +0.000 A 
ATOM      5  C   UNL     1      50.446   1.652  17.156  0.00  0.00    +0.000 A 
ATOM      6  C   UNL     1      51.666   2.106  17.656  0.00  0.00    +0.000 A 
ATOM      7  C   UNL     1      51.842   3.457  17.918  0.00  0.00    +0.000 A 
ATOM      8  C   UNL     1      50.759   4.335  17.748  0.00  0.00    +0.000 A 
BRANCH   7   9
ATOM      9  O   UNL     1      52.992   4.028  18.380  0.00  0.00    +0.000 OA
BRANCH   9  10
ATOM     10  C   UNL     1      53.327   3.898  19.758  0.00  0.00    +0.000 C 
ATOM     11  F   UNL     1      52.285   4.020  20.607  0.00  0.00    +0.000 F 
ATOM     12  F   UNL     1      53.872   2.675  19.957  0.00  0.00    +0.000 F 
ATOM     13  F   UNL     1      54.255   4.825  20.080  0.00  0.00    +0.000 F 
ENDBRANCH   9  10
ENDBRANCH   7   9
ENDBRANCH   1   3
BRANCH   1  15
ATOM     14  N   UNL     1      48.422   7.447  16.967  0.00  0.00    +0.000 N 
ATOM     15  C   UNL     1      48.932   6.301  16.397  0.00  0.00    +0.000 C 
ATOM     16  O   UNL     1      49.782   6.386  15.505  0.00  0.00    +0.000 OA
ATOM     17  H   UNL     1      48.052   7.426  17.912  0.00  0.00    +0.000 HD
BRANCH  14  18
ATOM     18  C   UNL     1      48.846   8.734  16.443  0.00  0.00    +0.000 C 
BRANCH  18  19
ATOM     19  C   UNL     1      47.937   9.278  15.331  0.00  0.00    +0.000 C 
BRANCH  19  21
ATOM     20  C   UNL     1      47.422   9.369  12.957  0.00  0.00    +0.000 C 
ATOM     21  N   UNL     1      48.375   8.901  13.969  0.00  0.00    +0.000 NA
ATOM     22  C   UNL     1      49.694   9.485  13.697  0.00  0.00    +0.000 C 
ENDBRANCH  19  21
ENDBRANCH  18  19
ENDBRANCH  14  18
ENDBRANCH   1  15
BRANCH   1  23
ATOM     23  C   UNL     1      47.505   4.402  15.721  0.00  0.00    +0.000 C 
BRANCH  23  24
ATOM     24  N   UNL     1      47.109   5.485  14.783  0.00  0.00    +0.000 N 
ATOM     25  C   UNL     1      46.345   5.028  13.691  0.00  0.00    +0.000 A 
ATOM     26  C   UNL     1      45.907   5.934  12.707  0.00  0.00    +0.000 A 
ATOM     27  N   UNL     1      45.206   5.578  11.594  0.00  0.00    +0.000 NA
ATOM     28  C   UNL     1      44.955   4.246  11.499  0.00  0.00    +0.000 A 
ATOM     29  C   UNL     1      45.366   3.344  12.467  0.00  0.00    +0.000 A 
ATOM     30  N   UNL     1      46.049   3.717  13.575  0.00  0.00    +0.000 NA
ATOM     31  H   UNL     1      47.952   5.908  14.378  0.00  0.00    +0.000 HD
BRANCH  28  32
ATOM     32  C   UNL     1      44.217   3.737  10.304  0.00  0.00    +0.000 C 
ATOM     33  N   UNL     1      44.103   4.601   9.251  0.00  0.00    +0.000 N 
ATOM     34  O   UNL     1      43.743   2.611  10.266  0.00  0.00    +0.000 OA
ATOM     35  H   UNL     1      44.507   5.531   9.297  0.00  0.00    +0.000 HD
ATOM     36  H   UNL     1      43.620   4.300   8.414  0.00  0.00    +0.000 HD
ENDBRANCH  28  32
ENDBRANCH  23  24
ENDBRANCH   1  23
TORSDOF 10
ENDMDL
MODEL 8
REMARK VINA RESULT:    -6.211      3.876      8.035
REMARK INTER + INTRA:         -11.347
REMARK INTER:                  -9.430
REMARK INTRA:                  -1.917
REMARK UNBOUND:                -1.506
REMARK  Name = 
REMARK  13 active torsions:
REMARK  status: ('A' for Active; 'I' for Inactive)
REMARK    1  A    between atoms: C_1  and  N_2
REMARK    2  A    between atoms: N_2  and  C_3
REMARK    3  A    between atoms: N_2  and  C_4
REMARK    4  A    between atoms: C_4  and  C_5
REMARK    5  A    between atoms: C_5  and  N_6
REMARK    6  A    between atoms: C_7  and  C_9
REMARK    7  A    between atoms: C_9  and  C_10
REMARK    8  A    between atoms: C_9  and  C_11
REMARK    9  A    between atoms: C_9  and  C_22
REMARK   10  A    between atoms: C_11  and  N_12
REMARK   11  A    between atoms: C_16  and  C_17
REMARK   12  A    between atoms: C_26  and  O_27
REMARK   13  A    between atoms: O_27  and  C_28
REMARK                            x       y       z     vdW  Elec       q    Type
REMARK                         _______ _______ _______ _____ _____    ______ ____
ROOT
ATOM      1  C   UNL     1      48.976   8.227  14.328  0.00  0.00    +0.000 C 
ATOM      2  C   UNL     1      49.135   9.624  14.969  0.00  0.00    +0.000 C 
ENDROOT
BRANCH   1   3
ATOM      3  C   UNL     1      49.477   7.158  15.333  0.00  0.00    +0.000 A 
ATOM      4  C   UNL     1      50.806   7.114  15.777  0.00  0.00    +0.000 A 
ATOM      5  C   UNL     1      51.215   6.179  16.736  0.00  0.00    +0.000 A 
ATOM      6  C   UNL     1      50.305   5.278  17.287  0.00  0.00    +0.000 A 
ATOM      7  C   UNL     1      48.976   5.313  16.892  0.00  0.00    +0.000 A 
ATOM      8  C   UNL     1      48.585   6.207  15.881  0.00  0.00    +0.000 A 
BRANCH   7   9
ATOM      9  O   UNL     1      47.987   4.507  17.376  0.00  0.00    +0.000 OA
BRANCH   9  10
ATOM     10  C   UNL     1      47.846   3.189  16.852  0.00  0.00    +0.000 C 
ATOM     11  F   UNL     1      48.975   2.449  16.873  0.00  0.00    +0.000 F 
ATOM     12  F   UNL     1      46.915   2.532  17.581  0.00  0.00    +0.000 F 
ATOM     13  F   UNL     1      47.403   3.262  15.578  0.00  0.00    +0.000 F 
ENDBRANCH   9  10
ENDBRANCH   7   9
ENDBRANCH   1   3
BRANCH   1  15
ATOM     14  N   UNL     1      50.115   9.365  12.393  0.00  0.00    +0.000 N 
ATOM     15  C   UNL     1      49.704   8.178  12.959  0.00  0.00    +0.000 C 
ATOM     16  O   UNL     1      49.910   7.114  12.367  0.00  0.00    +0.000 OA
ATOM     17  H   UNL     1      50.319  10.167  12.980  0.00  0.00    +0.000 HD
BRANCH  14  18
ATOM     18  C   UNL     1      50.714   9.336  11.069  0.00  0.00    +0.000 C 
BRANCH  18  19
ATOM     19  C   UNL     1      52.212   9.672  11.062  0.00  0.00    +0.000 C 
BRANCH  19  21
ATOM     20  C   UNL     1      53.748   7.917  11.746  0.00  0.00    +0.000 C 
ATOM     21  N   UNL     1      53.070   8.554  10.612  0.00  0.00    +0.000 NA
ATOM     22  C   UNL     1      52.251   7.554   9.916  0.00  0.00    +0.000 C 
ENDBRANCH  19  21
ENDBRANCH  18  19
ENDBRANCH  14  18
ENDBRANCH   1  15
BRANCH   1  23
ATOM     23  C   UNL     1      47.467   7.976  13.986  0.00  0.00    +0.000 C 
BRANCH  23  24
ATOM     24  N   UNL     1      47.254   7.712  12.539  0.00  0.00    +0.000 N 
ATOM     25  C   UNL     1      46.420   6.605  12.288  0.00  0.00    +0.000 A 
ATOM     26  C   UNL     1      46.136   6.220  10.965  0.00  0.00    +0.000 A 
ATOM     27  N   UNL     1      45.379   5.138  10.627  0.00  0.00    +0.000 NA
ATOM     28  C   UNL     1      44.907   4.436  11.691  0.00  0.00    +0.000 A 
ATOM     29  C   UNL     1      45.166   4.811  12.999  0.00  0.00    +0.000 A 
ATOM     30  N   UNL     1      45.907   5.899  13.317  0.00  0.00    +0.000 NA
ATOM     31  H   UNL     1      48.155   7.489  12.099  0.00  0.00    +0.000 HD
BRANCH  28  32
ATOM     32  C   UNL     1      44.089   3.212  11.438  0.00  0.00    +0.000 C 
ATOM     33  N   UNL     1      43.753   2.472  12.537  0.00  0.00    +0.000 N 
ATOM     34  O   UNL     1      43.735   2.890  10.313  0.00  0.00    +0.000 OA
ATOM     35  H   UNL     1      44.050   2.756  13.464  0.00  0.00    +0.000 HD
ATOM     36  H   UNL     1      43.191   1.639  12.418  0.00  0.00    +0.000 HD
ENDBRANCH  28  32
ENDBRANCH  23  24
ENDBRANCH   1  23
TORSDOF 10
ENDMDL
MODEL 9
REMARK VINA RESULT:    -6.132      2.464      3.435
REMARK INTER + INTRA:         -11.222
REMARK INTER:                  -9.702
REMARK INTRA:                  -1.520
REMARK UNBOUND:                -1.506
REMARK  Name = 
REMARK  13 active torsions:
REMARK  status: ('A' for Active; 'I' for Inactive)
REMARK    1  A    between atoms: C_1  and  N_2
REMARK    2  A    between atoms: N_2  and  C_3
REMARK    3  A    between atoms: N_2  and  C_4
REMARK    4  A    between atoms: C_4  and  C_5
REMARK    5  A    between atoms: C_5  and  N_6
REMARK    6  A    between atoms: C_7  and  C_9
REMARK    7  A    between atoms: C_9  and  C_10
REMARK    8  A    between atoms: C_9  and  C_11
REMARK    9  A    between atoms: C_9  and  C_22
REMARK   10  A    between atoms: C_11  and  N_12
REMARK   11  A    between atoms: C_16  and  C_17
REMARK   12  A    between atoms: C_26  and  O_27
REMARK   13  A    between atoms: O_27  and  C_28
REMARK                            x       y       z     vdW  Elec       q    Type
REMARK                         _______ _______ _______ _____ _____    ______ ____
ROOT
ATOM      1  C   UNL     1      46.873   7.324  12.608  0.00  0.00    +0.000 C 
ATOM      2  C   UNL     1      46.109   8.473  13.303  0.00  0.00    +0.000 C 
ENDROOT
BRANCH   1   3
ATOM      3  C   UNL     1      45.849   6.408  11.888  0.00  0.00    +0.000 A 
ATOM      4  C   UNL     1      44.615   6.072  12.462  0.00  0.00    +0.000 A 
ATOM      5  C   UNL     1      43.682   5.299  11.761  0.00  0.00    +0.000 A 
ATOM      6  C   UNL     1      43.949   4.856  10.466  0.00  0.00    +0.000 A 
ATOM      7  C   UNL     1      45.150   5.195   9.858  0.00  0.00    +0.000 A 
ATOM      8  C   UNL     1      46.110   5.914  10.589  0.00  0.00    +0.000 A 
BRANCH   7   9
ATOM      9  O   UNL     1      45.516   4.849   8.590  0.00  0.00    +0.000 OA
BRANCH   9  10
ATOM     10  C   UNL     1      45.507   3.474   8.215  0.00  0.00    +0.000 C 
ATOM     11  F   UNL     1      45.684   2.609   9.235  0.00  0.00    +0.000 F 
ATOM     12  F   UNL     1      44.314   3.190   7.644  0.00  0.00    +0.000 F 
ATOM     13  F   UNL     1      46.472   3.258   7.295  0.00  0.00    +0.000 F 
ENDBRANCH   9  10
ENDBRANCH   7   9
ENDBRANCH   1   3
BRANCH   1  15
ATOM     14  N   UNL     1      47.792   7.027  14.932  0.00  0.00    +0.000 N 
ATOM     15  C   UNL     1      47.762   6.571  13.633  0.00  0.00    +0.000 C 
ATOM     16  O   UNL     1      48.444   5.593  13.311  0.00  0.00    +0.000 OA
ATOM     17  H   UNL     1      47.000   7.535  15.314  0.00  0.00    +0.000 HD
BRANCH  14  18
ATOM     18  C   UNL     1      48.693   6.386  15.876  0.00  0.00    +0.000 C 
BRANCH  18  19
ATOM     19  C   UNL     1      48.065   5.198  16.618  0.00  0.00    +0.000 C 
BRANCH  19  21
ATOM     20  C   UNL     1      49.999   4.182  17.684  0.00  0.00    +0.000 C 
ATOM     21  N   UNL     1      48.941   4.008  16.683  0.00  0.00    +0.000 NA
ATOM     22  C   UNL     1      48.141   2.826  17.027  0.00  0.00    +0.000 C 
ENDBRANCH  19  21
ENDBRANCH  18  19
ENDBRANCH  14  18
ENDBRANCH   1  15
BRANCH   1  23
ATOM     23  C   UNL     1      47.882   7.921  11.567  0.00  0.00    +0.000 C 
BRANCH  23  24
ATOM     24  N   UNL     1      48.810   8.905  12.184  0.00  0.00    +0.000 N 
ATOM     25  C   UNL     1      50.164   8.664  11.882  0.00  0.00    +0.000 A 
ATOM     26  C   UNL     1      51.166   9.503  12.406  0.00  0.00    +0.000 A 
ATOM     27  N   UNL     1      52.501   9.319  12.208  0.00  0.00    +0.000 NA
ATOM     28  C   UNL     1      52.806   8.234  11.448  0.00  0.00    +0.000 A 
ATOM     29  C   UNL     1      51.831   7.408  10.913  0.00  0.00    +0.000 A 
ATOM     30  N   UNL     1      50.507   7.614  11.107  0.00  0.00    +0.000 NA
ATOM     31  H   UNL     1      48.735   8.847  13.206  0.00  0.00    +0.000 HD
BRANCH  28  32
ATOM     32  C   UNL     1      54.243   7.919  11.189  0.00  0.00    +0.000 C 
ATOM     33  N   UNL     1      54.623   6.622  11.389  0.00  0.00    +0.000 N 
ATOM     34  O   UNL     1      55.036   8.771  10.816  0.00  0.00    +0.000 OA
ATOM     35  H   UNL     1      53.951   5.925  11.694  0.00  0.00    +0.000 HD
ATOM     36  H   UNL     1      55.584   6.356  11.218  0.00  0.00    +0.000 HD
ENDBRANCH  28  32
ENDBRANCH  23  24
ENDBRANCH   1  23
TORSDOF 10
ENDMDL
