MODEL 1
REMARK VINA RESULT:    -8.011      0.000      0.000
REMARK INTER + INTRA:         -11.779
REMARK INTER:                 -10.821
REMARK INTRA:                  -0.958
REMARK UNBOUND:                -0.958
REMARK  Name = 
REMARK  7 active torsions:
REMARK  status: ('A' for Active; 'I' for Inactive)
REMARK    1  A    between atoms: C_1  and  C_2
REMARK    2  A    between atoms: C_2  and  C_3
REMARK    3  A    between atoms: C_7  and  C_8
REMARK    4  A    between atoms: C_8  and  C_9
REMARK    5  A    between atoms: C_9  and  N_10
REMARK    6  A    between atoms: N_10  and  C_11
REMARK    7  A    between atoms: C_14  and  C_15
REMARK                            x       y       z     vdW  Elec       q    Type
REMARK                         _______ _______ _______ _____ _____    ______ ____
ROOT
ATOM      1  C   UNL     1      43.254   4.553  11.145  0.00  0.00    +0.000 C 
ENDROOT
BRANCH   1   2
ATOM      2  N   UNL     1      43.764   4.934   9.821  0.00  0.00    +0.000 N 
ATOM      3  H   UNL     1      44.189   5.861   9.819  0.00  0.00    +0.000 HD
BRANCH   2   4
ATOM      4  C   UNL     1      44.582   3.991   9.170  0.00  0.00    +0.000 A 
ATOM      5  C   UNL     1      45.515   4.342   8.189  0.00  0.00    +0.000 A 
ATOM      6  C   UNL     1      46.336   3.383   7.598  0.00  0.00    +0.000 A 
ATOM      7  C   UNL     1      46.233   2.072   8.036  0.00  0.00    +0.000 A 
ATOM      8  N   UNL     1      45.386   1.676   9.022  0.00  0.00    +0.000 NA
ATOM      9  C   UNL     1      44.606   2.648   9.570  0.00  0.00    +0.000 A 
BRANCH   7  10
ATOM     10  C   UNL     1      47.098   1.027   7.407  0.00  0.00    +0.000 C 
ATOM     11  N   UNL     1      46.741  -0.268   7.668  0.00  0.00    +0.000 N 
ATOM     12  O   UNL     1      48.066   1.298   6.703  0.00  0.00    +0.000 OA
ATOM     13  H   UNL     1      45.944  -0.451   8.268  0.00  0.00    +0.000 HD
ATOM     14  H   UNL     1      47.290  -1.023   7.292  0.00  0.00    +0.000 HD
ENDBRANCH   7  10
ENDBRANCH   2   4
ENDBRANCH   1   2
BRANCH   1  15
ATOM     15  C   UNL     1      43.607   5.589  12.219  0.00  0.00    +0.000 C 
BRANCH  15  20
ATOM     16  C   UNL     1      47.276   6.414  12.982  0.00  0.00    +0.000 A 
ATOM     17  C   UNL     1      47.660   5.220  13.622  0.00  0.00    +0.000 A 
ATOM     18  C   UNL     1      46.770   4.155  13.778  0.00  0.00    +0.000 A 
ATOM     19  C   UNL     1      45.467   4.259  13.304  0.00  0.00    +0.000 A 
ATOM     20  C   UNL     1      45.052   5.421  12.648  0.00  0.00    +0.000 A 
ATOM     21  C   UNL     1      45.965   6.480  12.477  0.00  0.00    +0.000 A 
BRANCH  16  23
ATOM     22  C   UNL     1      48.699   7.821  11.489  0.00  0.00    +0.000 C 
ATOM     23  C   UNL     1      48.253   7.603  12.947  0.00  0.00    +0.000 C 
ATOM     24  C   UNL     1      47.625   8.865  13.550  0.00  0.00    +0.000 C 
ATOM     25  C   UNL     1      48.088   8.878  15.000  0.00  0.00    +0.000 C 
ATOM     26  O   UNL     1      49.107   7.883  15.147  0.00  0.00    +0.000 OA
ATOM     27  C   UNL     1      49.506   7.486  13.832  0.00  0.00    +0.000 C 
ENDBRANCH  16  23
ENDBRANCH  15  20
ENDBRANCH   1  15
TORSDOF 6
ENDMDL
MODEL 2
REMARK VINA RESULT:    -7.791      1.080      1.385
REMARK INTER + INTRA:         -11.482
REMARK INTER:                 -10.802
REMARK INTRA:                  -0.680
REMARK UNBOUND:                -0.958
REMARK  Name = 
REMARK  7 active torsions:
REMARK  status: ('A' for Active; 'I' for Inactive)
REMARK    1  A    between atoms: C_1  and  C_2
REMARK    2  A    between atoms: C_2  and  C_3
REMARK    3  A    between atoms: C_7  and  C_8
REMARK    4  A    between atoms: C_8  and  C_9
REMARK    5  A    between atoms: C_9  and  N_10
REMARK    6  A    between atoms: N_10  and  C_11
REMARK    7  A    between atoms: C_14  and  C_15
REMARK                            x       y       z     vdW  Elec       q    Type
REMARK                         _______ _______ _______ _____ _____    ______ ____
ROOT
ATOM      1  C   UNL     1      43.312   4.092  11.342  0.00  0.00    +0.000 C 
ENDROOT
BRANCH   1   2
ATOM      2  N   UNL     1      43.660   4.621  10.016  0.00  0.00    +0.000 N 
ATOM      3  H   UNL     1      43.948   5.598  10.050  0.00  0.00    +0.000 HD
BRANCH   2   4
ATOM      4  C   UNL     1      44.551   3.848   9.248  0.00  0.00    +0.000 A 
ATOM      5  C   UNL     1      45.461   4.409   8.346  0.00  0.00    +0.000 A 
ATOM      6  C   UNL     1      46.355   3.611   7.634  0.00  0.00    +0.000 A 
ATOM      7  C   UNL     1      46.348   2.246   7.872  0.00  0.00    +0.000 A 
ATOM      8  N   UNL     1      45.528   1.645   8.774  0.00  0.00    +0.000 NA
ATOM      9  C   UNL     1      44.674   2.466   9.446  0.00  0.00    +0.000 A 
BRANCH   7  10
ATOM     10  C   UNL     1      47.293   1.371   7.111  0.00  0.00    +0.000 C 
ATOM     11  N   UNL     1      48.404   1.997   6.614  0.00  0.00    +0.000 N 
ATOM     12  O   UNL     1      47.097   0.172   6.936  0.00  0.00    +0.000 OA
ATOM     13  H   UNL     1      48.522   2.992   6.765  0.00  0.00    +0.000 HD
ATOM     14  H   UNL     1      49.074   1.472   6.074  0.00  0.00    +0.000 HD
ENDBRANCH   7  10
ENDBRANCH   2   4
ENDBRANCH   1   2
BRANCH   1  15
ATOM     15  C   UNL     1      43.454   5.152  12.442  0.00  0.00    +0.000 C 
BRANCH  15  20
ATOM     16  C   UNL     1      46.901   6.740  13.003  0.00  0.00    +0.000 A 
ATOM     17  C   UNL     1      47.526   5.703  13.722  0.00  0.00    +0.000 A 
ATOM     18  C   UNL     1      46.868   4.502  13.995  0.00  0.00    +0.000 A 
ATOM     19  C   UNL     1      45.561   4.308  13.562  0.00  0.00    +0.000 A 
ATOM     20  C   UNL     1      44.911   5.307  12.830  0.00  0.00    +0.000 A 
ATOM     21  C   UNL     1      45.594   6.505  12.542  0.00  0.00    +0.000 A 
BRANCH  16  23
ATOM     22  C   UNL     1      46.560   9.195  12.701  0.00  0.00    +0.000 C 
ATOM     23  C   UNL     1      47.624   8.089  12.837  0.00  0.00    +0.000 C 
ATOM     24  C   UNL     1      48.585   8.358  14.000  0.00  0.00    +0.000 C 
ATOM     25  C   UNL     1      49.943   7.879  13.504  0.00  0.00    +0.000 C 
ATOM     26  O   UNL     1      49.835   7.623  12.100  0.00  0.00    +0.000 OA
ATOM     27  C   UNL     1      48.604   8.201  11.657  0.00  0.00    +0.000 C 
ENDBRANCH  16  23
ENDBRANCH  15  20
ENDBRANCH   1  15
TORSDOF 6
ENDMDL
MODEL 3
REMARK VINA RESULT:    -7.378      1.540      2.070
REMARK INTER + INTRA:         -10.924
REMARK INTER:                 -10.074
REMARK INTRA:                  -0.851
REMARK UNBOUND:                -0.958
REMARK  Name = 
REMARK  7 active torsions:
REMARK  status: ('A' for Active; 'I' for Inactive)
REMARK    1  A    between atoms: C_1  and  C_2
REMARK    2  A    between atoms: C_2  and  C_3
REMARK    3  A    between atoms: C_7  and  C_8
REMARK    4  A    between atoms: C_8  and  C_9
REMARK    5  A    between atoms: C_9  and  N_10
REMARK    6  A    between atoms: N_10  and  C_11
REMARK    7  A    between atoms: C_14  and  C_15
REMARK                            x       y       z     vdW  Elec       q    Type
REMARK                         _______ _______ _______ _____ _____    ______ ____
ROOT
ATOM      1  C   UNL     1      43.703   3.887  11.376  0.00  0.00    +0.000 C 
ENDROOT
BRANCH   1   2
ATOM      2  N   UNL     1      43.850   2.647  10.600  0.00  0.00    +0.000 N 
ATOM      3  H   UNL     1      42.952   2.217  10.380  0.00  0.00    +0.000 HD
BRANCH   2   4
ATOM      4  C   UNL     1      44.681   2.714   9.466  0.00  0.00    +0.000 A 
ATOM      5  C   UNL     1      44.960   3.911   8.797  0.00  0.00    +0.000 A 
ATOM      6  C   UNL     1      45.821   3.940   7.702  0.00  0.00    +0.000 A 
ATOM      7  C   UNL     1      46.429   2.757   7.313  0.00  0.00    +0.000 A 
ATOM      8  N   UNL     1      46.243   1.573   7.954  0.00  0.00    +0.000 NA
ATOM      9  C   UNL     1      45.395   1.594   9.019  0.00  0.00    +0.000 A 
BRANCH   7  10
ATOM     10  C   UNL     1      47.349   2.767   6.134  0.00  0.00    +0.000 C 
ATOM     11  N   UNL     1      48.659   2.478   6.406  0.00  0.00    +0.000 N 
ATOM     12  O   UNL     1      46.968   3.016   4.994  0.00  0.00    +0.000 OA
ATOM     13  H   UNL     1      48.937   2.294   7.363  0.00  0.00    +0.000 HD
ATOM     14  H   UNL     1      49.337   2.486   5.662  0.00  0.00    +0.000 HD
ENDBRANCH   7  10
ENDBRANCH   2   4
ENDBRANCH   1   2
BRANCH   1  15
ATOM     15  C   UNL     1      44.961   4.207  12.195  0.00  0.00    +0.000 C 
BRANCH  15  20
ATOM     16  C   UNL     1      46.819   7.551  12.485  0.00  0.00    +0.000 A 
ATOM     17  C   UNL     1      45.853   8.409  11.924  0.00  0.00    +0.000 A 
ATOM     18  C   UNL     1      44.615   7.931  11.490  0.00  0.00    +0.000 A 
ATOM     19  C   UNL     1      44.310   6.579  11.599  0.00  0.00    +0.000 A 
ATOM     20  C   UNL     1      45.235   5.697  12.165  0.00  0.00    +0.000 A 
ATOM     21  C   UNL     1      46.472   6.195  12.620  0.00  0.00    +0.000 A 
BRANCH  16  23
ATOM     22  C   UNL     1      48.650   9.058  11.704  0.00  0.00    +0.000 C 
ATOM     23  C   UNL     1      48.213   8.104  12.832  0.00  0.00    +0.000 C 
ATOM     24  C   UNL     1      48.219   8.793  14.201  0.00  0.00    +0.000 C 
ATOM     25  C   UNL     1      48.699   7.725  15.175  0.00  0.00    +0.000 C 
ATOM     26  O   UNL     1      49.191   6.620  14.410  0.00  0.00    +0.000 OA
ATOM     27  C   UNL     1      49.325   7.066  13.057  0.00  0.00    +0.000 C 
ENDBRANCH  16  23
ENDBRANCH  15  20
ENDBRANCH   1  15
TORSDOF 6
ENDMDL
MODEL 4
REMARK VINA RESULT:    -7.029      1.687      2.660
REMARK INTER + INTRA:         -10.453
REMARK INTER:                  -9.953
REMARK INTRA:                  -0.500
REMARK UNBOUND:                -0.958
REMARK  Name = 
REMARK  7 active torsions:
REMARK  status: ('A' for Active; 'I' for Inactive)
REMARK    1  A    between atoms: C_1  and  C_2
REMARK    2  A    between atoms: C_2  and  C_3
REMARK    3  A    between atoms: C_7  and  C_8
REMARK    4  A    between atoms: C_8  and  C_9
REMARK    5  A    between atoms: C_9  and  N_10
REMARK    6  A    between atoms: N_10  and  C_11
REMARK    7  A    between atoms: C_14  and  C_15
REMARK                            x       y       z     vdW  Elec       q    Type
REMARK                         _______ _______ _______ _____ _____    ______ ____
ROOT
ATOM      1  C   UNL     1      44.442   5.439  11.179  0.00  0.00    +0.000 C 
ENDROOT
BRANCH   1   2
ATOM      2  N   UNL     1      43.826   4.657  10.099  0.00  0.00    +0.000 N 
ATOM      3  H   UNL     1      43.142   5.197   9.569  0.00  0.00    +0.000 HD
BRANCH   2   4
ATOM      4  C   UNL     1      44.707   3.964   9.247  0.00  0.00    +0.000 A 
ATOM      5  C   UNL     1      45.599   4.612   8.385  0.00  0.00    +0.000 A 
ATOM      6  C   UNL     1      46.484   3.889   7.588  0.00  0.00    +0.000 A 
ATOM      7  C   UNL     1      46.487   2.508   7.697  0.00  0.00    +0.000 A 
ATOM      8  N   UNL     1      45.685   1.821   8.553  0.00  0.00    +0.000 NA
ATOM      9  C   UNL     1      44.839   2.571   9.313  0.00  0.00    +0.000 A 
BRANCH   7  10
ATOM     10  C   UNL     1      47.423   1.714   6.842  0.00  0.00    +0.000 C 
ATOM     11  N   UNL     1      48.506   2.398   6.361  0.00  0.00    +0.000 N 
ATOM     12  O   UNL     1      47.243   0.528   6.582  0.00  0.00    +0.000 OA
ATOM     13  H   UNL     1      48.610   3.382   6.585  0.00  0.00    +0.000 HD
ATOM     14  H   UNL     1      49.167   1.931   5.763  0.00  0.00    +0.000 HD
ENDBRANCH   7  10
ENDBRANCH   2   4
ENDBRANCH   1   2
BRANCH   1  15
ATOM     15  C   UNL     1      43.784   6.815  11.344  0.00  0.00    +0.000 C 
BRANCH  15  20
ATOM     16  C   UNL     1      47.135   8.364  12.389  0.00  0.00    +0.000 A 
ATOM     17  C   UNL     1      46.847   9.725  12.168  0.00  0.00    +0.000 A 
ATOM     18  C   UNL     1      45.591  10.143  11.724  0.00  0.00    +0.000 A 
ATOM     19  C   UNL     1      44.589   9.210  11.480  0.00  0.00    +0.000 A 
ATOM     20  C   UNL     1      44.830   7.852  11.703  0.00  0.00    +0.000 A 
ATOM     21  C   UNL     1      46.094   7.444  12.174  0.00  0.00    +0.000 A 
BRANCH  16  23
ATOM     22  C   UNL     1      48.501   6.608  13.522  0.00  0.00    +0.000 C 
ATOM     23  C   UNL     1      48.569   7.944  12.758  0.00  0.00    +0.000 C 
ATOM     24  C   UNL     1      49.464   7.851  11.517  0.00  0.00    +0.000 C 
ATOM     25  C   UNL     1      50.169   9.198  11.440  0.00  0.00    +0.000 C 
ATOM     26  O   UNL     1      49.924   9.895  12.667  0.00  0.00    +0.000 OA
ATOM     27  C   UNL     1      49.383   8.947  13.592  0.00  0.00    +0.000 C 
ENDBRANCH  16  23
ENDBRANCH  15  20
ENDBRANCH   1  15
TORSDOF 6
ENDMDL
MODEL 5
REMARK VINA RESULT:    -6.712      2.431      3.285
REMARK INTER + INTRA:         -10.025
REMARK INTER:                  -9.441
REMARK INTRA:                  -0.584
REMARK UNBOUND:                -0.958
REMARK  Name = 
REMARK  7 active torsions:
REMARK  status: ('A' for Active; 'I' for Inactive)
REMARK    1  A    between atoms: C_1  and  C_2
REMARK    2  A    between atoms: C_2  and  C_3
REMARK    3  A    between atoms: C_7  and  C_8
REMARK    4  A    between atoms: C_8  and  C_9
REMARK    5  A    between atoms: C_9  and  N_10
REMARK    6  A    between atoms: N_10  and  C_11
REMARK    7  A    between atoms: C_14  and  C_15
REMARK                            x       y       z     vdW  Elec       q    Type
REMARK                         _______ _______ _______ _____ _____    ______ ____
ROOT
ATOM      1  C   UNL     1      44.832   4.940  11.788  0.00  0.00    +0.000 C 
ENDROOT
BRANCH   1   2
ATOM      2  N   UNL     1      44.152   4.183  10.728  0.00  0.00    +0.000 N 
ATOM      3  H   UNL     1      43.255   4.593  10.471  0.00  0.00    +0.000 HD
BRANCH   2   4
ATOM      4  C   UNL     1      44.921   3.872   9.591  0.00  0.00    +0.000 A 
ATOM      5  C   UNL     1      45.688   4.823   8.908  0.00  0.00    +0.000 A 
ATOM      6  C   UNL     1      46.469   4.465   7.811  0.00  0.00    +0.000 A 
ATOM      7  C   UNL     1      46.499   3.133   7.433  0.00  0.00    +0.000 A 
ATOM      8  N   UNL     1      45.821   2.152   8.086  0.00  0.00    +0.000 NA
ATOM      9  C   UNL     1      45.074   2.550   9.153  0.00  0.00    +0.000 A 
BRANCH   7  10
ATOM     10  C   UNL     1      47.323   2.731   6.251  0.00  0.00    +0.000 C 
ATOM     11  N   UNL     1      48.655   2.540   6.499  0.00  0.00    +0.000 N 
ATOM     12  O   UNL     1      46.849   2.581   5.129  0.00  0.00    +0.000 OA
ATOM     13  H   UNL     1      49.011   2.691   7.436  0.00  0.00    +0.000 HD
ATOM     14  H   UNL     1      49.272   2.287   5.745  0.00  0.00    +0.000 HD
ENDBRANCH   7  10
ENDBRANCH   2   4
ENDBRANCH   1   2
BRANCH   1  15
ATOM     15  C   UNL     1      45.597   4.024  12.752  0.00  0.00    +0.000 C 
BRANCH  15  20
ATOM     16  C   UNL     1      47.883   5.050  15.657  0.00  0.00    +0.000 A 
ATOM     17  C   UNL     1      48.458   6.212  15.108  0.00  0.00    +0.000 A 
ATOM     18  C   UNL     1      48.096   6.679  13.842  0.00  0.00    +0.000 A 
ATOM     19  C   UNL     1      47.154   5.990  13.087  0.00  0.00    +0.000 A 
ATOM     20  C   UNL     1      46.547   4.842  13.603  0.00  0.00    +0.000 A 
ATOM     21  C   UNL     1      46.903   4.394  14.891  0.00  0.00    +0.000 A 
BRANCH  16  23
ATOM     22  C   UNL     1      48.549   2.979  16.883  0.00  0.00    +0.000 C 
ATOM     23  C   UNL     1      48.405   4.509  17.000  0.00  0.00    +0.000 C 
ATOM     24  C   UNL     1      49.723   5.180  17.402  0.00  0.00    +0.000 C 
ATOM     25  C   UNL     1      49.316   6.317  18.329  0.00  0.00    +0.000 C 
ATOM     26  O   UNL     1      47.933   6.147  18.656  0.00  0.00    +0.000 OA
ATOM     27  C   UNL     1      47.559   4.830  18.243  0.00  0.00    +0.000 C 
ENDBRANCH  16  23
ENDBRANCH  15  20
ENDBRANCH   1  15
TORSDOF 6
ENDMDL
MODEL 6
REMARK VINA RESULT:    -6.679      5.123      8.106
REMARK INTER + INTRA:          -9.980
REMARK INTER:                  -9.400
REMARK INTRA:                  -0.580
REMARK UNBOUND:                -0.958
REMARK  Name = 
REMARK  7 active torsions:
REMARK  status: ('A' for Active; 'I' for Inactive)
REMARK    1  A    between atoms: C_1  and  C_2
REMARK    2  A    between atoms: C_2  and  C_3
REMARK    3  A    between atoms: C_7  and  C_8
REMARK    4  A    between atoms: C_8  and  C_9
REMARK    5  A    between atoms: C_9  and  N_10
REMARK    6  A    between atoms: N_10  and  C_11
REMARK    7  A    between atoms: C_14  and  C_15
REMARK                            x       y       z     vdW  Elec       q    Type
REMARK                         _______ _______ _______ _____ _____    ______ ____
ROOT
ATOM      1  C   UNL     1      47.848   4.940  15.995  0.00  0.00    +0.000 C 
ENDROOT
BRANCH   1   2
ATOM      2  N   UNL     1      48.161   4.290  17.275  0.00  0.00    +0.000 N 
ATOM      3  H   UNL     1      47.383   3.737  17.632  0.00  0.00    +0.000 HD
BRANCH   2   4
ATOM      4  C   UNL     1      49.371   3.573  17.331  0.00  0.00    +0.000 A 
ATOM      5  C   UNL     1      50.554   4.116  17.845  0.00  0.00    +0.000 A 
ATOM      6  C   UNL     1      51.721   3.359  17.922  0.00  0.00    +0.000 A 
ATOM      7  C   UNL     1      51.673   2.036  17.513  0.00  0.00    +0.000 A 
ATOM      8  N   UNL     1      50.544   1.433  17.055  0.00  0.00    +0.000 NA
ATOM      9  C   UNL     1      49.428   2.212  17.000  0.00  0.00    +0.000 A 
BRANCH   7  10
ATOM     10  C   UNL     1      52.918   1.210  17.578  0.00  0.00    +0.000 C 
ATOM     11  N   UNL     1      52.771  -0.034  18.130  0.00  0.00    +0.000 N 
ATOM     12  O   UNL     1      54.004   1.609  17.169  0.00  0.00    +0.000 OA
ATOM     13  H   UNL     1      51.861  -0.320  18.472  0.00  0.00    +0.000 HD
ATOM     14  H   UNL     1      53.573  -0.637  18.223  0.00  0.00    +0.000 HD
ENDBRANCH   7  10
ENDBRANCH   2   4
ENDBRANCH   1   2
BRANCH   1  15
ATOM     15  C   UNL     1      47.117   3.996  15.032  0.00  0.00    +0.000 C 
BRANCH  15  20
ATOM     16  C   UNL     1      45.217   5.043  11.868  0.00  0.00    +0.000 A 
ATOM     17  C   UNL     1      45.958   6.187  11.512  0.00  0.00    +0.000 A 
ATOM     18  C   UNL     1      47.068   6.597  12.253  0.00  0.00    +0.000 A 
ATOM     19  C   UNL     1      47.463   5.879  13.377  0.00  0.00    +0.000 A 
ATOM     20  C   UNL     1      46.763   4.729  13.753  0.00  0.00    +0.000 A 
ATOM     21  C   UNL     1      45.659   4.311  12.984  0.00  0.00    +0.000 A 
BRANCH  16  23
ATOM     22  C   UNL     1      42.900   5.821  11.353  0.00  0.00    +0.000 C 
ATOM     23  C   UNL     1      43.930   4.705  11.094  0.00  0.00    +0.000 C 
ATOM     24  C   UNL     1      44.208   4.516   9.598  0.00  0.00    +0.000 C 
ATOM     25  C   UNL     1      44.386   3.014   9.419  0.00  0.00    +0.000 C 
ATOM     26  O   UNL     1      43.974   2.373  10.631  0.00  0.00    +0.000 OA
ATOM     27  C   UNL     1      43.277   3.349  11.411  0.00  0.00    +0.000 C 
ENDBRANCH  16  23
ENDBRANCH  15  20
ENDBRANCH   1  15
TORSDOF 6
ENDMDL
MODEL 7
REMARK VINA RESULT:    -6.678      4.209      7.242
REMARK INTER + INTRA:          -9.979
REMARK INTER:                  -8.699
REMARK INTRA:                  -1.280
REMARK UNBOUND:                -0.958
REMARK  Name = 
REMARK  7 active torsions:
REMARK  status: ('A' for Active; 'I' for Inactive)
REMARK    1  A    between atoms: C_1  and  C_2
REMARK    2  A    between atoms: C_2  and  C_3
REMARK    3  A    between atoms: C_7  and  C_8
REMARK    4  A    between atoms: C_8  and  C_9
REMARK    5  A    between atoms: C_9  and  N_10
REMARK    6  A    between atoms: N_10  and  C_11
REMARK    7  A    between atoms: C_14  and  C_15
REMARK                            x       y       z     vdW  Elec       q    Type
REMARK                         _______ _______ _______ _____ _____    ______ ____
ROOT
ATOM      1  C   UNL     1      49.424   7.119  12.999  0.00  0.00    +0.000 C 
ENDROOT
BRANCH   1   2
ATOM      2  N   UNL     1      48.835   7.505  14.289  0.00  0.00    +0.000 N 
ATOM      3  H   UNL     1      48.089   8.192  14.187  0.00  0.00    +0.000 HD
BRANCH   2   4
ATOM      4  C   UNL     1      48.452   6.452  15.141  0.00  0.00    +0.000 A 
ATOM      5  C   UNL     1      47.573   5.437  14.748  0.00  0.00    +0.000 A 
ATOM      6  C   UNL     1      47.252   4.389  15.609  0.00  0.00    +0.000 A 
ATOM      7  C   UNL     1      47.857   4.354  16.855  0.00  0.00    +0.000 A 
ATOM      8  N   UNL     1      48.760   5.278  17.276  0.00  0.00    +0.000 NA
ATOM      9  C   UNL     1      49.044   6.281  16.400  0.00  0.00    +0.000 A 
BRANCH   7  10
ATOM     10  C   UNL     1      47.517   3.242  17.796  0.00  0.00    +0.000 C 
ATOM     11  N   UNL     1      48.356   3.100  18.868  0.00  0.00    +0.000 N 
ATOM     12  O   UNL     1      46.554   2.500  17.630  0.00  0.00    +0.000 OA
ATOM     13  H   UNL     1      49.151   3.723  18.960  0.00  0.00    +0.000 HD
ATOM     14  H   UNL     1      48.198   2.360  19.532  0.00  0.00    +0.000 HD
ENDBRANCH   7  10
ENDBRANCH   2   4
ENDBRANCH   1   2
BRANCH   1  15
ATOM     15  C   UNL     1      48.924   8.004  11.850  0.00  0.00    +0.000 C 
BRANCH  15  20
ATOM     16  C   UNL     1      45.421   6.525  11.338  0.00  0.00    +0.000 A 
ATOM     17  C   UNL     1      44.638   7.629  11.723  0.00  0.00    +0.000 A 
ATOM     18  C   UNL     1      45.219   8.839  12.109  0.00  0.00    +0.000 A 
ATOM     19  C   UNL     1      46.603   8.975  12.127  0.00  0.00    +0.000 A 
ATOM     20  C   UNL     1      47.416   7.906  11.736  0.00  0.00    +0.000 A 
ATOM     21  C   UNL     1      46.817   6.699  11.326  0.00  0.00    +0.000 A 
BRANCH  16  23
ATOM     22  C   UNL     1      45.176   4.708   9.642  0.00  0.00    +0.000 C 
ATOM     23  C   UNL     1      44.738   5.178  11.042  0.00  0.00    +0.000 C 
ATOM     24  C   UNL     1      45.056   4.137  12.122  0.00  0.00    +0.000 C 
ATOM     25  C   UNL     1      43.885   4.209  13.092  0.00  0.00    +0.000 C 
ATOM     26  O   UNL     1      42.859   5.004  12.488  0.00  0.00    +0.000 OA
ATOM     27  C   UNL     1      43.201   5.160  11.108  0.00  0.00    +0.000 C 
ENDBRANCH  16  23
ENDBRANCH  15  20
ENDBRANCH   1  15
TORSDOF 6
ENDMDL
MODEL 8
REMARK VINA RESULT:    -6.583      3.570      5.651
REMARK INTER + INTRA:          -9.850
REMARK INTER:                  -9.007
REMARK INTRA:                  -0.843
REMARK UNBOUND:                -0.958
REMARK  Name = 
REMARK  7 active torsions:
REMARK  status: ('A' for Active; 'I' for Inactive)
REMARK    1  A    between atoms: C_1  and  C_2
REMARK    2  A    between atoms: C_2  and  C_3
REMARK    3  A    between atoms: C_7  and  C_8
REMARK    4  A    between atoms: C_8  and  C_9
REMARK    5  A    between atoms: C_9  and  N_10
REMARK    6  A    between atoms: N_10  and  C_11
REMARK    7  A    between atoms: C_14  and  C_15
REMARK                            x       y       z     vdW  Elec       q    Type
REMARK                         _______ _______ _______ _____ _____    ______ ____
ROOT
ATOM      1  C   UNL     1      48.224   7.121  13.495  0.00  0.00    +0.000 C 
ENDROOT
BRANCH   1   2
ATOM      2  N   UNL     1      46.761   7.179  13.612  0.00  0.00    +0.000 N 
ATOM      3  H   UNL     1      46.386   8.096  13.371  0.00  0.00    +0.000 HD
BRANCH   2   4
ATOM      4  C   UNL     1      46.041   6.147  12.979  0.00  0.00    +0.000 A 
ATOM      5  C   UNL     1      45.595   6.232  11.656  0.00  0.00    +0.000 A 
ATOM      6  C   UNL     1      44.922   5.171  11.054  0.00  0.00    +0.000 A 
ATOM      7  C   UNL     1      44.739   4.009  11.786  0.00  0.00    +0.000 A 
ATOM      8  N   UNL     1      45.196   3.843  13.056  0.00  0.00    +0.000 NA
ATOM      9  C   UNL     1      45.849   4.906  13.601  0.00  0.00    +0.000 A 
BRANCH   7  10
ATOM     10  C   UNL     1      44.010   2.863  11.160  0.00  0.00    +0.000 C 
ATOM     11  N   UNL     1      44.628   2.290  10.082  0.00  0.00    +0.000 N 
ATOM     12  O   UNL     1      42.930   2.454  11.576  0.00  0.00    +0.000 OA
ATOM     13  H   UNL     1      45.511   2.668   9.759  0.00  0.00    +0.000 HD
ATOM     14  H   UNL     1      44.184   1.525   9.600  0.00  0.00    +0.000 HD
ENDBRANCH   7  10
ENDBRANCH   2   4
ENDBRANCH   1   2
BRANCH   1  15
ATOM     15  C   UNL     1      48.921   8.033  14.513  0.00  0.00    +0.000 C 
BRANCH  15  20
ATOM     16  C   UNL     1      49.860   5.294  17.031  0.00  0.00    +0.000 A 
ATOM     17  C   UNL     1      51.249   5.514  17.114  0.00  0.00    +0.000 A 
ATOM     18  C   UNL     1      51.870   6.543  16.403  0.00  0.00    +0.000 A 
ATOM     19  C   UNL     1      51.119   7.376  15.581  0.00  0.00    +0.000 A 
ATOM     20  C   UNL     1      49.736   7.201  15.483  0.00  0.00    +0.000 A 
ATOM     21  C   UNL     1      49.117   6.174  16.224  0.00  0.00    +0.000 A 
BRANCH  16  23
ATOM     22  C   UNL     1      49.292   4.313  19.256  0.00  0.00    +0.000 C 
ATOM     23  C   UNL     1      49.244   4.072  17.735  0.00  0.00    +0.000 C 
ATOM     24  C   UNL     1      47.818   3.800  17.242  0.00  0.00    +0.000 C 
ATOM     25  C   UNL     1      47.974   2.751  16.150  0.00  0.00    +0.000 C 
ATOM     26  O   UNL     1      49.317   2.258  16.200  0.00  0.00    +0.000 OA
ATOM     27  C   UNL     1      49.889   2.709  17.432  0.00  0.00    +0.000 C 
ENDBRANCH  16  23
ENDBRANCH  15  20
ENDBRANCH   1  15
TORSDOF 6
ENDMDL
MODEL 9
REMARK VINA RESULT:    -6.460      4.757      7.698
REMARK INTER + INTRA:          -9.684
REMARK INTER:                  -8.826
REMARK INTRA:                  -0.858
REMARK UNBOUND:                -0.958
REMARK  Name = 
REMARK  7 active torsions:
REMARK  status: ('A' for Active; 'I' for Inactive)
REMARK    1  A    between atoms: C_1  and  C_2
REMARK    2  A    between atoms: C_2  and  C_3
REMARK    3  A    between atoms: C_7  and  C_8
REMARK    4  A    between atoms: C_8  and  C_9
REMARK    5  A    between atoms: C_9  and  N_10
REMARK    6  A    between atoms: N_10  and  C_11
REMARK    7  A    between atoms: C_14  and  C_15
REMARK                            x       y       z     vdW  Elec       q    Type
REMARK                         _______ _______ _______ _____ _____    ______ ____
ROOT
ATOM      1  C   UNL     1      48.666   7.761  15.364  0.00  0.00    +0.000 C 
ENDROOT
BRANCH   1   2
ATOM      2  N   UNL     1      48.298   6.943  16.528  0.00  0.00    +0.000 N 
ATOM      3  H   UNL     1      47.303   6.727  16.554  0.00  0.00    +0.000 HD
BRANCH   2   4
ATOM      4  C   UNL     1      49.081   5.796  16.758  0.00  0.00    +0.000 A 
ATOM      5  C   UNL     1      50.428   5.856  17.131  0.00  0.00    +0.000 A 
ATOM      6  C   UNL     1      51.157   4.697  17.390  0.00  0.00    +0.000 A 
ATOM      7  C   UNL     1      50.503   3.479  17.308  0.00  0.00    +0.000 A 
ATOM      8  N   UNL     1      49.183   3.355  17.004  0.00  0.00    +0.000 NA
ATOM      9  C   UNL     1      48.513   4.515  16.761  0.00  0.00    +0.000 A 
BRANCH   7  10
ATOM     10  C   UNL     1      51.270   2.223  17.572  0.00  0.00    +0.000 C 
ATOM     11  N   UNL     1      52.257   2.322  18.515  0.00  0.00    +0.000 N 
ATOM     12  O   UNL     1      51.042   1.167  16.989  0.00  0.00    +0.000 OA
ATOM     13  H   UNL     1      52.426   3.216  18.962  0.00  0.00    +0.000 HD
ATOM     14  H   UNL     1      52.826   1.520  18.730  0.00  0.00    +0.000 HD
ENDBRANCH   7  10
ENDBRANCH   2   4
ENDBRANCH   1   2
BRANCH   1  15
ATOM     15  C   UNL     1      48.664   6.947  14.064  0.00  0.00    +0.000 C 
BRANCH  15  20
ATOM     16  C   UNL     1      45.541   6.405  11.902  0.00  0.00    +0.000 A 
ATOM     17  C   UNL     1      44.975   7.693  11.975  0.00  0.00    +0.000 A 
ATOM     18  C   UNL     1      45.599   8.727  12.676  0.00  0.00    +0.000 A 
ATOM     19  C   UNL     1      46.804   8.499  13.332  0.00  0.00    +0.000 A 
ATOM     20  C   UNL     1      47.406   7.240  13.270  0.00  0.00    +0.000 A 
ATOM     21  C   UNL     1      46.779   6.210  12.540  0.00  0.00    +0.000 A 
BRANCH  16  23
ATOM     22  C   UNL     1      45.334   5.053   9.814  0.00  0.00    +0.000 C 
ATOM     23  C   UNL     1      44.754   5.270  11.224  0.00  0.00    +0.000 C 
ATOM     24  C   UNL     1      44.786   3.986  12.062  0.00  0.00    +0.000 C 
ATOM     25  C   UNL     1      43.502   4.020  12.879  0.00  0.00    +0.000 C 
ATOM     26  O   UNL     1      42.676   5.069  12.362  0.00  0.00    +0.000 OA
ATOM     27  C   UNL     1      43.233   5.466  11.105  0.00  0.00    +0.000 C 
ENDBRANCH  16  23
ENDBRANCH  15  20
ENDBRANCH   1  15
TORSDOF 6
ENDMDL
