MODEL 1
REMARK VINA RESULT:    -9.268      0.000      0.000
REMARK INTER + INTRA:         -13.786
REMARK INTER:                 -12.519
REMARK INTRA:                  -1.267
REMARK UNBOUND:                -1.267
REMARK  Name = 
REMARK  7 active torsions:
REMARK  status: ('A' for Active; 'I' for Inactive)
REMARK    1  A    between atoms: C_1  and  C_2
REMARK    2  A    between atoms: C_4  and  C_5
REMARK    3  A    between atoms: C_10  and  N_11
REMARK    4  A    between atoms: N_11  and  C_12
REMARK    5  A    between atoms: C_12  and  C_13
REMARK    6  A    between atoms: C_17  and  C_18
REMARK    7  A    between atoms: C_23  and  C_24
REMARK                            x       y       z     vdW  Elec       q    Type
REMARK                         _______ _______ _______ _____ _____    ______ ____
ROOT
ATOM      1  C   UNL     1      43.791   5.426  11.094  0.00  0.00    +0.000 C 
ATOM      2  C   UNL     1      42.644   4.627  11.744  0.00  0.00    +0.000 C 
ATOM      3  C   UNL     1      42.577   6.106  11.702  0.00  0.00    +0.000 C 
ENDROOT
BRANCH   1   4
ATOM      4  C   UNL     1      45.084   5.519  11.922  0.00  0.00    +0.000 A 
ATOM      5  C   UNL     1      45.471   4.503  12.804  0.00  0.00    +0.000 A 
ATOM      6  C   UNL     1      46.703   4.552  13.459  0.00  0.00    +0.000 A 
ATOM      7  C   UNL     1      47.578   5.620  13.240  0.00  0.00    +0.000 A 
ATOM      8  C   UNL     1      47.243   6.668  12.372  0.00  0.00    +0.000 A 
ATOM      9  C   UNL     1      45.977   6.602  11.758  0.00  0.00    +0.000 A 
BRANCH   8  10
ATOM     10  C   UNL     1      48.186   7.771  12.058  0.00  0.00    +0.000 A 
ATOM     11  C   UNL     1      47.815   9.118  12.184  0.00  0.00    +0.000 A 
ATOM     12  C   UNL     1      48.687  10.152  11.825  0.00  0.00    +0.000 A 
ATOM     13  C   UNL     1      49.976   9.871  11.365  0.00  0.00    +0.000 A 
ATOM     14 CL   UNL     1      50.954  11.227  10.939  0.00  0.00    +0.000 Cl
ATOM     15  C   UNL     1      50.407   8.548  11.266  0.00  0.00    +0.000 A 
ATOM     16  C   UNL     1      49.488   7.518  11.588  0.00  0.00    +0.000 A 
BRANCH  15  17
ATOM     17  C   UNL     1      51.794   8.126  10.858  0.00  0.00    +0.000 C 
ATOM     18  F   UNL     1      52.780   8.305  11.773  0.00  0.00    +0.000 F 
ATOM     19  F   UNL     1      51.834   6.796  10.545  0.00  0.00    +0.000 F 
ATOM     20  F   UNL     1      52.214   8.770   9.731  0.00  0.00    +0.000 F 
ENDBRANCH  15  17
ENDBRANCH   8  10
ENDBRANCH   1   4
BRANCH   1  21
ATOM     21  N   UNL     1      44.023   5.058   9.695  0.00  0.00    +0.000 N 
ATOM     22  H   UNL     1      43.355   5.417   9.016  0.00  0.00    +0.000 HD
BRANCH  21  29
ATOM     23  C   UNL     1      44.046   1.956  10.149  0.00  0.00    +0.000 C 
ATOM     24  C   UNL     1      44.885   2.753   9.208  0.00  0.00    +0.000 A 
ATOM     25  C   UNL     1      45.870   2.035   8.494  0.00  0.00    +0.000 A 
ATOM     26  C   UNL     1      46.715   2.654   7.579  0.00  0.00    +0.000 A 
ATOM     27  C   UNL     1      46.528   4.008   7.411  0.00  0.00    +0.000 A 
ATOM     28  N   UNL     1      45.613   4.740   8.107  0.00  0.00    +0.000 NA
ATOM     29  C   UNL     1      44.806   4.132   9.021  0.00  0.00    +0.000 A 
BRANCH  26  30
ATOM     30  C   UNL     1      47.730   1.831   6.876  0.00  0.00    +0.000 C 
ATOM     31  N   UNL     1      48.714   2.440   6.153  0.00  0.00    +0.000 N 
ATOM     32  O   UNL     1      47.697   0.605   6.934  0.00  0.00    +0.000 OA
ATOM     33  H   UNL     1      48.834   3.433   6.028  0.00  0.00    +0.000 HD
ATOM     34  H   UNL     1      49.375   1.825   5.692  0.00  0.00    +0.000 HD
ENDBRANCH  26  30
ENDBRANCH  21  29
ENDBRANCH   1  21
TORSDOF 6
ENDMDL
MODEL 2
REMARK VINA RESULT:    -8.936      3.531      4.670
REMARK INTER + INTRA:         -13.338
REMARK INTER:                 -12.366
REMARK INTRA:                  -0.972
REMARK UNBOUND:                -1.267
REMARK  Name = 
REMARK  7 active torsions:
REMARK  status: ('A' for Active; 'I' for Inactive)
REMARK    1  A    between atoms: C_1  and  C_2
REMARK    2  A    between atoms: C_4  and  C_5
REMARK    3  A    between atoms: C_10  and  N_11
REMARK    4  A    between atoms: N_11  and  C_12
REMARK    5  A    between atoms: C_12  and  C_13
REMARK    6  A    between atoms: C_17  and  C_18
REMARK    7  A    between atoms: C_23  and  C_24
REMARK                            x       y       z     vdW  Elec       q    Type
REMARK                         _______ _______ _______ _____ _____    ______ ____
ROOT
ATOM      1  C   UNL     1      44.045   5.163  11.304  0.00  0.00    +0.000 C 
ATOM      2  C   UNL     1      43.320   4.114  12.172  0.00  0.00    +0.000 C 
ATOM      3  C   UNL     1      42.859   5.522  12.183  0.00  0.00    +0.000 C 
ENDROOT
BRANCH   1   4
ATOM      4  C   UNL     1      45.417   5.620  11.828  0.00  0.00    +0.000 A 
ATOM      5  C   UNL     1      46.166   6.606  11.174  0.00  0.00    +0.000 A 
ATOM      6  C   UNL     1      47.354   7.090  11.726  0.00  0.00    +0.000 A 
ATOM      7  C   UNL     1      47.815   6.599  12.951  0.00  0.00    +0.000 A 
ATOM      8  C   UNL     1      47.110   5.608  13.649  0.00  0.00    +0.000 A 
ATOM      9  C   UNL     1      45.937   5.119  13.042  0.00  0.00    +0.000 A 
BRANCH   8  10
ATOM     10  C   UNL     1      47.534   5.128  14.988  0.00  0.00    +0.000 A 
ATOM     11  C   UNL     1      47.148   3.871  15.478  0.00  0.00    +0.000 A 
ATOM     12  C   UNL     1      47.497   3.452  16.767  0.00  0.00    +0.000 A 
ATOM     13  C   UNL     1      48.278   4.262  17.595  0.00  0.00    +0.000 A 
ATOM     14 CL   UNL     1      48.630   3.646  19.166  0.00  0.00    +0.000 Cl
ATOM     15  C   UNL     1      48.724   5.502  17.135  0.00  0.00    +0.000 A 
ATOM     16  C   UNL     1      48.316   5.925  15.845  0.00  0.00    +0.000 A 
BRANCH  15  17
ATOM     17  C   UNL     1      49.631   6.426  17.903  0.00  0.00    +0.000 C 
ATOM     18  F   UNL     1      49.183   6.860  19.108  0.00  0.00    +0.000 F 
ATOM     19  F   UNL     1      50.836   5.834  18.162  0.00  0.00    +0.000 F 
ATOM     20  F   UNL     1      49.932   7.553  17.194  0.00  0.00    +0.000 F 
ENDBRANCH  15  17
ENDBRANCH   8  10
ENDBRANCH   1   4
BRANCH   1  21
ATOM     21  N   UNL     1      44.052   4.819   9.880  0.00  0.00    +0.000 N 
ATOM     22  H   UNL     1      43.206   5.036   9.359  0.00  0.00    +0.000 HD
BRANCH  21  29
ATOM     23  C   UNL     1      44.125   1.688   9.760  0.00  0.00    +0.000 C 
ATOM     24  C   UNL     1      44.943   2.657   8.974  0.00  0.00    +0.000 A 
ATOM     25  C   UNL     1      45.930   2.097   8.132  0.00  0.00    +0.000 A 
ATOM     26  C   UNL     1      46.756   2.886   7.340  0.00  0.00    +0.000 A 
ATOM     27  C   UNL     1      46.548   4.245   7.423  0.00  0.00    +0.000 A 
ATOM     28  N   UNL     1      45.630   4.822   8.249  0.00  0.00    +0.000 NA
ATOM     29  C   UNL     1      44.842   4.045   9.043  0.00  0.00    +0.000 A 
BRANCH  26  30
ATOM     30  C   UNL     1      47.775   2.222   6.490  0.00  0.00    +0.000 C 
ATOM     31  N   UNL     1      48.198   2.825   5.341  0.00  0.00    +0.000 N 
ATOM     32  O   UNL     1      48.246   1.133   6.806  0.00  0.00    +0.000 OA
ATOM     33  H   UNL     1      47.878   3.710   4.980  0.00  0.00    +0.000 HD
ATOM     34  H   UNL     1      48.892   2.321   4.801  0.00  0.00    +0.000 HD
ENDBRANCH  26  30
ENDBRANCH  21  29
ENDBRANCH   1  21
TORSDOF 6
ENDMDL
MODEL 3
REMARK VINA RESULT:    -8.796      1.804      2.169
REMARK INTER + INTRA:         -13.149
REMARK INTER:                 -11.515
REMARK INTRA:                  -1.634
REMARK UNBOUND:                -1.267
REMARK  Name = 
REMARK  7 active torsions:
REMARK  status: ('A' for Active; 'I' for Inactive)
REMARK    1  A    between atoms: C_1  and  C_2
REMARK    2  A    between atoms: C_4  and  C_5
REMARK    3  A    between atoms: C_10  and  N_11
REMARK    4  A    between atoms: N_11  and  C_12
REMARK    5  A    between atoms: C_12  and  C_13
REMARK    6  A    between atoms: C_17  and  C_18
REMARK    7  A    between atoms: C_23  and  C_24
REMARK                            x       y       z     vdW  Elec       q    Type
REMARK                         _______ _______ _______ _____ _____    ______ ____
ROOT
ATOM      1  C   UNL     1      43.706   5.522  11.031  0.00  0.00    +0.000 C 
ATOM      2  C   UNL     1      42.335   5.495  11.736  0.00  0.00    +0.000 C 
ATOM      3  C   UNL     1      42.959   6.794  11.392  0.00  0.00    +0.000 C 
ENDROOT
BRANCH   1   4
ATOM      4  C   UNL     1      44.914   5.190  11.923  0.00  0.00    +0.000 A 
ATOM      5  C   UNL     1      45.052   3.945  12.548  0.00  0.00    +0.000 A 
ATOM      6  C   UNL     1      46.209   3.622  13.259  0.00  0.00    +0.000 A 
ATOM      7  C   UNL     1      47.259   4.539  13.355  0.00  0.00    +0.000 A 
ATOM      8  C   UNL     1      47.176   5.804  12.755  0.00  0.00    +0.000 A 
ATOM      9  C   UNL     1      45.978   6.106  12.078  0.00  0.00    +0.000 A 
BRANCH   8  10
ATOM     10  C   UNL     1      48.306   6.766  12.773  0.00  0.00    +0.000 A 
ATOM     11  C   UNL     1      48.625   7.552  11.655  0.00  0.00    +0.000 A 
ATOM     12  C   UNL     1      49.731   8.409  11.658  0.00  0.00    +0.000 A 
ATOM     13  C   UNL     1      50.534   8.537  12.795  0.00  0.00    +0.000 A 
ATOM     14 CL   UNL     1      51.877   9.611  12.673  0.00  0.00    +0.000 Cl
ATOM     15  C   UNL     1      50.230   7.809  13.946  0.00  0.00    +0.000 A 
ATOM     16  C   UNL     1      49.134   6.911  13.902  0.00  0.00    +0.000 A 
BRANCH  15  17
ATOM     17  C   UNL     1      50.972   7.921  15.252  0.00  0.00    +0.000 C 
ATOM     18  F   UNL     1      50.492   7.191  16.290  0.00  0.00    +0.000 F 
ATOM     19  F   UNL     1      52.275   7.534  15.115  0.00  0.00    +0.000 F 
ATOM     20  F   UNL     1      51.027   9.209  15.700  0.00  0.00    +0.000 F 
ENDBRANCH  15  17
ENDBRANCH   8  10
ENDBRANCH   1   4
BRANCH   1  21
ATOM     21  N   UNL     1      43.708   4.797   9.758  0.00  0.00    +0.000 N 
ATOM     22  H   UNL     1      42.808   4.691   9.297  0.00  0.00    +0.000 HD
BRANCH  21  29
ATOM     23  C   UNL     1      43.933   1.679   9.985  0.00  0.00    +0.000 C 
ATOM     24  C   UNL     1      44.767   2.602   9.163  0.00  0.00    +0.000 A 
ATOM     25  C   UNL     1      45.844   2.011   8.466  0.00  0.00    +0.000 A 
ATOM     26  C   UNL     1      46.696   2.757   7.658  0.00  0.00    +0.000 A 
ATOM     27  C   UNL     1      46.421   4.103   7.577  0.00  0.00    +0.000 A 
ATOM     28  N   UNL     1      45.413   4.714   8.262  0.00  0.00    +0.000 NA
ATOM     29  C   UNL     1      44.598   3.983   9.073  0.00  0.00    +0.000 A 
BRANCH  26  30
ATOM     30  C   UNL     1      47.811   2.063   6.966  0.00  0.00    +0.000 C 
ATOM     31  N   UNL     1      48.709   2.785   6.235  0.00  0.00    +0.000 N 
ATOM     32  O   UNL     1      47.937   0.844   7.041  0.00  0.00    +0.000 OA
ATOM     33  H   UNL     1      48.700   3.783   6.096  0.00  0.00    +0.000 HD
ATOM     34  H   UNL     1      49.445   2.254   5.782  0.00  0.00    +0.000 HD
ENDBRANCH  26  30
ENDBRANCH  21  29
ENDBRANCH   1  21
TORSDOF 6
ENDMDL
MODEL 4
REMARK VINA RESULT:    -8.699      3.929      4.917
REMARK INTER + INTRA:         -13.017
REMARK INTER:                 -12.535
REMARK INTRA:                  -0.482
REMARK UNBOUND:                -1.267
REMARK  Name = 
REMARK  7 active torsions:
REMARK  status: ('A' for Active; 'I' for Inactive)
REMARK    1  A    between atoms: C_1  and  C_2
REMARK    2  A    between atoms: C_4  and  C_5
REMARK    3  A    between atoms: C_10  and  N_11
REMARK    4  A    between atoms: N_11  and  C_12
REMARK    5  A    between atoms: C_12  and  C_13
REMARK    6  A    between atoms: C_17  and  C_18
REMARK    7  A    between atoms: C_23  and  C_24
REMARK                            x       y       z     vdW  Elec       q    Type
REMARK                         _______ _______ _______ _____ _____    ______ ____
ROOT
ATOM      1  C   UNL     1      44.478   5.275  11.530  0.00  0.00    +0.000 C 
ATOM      2  C   UNL     1      43.946   4.125  12.408  0.00  0.00    +0.000 C 
ATOM      3  C   UNL     1      43.354   5.477  12.531  0.00  0.00    +0.000 C 
ENDROOT
BRANCH   1   4
ATOM      4  C   UNL     1      45.844   5.848  11.946  0.00  0.00    +0.000 A 
ATOM      5  C   UNL     1      46.546   6.748  11.135  0.00  0.00    +0.000 A 
ATOM      6  C   UNL     1      47.727   7.345  11.580  0.00  0.00    +0.000 A 
ATOM      7  C   UNL     1      48.229   7.056  12.853  0.00  0.00    +0.000 A 
ATOM      8  C   UNL     1      47.573   6.158  13.706  0.00  0.00    +0.000 A 
ATOM      9  C   UNL     1      46.405   5.549  13.207  0.00  0.00    +0.000 A 
BRANCH   8  10
ATOM     10  C   UNL     1      48.039   5.896  15.091  0.00  0.00    +0.000 A 
ATOM     11  C   UNL     1      48.675   6.884  15.856  0.00  0.00    +0.000 A 
ATOM     12  C   UNL     1      49.170   6.610  17.136  0.00  0.00    +0.000 A 
ATOM     13  C   UNL     1      49.008   5.346  17.709  0.00  0.00    +0.000 A 
ATOM     14 CL   UNL     1      49.673   5.123  19.285  0.00  0.00    +0.000 Cl
ATOM     15  C   UNL     1      48.342   4.343  17.005  0.00  0.00    +0.000 A 
ATOM     16  C   UNL     1      47.894   4.630  15.690  0.00  0.00    +0.000 A 
BRANCH  15  17
ATOM     17  C   UNL     1      48.040   2.970  17.545  0.00  0.00    +0.000 C 
ATOM     18  F   UNL     1      48.529   2.678  18.777  0.00  0.00    +0.000 F 
ATOM     19  F   UNL     1      46.693   2.759  17.636  0.00  0.00    +0.000 F 
ATOM     20  F   UNL     1      48.501   1.983  16.722  0.00  0.00    +0.000 F 
ENDBRANCH  15  17
ENDBRANCH   8  10
ENDBRANCH   1   4
BRANCH   1  21
ATOM     21  N   UNL     1      44.381   4.992  10.096  0.00  0.00    +0.000 N 
ATOM     22  H   UNL     1      43.536   5.311   9.628  0.00  0.00    +0.000 HD
BRANCH  21  29
ATOM     23  C   UNL     1      44.166   1.871   9.887  0.00  0.00    +0.000 C 
ATOM     24  C   UNL     1      45.018   2.789   9.078  0.00  0.00    +0.000 A 
ATOM     25  C   UNL     1      45.899   2.173   8.161  0.00  0.00    +0.000 A 
ATOM     26  C   UNL     1      46.744   2.912   7.340  0.00  0.00    +0.000 A 
ATOM     27  C   UNL     1      46.664   4.280   7.473  0.00  0.00    +0.000 A 
ATOM     28  N   UNL     1      45.852   4.909   8.369  0.00  0.00    +0.000 NA
ATOM     29  C   UNL     1      45.046   4.178   9.190  0.00  0.00    +0.000 A 
BRANCH  26  30
ATOM     30  C   UNL     1      47.647   2.189   6.410  0.00  0.00    +0.000 C 
ATOM     31  N   UNL     1      48.206   2.850   5.356  0.00  0.00    +0.000 N 
ATOM     32  O   UNL     1      47.899   0.999   6.576  0.00  0.00    +0.000 OA
ATOM     33  H   UNL     1      48.064   3.820   5.118  0.00  0.00    +0.000 HD
ATOM     34  H   UNL     1      48.810   2.302   4.754  0.00  0.00    +0.000 HD
ENDBRANCH  26  30
ENDBRANCH  21  29
ENDBRANCH   1  21
TORSDOF 6
ENDMDL
MODEL 5
REMARK VINA RESULT:    -8.363      4.903      7.896
REMARK INTER + INTRA:         -12.563
REMARK INTER:                 -11.265
REMARK INTRA:                  -1.298
REMARK UNBOUND:                -1.267
REMARK  Name = 
REMARK  7 active torsions:
REMARK  status: ('A' for Active; 'I' for Inactive)
REMARK    1  A    between atoms: C_1  and  C_2
REMARK    2  A    between atoms: C_4  and  C_5
REMARK    3  A    between atoms: C_10  and  N_11
REMARK    4  A    between atoms: N_11  and  C_12
REMARK    5  A    between atoms: C_12  and  C_13
REMARK    6  A    between atoms: C_17  and  C_18
REMARK    7  A    between atoms: C_23  and  C_24
REMARK                            x       y       z     vdW  Elec       q    Type
REMARK                         _______ _______ _______ _____ _____    ______ ____
ROOT
ATOM      1  C   UNL     1      48.402   8.393  13.335  0.00  0.00    +0.000 C 
ATOM      2  C   UNL     1      49.449   9.119  12.467  0.00  0.00    +0.000 C 
ATOM      3  C   UNL     1      48.836   9.821  13.618  0.00  0.00    +0.000 C 
ENDROOT
BRANCH   1   4
ATOM      4  C   UNL     1      47.009   8.241  12.701  0.00  0.00    +0.000 A 
ATOM      5  C   UNL     1      46.141   9.330  12.553  0.00  0.00    +0.000 A 
ATOM      6  C   UNL     1      44.930   9.195  11.872  0.00  0.00    +0.000 A 
ATOM      7  C   UNL     1      44.563   7.965  11.318  0.00  0.00    +0.000 A 
ATOM      8  C   UNL     1      45.389   6.839  11.439  0.00  0.00    +0.000 A 
ATOM      9  C   UNL     1      46.585   7.005  12.164  0.00  0.00    +0.000 A 
BRANCH   8  10
ATOM     10  C   UNL     1      45.062   5.543  10.792  0.00  0.00    +0.000 A 
ATOM     11  C   UNL     1      44.084   4.683  11.312  0.00  0.00    +0.000 A 
ATOM     12  C   UNL     1      43.827   3.435  10.734  0.00  0.00    +0.000 A 
ATOM     13  C   UNL     1      44.516   3.022   9.591  0.00  0.00    +0.000 A 
ATOM     14 CL   UNL     1      44.125   1.458   8.979  0.00  0.00    +0.000 Cl
ATOM     15  C   UNL     1      45.467   3.862   9.010  0.00  0.00    +0.000 A 
ATOM     16  C   UNL     1      45.744   5.100   9.643  0.00  0.00    +0.000 A 
BRANCH  15  17
ATOM     17  C   UNL     1      46.215   3.561   7.738  0.00  0.00    +0.000 C 
ATOM     18  F   UNL     1      47.122   4.484   7.331  0.00  0.00    +0.000 F 
ATOM     19  F   UNL     1      46.916   2.392   7.842  0.00  0.00    +0.000 F 
ATOM     20  F   UNL     1      45.373   3.379   6.680  0.00  0.00    +0.000 F 
ENDBRANCH  15  17
ENDBRANCH   8  10
ENDBRANCH   1   4
BRANCH   1  21
ATOM     21  N   UNL     1      48.910   7.153  13.925  0.00  0.00    +0.000 N 
ATOM     22  H   UNL     1      49.554   6.611  13.353  0.00  0.00    +0.000 HD
BRANCH  21  29
ATOM     23  C   UNL     1      49.795   7.587  16.901  0.00  0.00    +0.000 C 
ATOM     24  C   UNL     1      48.975   6.475  16.340  0.00  0.00    +0.000 A 
ATOM     25  C   UNL     1      48.623   5.446  17.242  0.00  0.00    +0.000 A 
ATOM     26  C   UNL     1      47.854   4.355  16.851  0.00  0.00    +0.000 A 
ATOM     27  C   UNL     1      47.456   4.343  15.533  0.00  0.00    +0.000 A 
ATOM     28  N   UNL     1      47.804   5.299  14.626  0.00  0.00    +0.000 NA
ATOM     29  C   UNL     1      48.579   6.352  15.009  0.00  0.00    +0.000 A 
BRANCH  26  30
ATOM     30  C   UNL     1      47.535   3.311  17.856  0.00  0.00    +0.000 C 
ATOM     31  N   UNL     1      48.290   3.205  18.988  0.00  0.00    +0.000 N 
ATOM     32  O   UNL     1      46.597   2.537  17.684  0.00  0.00    +0.000 OA
ATOM     33  H   UNL     1      49.085   3.777  19.229  0.00  0.00    +0.000 HD
ATOM     34  H   UNL     1      48.026   2.470  19.634  0.00  0.00    +0.000 HD
ENDBRANCH  26  30
ENDBRANCH  21  29
ENDBRANCH   1  21
TORSDOF 6
ENDMDL
MODEL 6
REMARK VINA RESULT:    -8.318      1.378      2.122
REMARK INTER + INTRA:         -12.503
REMARK INTER:                 -11.524
REMARK INTRA:                  -0.979
REMARK UNBOUND:                -1.267
REMARK  Name = 
REMARK  7 active torsions:
REMARK  status: ('A' for Active; 'I' for Inactive)
REMARK    1  A    between atoms: C_1  and  C_2
REMARK    2  A    between atoms: C_4  and  C_5
REMARK    3  A    between atoms: C_10  and  N_11
REMARK    4  A    between atoms: N_11  and  C_12
REMARK    5  A    between atoms: C_12  and  C_13
REMARK    6  A    between atoms: C_17  and  C_18
REMARK    7  A    between atoms: C_23  and  C_24
REMARK                            x       y       z     vdW  Elec       q    Type
REMARK                         _______ _______ _______ _____ _____    ______ ____
ROOT
ATOM      1  C   UNL     1      44.868   5.677  11.538  0.00  0.00    +0.000 C 
ATOM      2  C   UNL     1      45.473   4.552  12.402  0.00  0.00    +0.000 C 
ATOM      3  C   UNL     1      44.200   5.189  12.812  0.00  0.00    +0.000 C 
ENDROOT
BRANCH   1   4
ATOM      4  C   UNL     1      45.571   7.041  11.643  0.00  0.00    +0.000 A 
ATOM      5  C   UNL     1      44.851   8.240  11.714  0.00  0.00    +0.000 A 
ATOM      6  C   UNL     1      45.502   9.457  11.924  0.00  0.00    +0.000 A 
ATOM      7  C   UNL     1      46.891   9.499  12.074  0.00  0.00    +0.000 A 
ATOM      8  C   UNL     1      47.665   8.332  12.007  0.00  0.00    +0.000 A 
ATOM      9  C   UNL     1      46.976   7.129  11.757  0.00  0.00    +0.000 A 
BRANCH   8  10
ATOM     10  C   UNL     1      49.131   8.338  12.243  0.00  0.00    +0.000 A 
ATOM     11  C   UNL     1      49.680   8.733  13.472  0.00  0.00    +0.000 A 
ATOM     12  C   UNL     1      51.064   8.797  13.666  0.00  0.00    +0.000 A 
ATOM     13  C   UNL     1      51.946   8.430  12.647  0.00  0.00    +0.000 A 
ATOM     14 CL   UNL     1      53.629   8.566  12.998  0.00  0.00    +0.000 Cl
ATOM     15  C   UNL     1      51.448   7.987  11.421  0.00  0.00    +0.000 A 
ATOM     16  C   UNL     1      50.042   7.978  11.232  0.00  0.00    +0.000 A 
BRANCH  15  17
ATOM     17  C   UNL     1      52.294   7.493  10.278  0.00  0.00    +0.000 C 
ATOM     18  F   UNL     1      53.216   6.540  10.568  0.00  0.00    +0.000 F 
ATOM     19  F   UNL     1      51.523   6.954   9.288  0.00  0.00    +0.000 F 
ATOM     20  F   UNL     1      52.987   8.506   9.679  0.00  0.00    +0.000 F 
ENDBRANCH  15  17
ENDBRANCH   8  10
ENDBRANCH   1   4
BRANCH   1  21
ATOM     21  N   UNL     1      44.610   5.262  10.158  0.00  0.00    +0.000 N 
ATOM     22  H   UNL     1      43.697   5.501   9.777  0.00  0.00    +0.000 HD
BRANCH  21  29
ATOM     23  C   UNL     1      44.169   2.164   9.965  0.00  0.00    +0.000 C 
ATOM     24  C   UNL     1      45.072   3.017   9.139  0.00  0.00    +0.000 A 
ATOM     25  C   UNL     1      45.892   2.336   8.213  0.00  0.00    +0.000 A 
ATOM     26  C   UNL     1      46.775   3.010   7.375  0.00  0.00    +0.000 A 
ATOM     27  C   UNL     1      46.795   4.380   7.504  0.00  0.00    +0.000 A 
ATOM     28  N   UNL     1      46.044   5.069   8.409  0.00  0.00    +0.000 NA
ATOM     29  C   UNL     1      45.201   4.400   9.245  0.00  0.00    +0.000 A 
BRANCH  26  30
ATOM     30  C   UNL     1      47.610   2.221   6.435  0.00  0.00    +0.000 C 
ATOM     31  N   UNL     1      48.015   2.777   5.257  0.00  0.00    +0.000 N 
ATOM     32  O   UNL     1      47.942   1.070   6.703  0.00  0.00    +0.000 OA
ATOM     33  H   UNL     1      47.795   3.705   4.930  0.00  0.00    +0.000 HD
ATOM     34  H   UNL     1      48.578   2.187   4.656  0.00  0.00    +0.000 HD
ENDBRANCH  26  30
ENDBRANCH  21  29
ENDBRANCH   1  21
TORSDOF 6
ENDMDL
MODEL 7
REMARK VINA RESULT:    -8.150      2.981      3.636
REMARK INTER + INTRA:         -12.276
REMARK INTER:                 -11.504
REMARK INTRA:                  -0.772
REMARK UNBOUND:                -1.267
REMARK  Name = 
REMARK  7 active torsions:
REMARK  status: ('A' for Active; 'I' for Inactive)
REMARK    1  A    between atoms: C_1  and  C_2
REMARK    2  A    between atoms: C_4  and  C_5
REMARK    3  A    between atoms: C_10  and  N_11
REMARK    4  A    between atoms: N_11  and  C_12
REMARK    5  A    between atoms: C_12  and  C_13
REMARK    6  A    between atoms: C_17  and  C_18
REMARK    7  A    between atoms: C_23  and  C_24
REMARK                            x       y       z     vdW  Elec       q    Type
REMARK                         _______ _______ _______ _____ _____    ______ ____
ROOT
ATOM      1  C   UNL     1      44.445   5.188  11.477  0.00  0.00    +0.000 C 
ATOM      2  C   UNL     1      44.913   3.983  12.318  0.00  0.00    +0.000 C 
ATOM      3  C   UNL     1      43.630   4.649  12.640  0.00  0.00    +0.000 C 
ENDROOT
BRANCH   1   4
ATOM      4  C   UNL     1      45.185   6.509  11.745  0.00  0.00    +0.000 A 
ATOM      5  C   UNL     1      44.621   7.750  11.426  0.00  0.00    +0.000 A 
ATOM      6  C   UNL     1      45.257   8.941  11.781  0.00  0.00    +0.000 A 
ATOM      7  C   UNL     1      46.473   8.914  12.471  0.00  0.00    +0.000 A 
ATOM      8  C   UNL     1      47.088   7.701  12.813  0.00  0.00    +0.000 A 
ATOM      9  C   UNL     1      46.434   6.522  12.405  0.00  0.00    +0.000 A 
BRANCH   8  10
ATOM     10  C   UNL     1      48.336   7.643  13.615  0.00  0.00    +0.000 A 
ATOM     11  C   UNL     1      49.519   8.264  13.187  0.00  0.00    +0.000 A 
ATOM     12  C   UNL     1      50.707   8.150  13.916  0.00  0.00    +0.000 A 
ATOM     13  C   UNL     1      50.742   7.443  15.121  0.00  0.00    +0.000 A 
ATOM     14 CL   UNL     1      52.267   7.359  15.921  0.00  0.00    +0.000 Cl
ATOM     15  C   UNL     1      49.580   6.846  15.611  0.00  0.00    +0.000 A 
ATOM     16  C   UNL     1      48.400   6.933  14.829  0.00  0.00    +0.000 A 
BRANCH  15  17
ATOM     17  C   UNL     1      49.476   6.126  16.929  0.00  0.00    +0.000 C 
ATOM     18  F   UNL     1      49.731   6.855  18.045  0.00  0.00    +0.000 F 
ATOM     19  F   UNL     1      48.222   5.614  17.115  0.00  0.00    +0.000 F 
ATOM     20  F   UNL     1      50.313   5.050  16.992  0.00  0.00    +0.000 F 
ENDBRANCH  15  17
ENDBRANCH   8  10
ENDBRANCH   1   4
BRANCH   1  21
ATOM     21  N   UNL     1      44.315   4.874  10.052  0.00  0.00    +0.000 N 
ATOM     22  H   UNL     1      43.417   5.083   9.623  0.00  0.00    +0.000 HD
BRANCH  21  29
ATOM     23  C   UNL     1      44.113   1.782   9.579  0.00  0.00    +0.000 C 
ATOM     24  C   UNL     1      45.010   2.759   8.896  0.00  0.00    +0.000 A 
ATOM     25  C   UNL     1      45.942   2.214   7.984  0.00  0.00    +0.000 A 
ATOM     26  C   UNL     1      46.831   3.014   7.274  0.00  0.00    +0.000 A 
ATOM     27  C   UNL     1      46.743   4.367   7.513  0.00  0.00    +0.000 A 
ATOM     28  N   UNL     1      45.882   4.925   8.410  0.00  0.00    +0.000 NA
ATOM     29  C   UNL     1      45.031   4.134   9.122  0.00  0.00    +0.000 A 
BRANCH  26  30
ATOM     30  C   UNL     1      47.785   2.365   6.342  0.00  0.00    +0.000 C 
ATOM     31  N   UNL     1      47.952   2.866   5.083  0.00  0.00    +0.000 N 
ATOM     32  O   UNL     1      48.431   1.379   6.687  0.00  0.00    +0.000 OA
ATOM     33  H   UNL     1      47.472   3.661   4.690  0.00  0.00    +0.000 HD
ATOM     34  H   UNL     1      48.613   2.377   4.492  0.00  0.00    +0.000 HD
ENDBRANCH  26  30
ENDBRANCH  21  29
ENDBRANCH   1  21
TORSDOF 6
ENDMDL
MODEL 8
REMARK VINA RESULT:    -7.856      5.165      8.337
REMARK INTER + INTRA:         -11.879
REMARK INTER:                 -10.326
REMARK INTRA:                  -1.554
REMARK UNBOUND:                -1.267
REMARK  Name = 
REMARK  7 active torsions:
REMARK  status: ('A' for Active; 'I' for Inactive)
REMARK    1  A    between atoms: C_1  and  C_2
REMARK    2  A    between atoms: C_4  and  C_5
REMARK    3  A    between atoms: C_10  and  N_11
REMARK    4  A    between atoms: N_11  and  C_12
REMARK    5  A    between atoms: C_12  and  C_13
REMARK    6  A    between atoms: C_17  and  C_18
REMARK    7  A    between atoms: C_23  and  C_24
REMARK                            x       y       z     vdW  Elec       q    Type
REMARK                         _______ _______ _______ _____ _____    ______ ____
ROOT
ATOM      1  C   UNL     1      49.065   8.239  12.666  0.00  0.00    +0.000 C 
ATOM      2  C   UNL     1      49.971   8.097  11.426  0.00  0.00    +0.000 C 
ATOM      3  C   UNL     1      49.674   9.443  11.969  0.00  0.00    +0.000 C 
ENDROOT
BRANCH   1   4
ATOM      4  C   UNL     1      47.563   8.021  12.416  0.00  0.00    +0.000 A 
ATOM      5  C   UNL     1      46.624   9.039  12.623  0.00  0.00    +0.000 A 
ATOM      6  C   UNL     1      45.283   8.859  12.282  0.00  0.00    +0.000 A 
ATOM      7  C   UNL     1      44.852   7.654  11.718  0.00  0.00    +0.000 A 
ATOM      8  C   UNL     1      45.745   6.598  11.492  0.00  0.00    +0.000 A 
ATOM      9  C   UNL     1      47.083   6.804  11.883  0.00  0.00    +0.000 A 
BRANCH   8  10
ATOM     10  C   UNL     1      45.332   5.339  10.821  0.00  0.00    +0.000 A 
ATOM     11  C   UNL     1      44.357   4.495  11.372  0.00  0.00    +0.000 A 
ATOM     12  C   UNL     1      44.020   3.279  10.767  0.00  0.00    +0.000 A 
ATOM     13  C   UNL     1      44.620   2.886   9.568  0.00  0.00    +0.000 A 
ATOM     14 CL   UNL     1      44.135   1.361   8.927  0.00  0.00    +0.000 Cl
ATOM     15  C   UNL     1      45.563   3.714   8.958  0.00  0.00    +0.000 A 
ATOM     16  C   UNL     1      45.925   4.917   9.616  0.00  0.00    +0.000 A 
BRANCH  15  17
ATOM     17  C   UNL     1      46.219   3.435   7.632  0.00  0.00    +0.000 C 
ATOM     18  F   UNL     1      45.394   3.243   6.571  0.00  0.00    +0.000 F 
ATOM     19  F   UNL     1      47.043   4.461   7.262  0.00  0.00    +0.000 F 
ATOM     20  F   UNL     1      47.022   2.333   7.679  0.00  0.00    +0.000 F 
ENDBRANCH  15  17
ENDBRANCH   8  10
ENDBRANCH   1   4
BRANCH   1  21
ATOM     21  N   UNL     1      49.571   7.508  13.830  0.00  0.00    +0.000 N 
ATOM     22  H   UNL     1      50.427   6.975  13.692  0.00  0.00    +0.000 HD
BRANCH  21  29
ATOM     23  C   UNL     1      49.301   9.352  16.351  0.00  0.00    +0.000 C 
ATOM     24  C   UNL     1      48.970   7.902  16.233  0.00  0.00    +0.000 A 
ATOM     25  C   UNL     1      48.563   7.259  17.424  0.00  0.00    +0.000 A 
ATOM     26  C   UNL     1      48.218   5.912  17.453  0.00  0.00    +0.000 A 
ATOM     27  C   UNL     1      48.294   5.248  16.249  0.00  0.00    +0.000 A 
ATOM     28  N   UNL     1      48.714   5.825  15.089  0.00  0.00    +0.000 NA
ATOM     29  C   UNL     1      49.076   7.139  15.072  0.00  0.00    +0.000 A 
BRANCH  26  30
ATOM     30  C   UNL     1      47.811   5.308  18.745  0.00  0.00    +0.000 C 
ATOM     31  N   UNL     1      46.590   5.604  19.278  0.00  0.00    +0.000 N 
ATOM     32  O   UNL     1      48.559   4.543  19.346  0.00  0.00    +0.000 OA
ATOM     33  H   UNL     1      45.900   6.223  18.880  0.00  0.00    +0.000 HD
ATOM     34  H   UNL     1      46.371   5.165  20.165  0.00  0.00    +0.000 HD
ENDBRANCH  26  30
ENDBRANCH  21  29
ENDBRANCH   1  21
TORSDOF 6
ENDMDL
MODEL 9
REMARK VINA RESULT:    -7.492      6.688      8.780
REMARK INTER + INTRA:         -11.387
REMARK INTER:                  -9.960
REMARK INTRA:                  -1.426
REMARK UNBOUND:                -1.267
REMARK  Name = 
REMARK  7 active torsions:
REMARK  status: ('A' for Active; 'I' for Inactive)
REMARK    1  A    between atoms: C_1  and  C_2
REMARK    2  A    between atoms: C_4  and  C_5
REMARK    3  A    between atoms: C_10  and  N_11
REMARK    4  A    between atoms: N_11  and  C_12
REMARK    5  A    between atoms: C_12  and  C_13
REMARK    6  A    between atoms: C_17  and  C_18
REMARK    7  A    between atoms: C_23  and  C_24
REMARK                            x       y       z     vdW  Elec       q    Type
REMARK                         _______ _______ _______ _____ _____    ______ ____
ROOT
ATOM      1  C   UNL     1      49.447   5.640  17.828  0.00  0.00    +0.000 C 
ATOM      2  C   UNL     1      48.922   6.477  19.011  0.00  0.00    +0.000 C 
ATOM      3  C   UNL     1      48.097   5.373  18.469  0.00  0.00    +0.000 C 
ENDROOT
BRANCH   1   4
ATOM      4  C   UNL     1      49.401   6.333  16.455  0.00  0.00    +0.000 A 
ATOM      5  C   UNL     1      50.496   7.046  15.951  0.00  0.00    +0.000 A 
ATOM      6  C   UNL     1      50.477   7.570  14.657  0.00  0.00    +0.000 A 
ATOM      7  C   UNL     1      49.360   7.386  13.836  0.00  0.00    +0.000 A 
ATOM      8  C   UNL     1      48.233   6.686  14.289  0.00  0.00    +0.000 A 
ATOM      9  C   UNL     1      48.276   6.205  15.612  0.00  0.00    +0.000 A 
BRANCH   8  10
ATOM     10  C   UNL     1      47.068   6.407  13.412  0.00  0.00    +0.000 A 
ATOM     11  C   UNL     1      46.368   7.436  12.764  0.00  0.00    +0.000 A 
ATOM     12  C   UNL     1      45.231   7.171  11.992  0.00  0.00    +0.000 A 
ATOM     13  C   UNL     1      44.780   5.861  11.811  0.00  0.00    +0.000 A 
ATOM     14 CL   UNL     1      43.361   5.661  10.852  0.00  0.00    +0.000 Cl
ATOM     15  C   UNL     1      45.469   4.800  12.399  0.00  0.00    +0.000 A 
ATOM     16  C   UNL     1      46.588   5.098  13.217  0.00  0.00    +0.000 A 
BRANCH  15  17
ATOM     17  C   UNL     1      45.126   3.345  12.213  0.00  0.00    +0.000 C 
ATOM     18  F   UNL     1      43.883   2.958  12.596  0.00  0.00    +0.000 F 
ATOM     19  F   UNL     1      45.226   2.977  10.901  0.00  0.00    +0.000 F 
ATOM     20  F   UNL     1      45.990   2.526  12.881  0.00  0.00    +0.000 F 
ENDBRANCH  15  17
ENDBRANCH   8  10
ENDBRANCH   1   4
BRANCH   1  21
ATOM     21  N   UNL     1      50.732   4.996  18.110  0.00  0.00    +0.000 N 
ATOM     22  H   UNL     1      51.494   5.609  18.390  0.00  0.00    +0.000 HD
BRANCH  21  29
ATOM     23  C   UNL     1      49.289   2.489  16.901  0.00  0.00    +0.000 C 
ATOM     24  C   UNL     1      50.696   2.594  17.386  0.00  0.00    +0.000 A 
ATOM     25  C   UNL     1      51.446   1.397  17.378  0.00  0.00    +0.000 A 
ATOM     26  C   UNL     1      52.772   1.357  17.797  0.00  0.00    +0.000 A 
ATOM     27  C   UNL     1      53.306   2.555  18.214  0.00  0.00    +0.000 A 
ATOM     28  N   UNL     1      52.604   3.721  18.268  0.00  0.00    +0.000 NA
ATOM     29  C   UNL     1      51.297   3.749  17.882  0.00  0.00    +0.000 A 
BRANCH  26  30
ATOM     30  C   UNL     1      53.490   0.058  17.767  0.00  0.00    +0.000 C 
ATOM     31  N   UNL     1      53.921  -0.452  16.577  0.00  0.00    +0.000 N 
ATOM     32  O   UNL     1      53.701  -0.568  18.802  0.00  0.00    +0.000 OA
ATOM     33  H   UNL     1      53.797  -0.033  15.669  0.00  0.00    +0.000 HD
ATOM     34  H   UNL     1      54.400  -1.344  16.622  0.00  0.00    +0.000 HD
ENDBRANCH  26  30
ENDBRANCH  21  29
ENDBRANCH   1  21
TORSDOF 6
ENDMDL
