MODEL 1
REMARK VINA RESULT:    -8.009      0.000      0.000
REMARK INTER + INTRA:         -10.392
REMARK INTER:                  -9.882
REMARK INTRA:                  -0.510
REMARK UNBOUND:                -0.510
REMARK  Name = 
REMARK  4 active torsions:
REMARK  status: ('A' for Active; 'I' for Inactive)
REMARK    1  A    between atoms: C_2  and  C_4
REMARK    2  A    between atoms: C_7  and  N_8
REMARK    3  A    between atoms: N_8  and  C_9
REMARK    4  A    between atoms: C_9  and  C_10
REMARK                            x       y       z     vdW  Elec       q    Type
REMARK                         _______ _______ _______ _____ _____    ______ ____
ROOT
ATOM      1  C   UNL     1      46.397   2.534   7.751  0.00  0.00    +0.000 A 
ATOM      2  C   UNL     1      45.589   1.863   8.659  0.00  0.00    +0.000 A 
ATOM      3  C   UNL     1      44.720   2.611   9.458  0.00  0.00    +0.000 A 
ATOM      4  C   UNL     1      44.654   3.999   9.319  0.00  0.00    +0.000 A 
ATOM      5  C   UNL     1      45.540   4.569   8.397  0.00  0.00    +0.000 A 
ATOM      6  N   UNL     1      46.401   3.886   7.601  0.00  0.00    +0.000 NA
ENDROOT
BRANCH   1   8
ATOM      7  N   UNL     1      48.441   2.452   6.447  0.00  0.00    +0.000 N 
ATOM      8  C   UNL     1      47.340   1.763   6.877  0.00  0.00    +0.000 C 
ATOM      9  O   UNL     1      47.149   0.591   6.564  0.00  0.00    +0.000 OA
ATOM     10  H   UNL     1      49.121   1.993   5.860  0.00  0.00    +0.000 HD
ATOM     11  H   UNL     1      48.571   3.415   6.736  0.00  0.00    +0.000 HD
ENDBRANCH   1   8
BRANCH   4  12
ATOM     12  N   UNL     1      43.836   4.824  10.123  0.00  0.00    +0.000 N 
ATOM     13  H   UNL     1      42.870   4.826   9.808  0.00  0.00    +0.000 HD
BRANCH  12  14
ATOM     14  C   UNL     1      44.004   4.884  11.603  0.00  0.00    +0.000 C 
ATOM     15  C   UNL     1      43.256   3.864  12.446  0.00  0.00    +0.000 C 
ATOM     16  C   UNL     1      42.789   5.281  12.442  0.00  0.00    +0.000 C 
BRANCH  14  17
ATOM     17  C   UNL     1      45.321   5.503  12.110  0.00  0.00    +0.000 A 
ATOM     18  C   UNL     1      46.023   4.901  13.160  0.00  0.00    +0.000 A 
ATOM     19  C   UNL     1      47.285   5.370  13.518  0.00  0.00    +0.000 A 
ATOM     20  C   UNL     1      47.829   6.440  12.827  0.00  0.00    +0.000 A 
ATOM     21  C   UNL     1      47.074   7.010  11.818  0.00  0.00    +0.000 A 
ATOM     22  N   UNL     1      45.847   6.575  11.454  0.00  0.00    +0.000 NA
ENDBRANCH  14  17
ENDBRANCH  12  14
ENDBRANCH   4  12
TORSDOF 4
ENDMDL
MODEL 2
REMARK VINA RESULT:    -6.325      3.392      6.253
REMARK INTER + INTRA:          -8.314
REMARK INTER:                  -8.062
REMARK INTRA:                  -0.252
REMARK UNBOUND:                -0.510
REMARK  Name = 
REMARK  4 active torsions:
REMARK  status: ('A' for Active; 'I' for Inactive)
REMARK    1  A    between atoms: C_2  and  C_4
REMARK    2  A    between atoms: C_7  and  N_8
REMARK    3  A    between atoms: N_8  and  C_9
REMARK    4  A    between atoms: C_9  and  C_10
REMARK                            x       y       z     vdW  Elec       q    Type
REMARK                         _______ _______ _______ _____ _____    ______ ____
ROOT
ATOM      1  C   UNL     1      48.266   6.604  14.040  0.00  0.00    +0.000 A 
ATOM      2  C   UNL     1      47.713   6.921  12.806  0.00  0.00    +0.000 A 
ATOM      3  C   UNL     1      46.713   6.093  12.290  0.00  0.00    +0.000 A 
ATOM      4  C   UNL     1      46.267   4.988  13.019  0.00  0.00    +0.000 A 
ATOM      5  C   UNL     1      46.922   4.746  14.233  0.00  0.00    +0.000 A 
ATOM      6  N   UNL     1      47.896   5.520  14.774  0.00  0.00    +0.000 NA
ENDROOT
BRANCH   1   8
ATOM      7  N   UNL     1      50.523   7.483  13.937  0.00  0.00    +0.000 N 
ATOM      8  C   UNL     1      49.339   7.472  14.623  0.00  0.00    +0.000 C 
ATOM      9  O   UNL     1      49.178   8.133  15.645  0.00  0.00    +0.000 OA
ATOM     10  H   UNL     1      51.288   8.050  14.270  0.00  0.00    +0.000 HD
ATOM     11  H   UNL     1      50.615   6.933  13.091  0.00  0.00    +0.000 HD
ENDBRANCH   1   8
BRANCH   4  12
ATOM     12  N   UNL     1      45.296   4.080  12.541  0.00  0.00    +0.000 N 
ATOM     13  H   UNL     1      44.799   3.620  13.299  0.00  0.00    +0.000 HD
BRANCH  12  14
ATOM     14  C   UNL     1      44.455   4.393  11.350  0.00  0.00    +0.000 C 
ATOM     15  C   UNL     1      43.625   5.666  11.379  0.00  0.00    +0.000 C 
ATOM     16  C   UNL     1      42.936   4.349  11.519  0.00  0.00    +0.000 C 
BRANCH  14  17
ATOM     17  C   UNL     1      44.934   3.801  10.010  0.00  0.00    +0.000 A 
ATOM     18  C   UNL     1      45.448   4.640   9.014  0.00  0.00    +0.000 A 
ATOM     19  C   UNL     1      46.019   4.094   7.866  0.00  0.00    +0.000 A 
ATOM     20  C   UNL     1      46.066   2.717   7.724  0.00  0.00    +0.000 A 
ATOM     21  C   UNL     1      45.516   1.944   8.730  0.00  0.00    +0.000 A 
ATOM     22  N   UNL     1      44.954   2.448   9.851  0.00  0.00    +0.000 NA
ENDBRANCH  14  17
ENDBRANCH  12  14
ENDBRANCH   4  12
TORSDOF 4
ENDMDL
MODEL 3
REMARK VINA RESULT:    -5.877      3.444      6.313
REMARK INTER + INTRA:          -7.761
REMARK INTER:                  -8.200
REMARK INTRA:                   0.439
REMARK UNBOUND:                -0.510
REMARK  Name = 
REMARK  4 active torsions:
REMARK  status: ('A' for Active; 'I' for Inactive)
REMARK    1  A    between atoms: C_2  and  C_4
REMARK    2  A    between atoms: C_7  and  N_8
REMARK    3  A    between atoms: N_8  and  C_9
REMARK    4  A    between atoms: C_9  and  C_10
REMARK                            x       y       z     vdW  Elec       q    Type
REMARK                         _______ _______ _______ _____ _____    ______ ____
ROOT
ATOM      1  C   UNL     1      47.556   3.847  15.386  0.00  0.00    +0.000 A 
ATOM      2  C   UNL     1      47.580   5.236  15.393  0.00  0.00    +0.000 A 
ATOM      3  C   UNL     1      47.148   5.917  14.252  0.00  0.00    +0.000 A 
ATOM      4  C   UNL     1      46.677   5.208  13.144  0.00  0.00    +0.000 A 
ATOM      5  C   UNL     1      46.733   3.811  13.238  0.00  0.00    +0.000 A 
ATOM      6  N   UNL     1      47.144   3.107  14.322  0.00  0.00    +0.000 NA
ENDROOT
BRANCH   1   8
ATOM      7  N   UNL     1      47.051   2.857  17.541  0.00  0.00    +0.000 N 
ATOM      8  C   UNL     1      48.012   3.086  16.593  0.00  0.00    +0.000 C 
ATOM      9  O   UNL     1      49.165   2.688  16.734  0.00  0.00    +0.000 OA
ATOM     10  H   UNL     1      47.287   2.345  18.378  0.00  0.00    +0.000 HD
ATOM     11  H   UNL     1      46.107   3.190  17.385  0.00  0.00    +0.000 HD
ENDBRANCH   1   8
BRANCH   4  12
ATOM     12  N   UNL     1      46.269   5.825  11.941  0.00  0.00    +0.000 N 
ATOM     13  H   UNL     1      47.048   5.971  11.304  0.00  0.00    +0.000 HD
BRANCH  12  14
ATOM     14  C   UNL     1      44.985   5.463  11.276  0.00  0.00    +0.000 C 
ATOM     15  C   UNL     1      43.846   6.468  11.335  0.00  0.00    +0.000 C 
ATOM     16  C   UNL     1      43.763   5.231  12.166  0.00  0.00    +0.000 C 
BRANCH  14  17
ATOM     17  C   UNL     1      45.085   4.461  10.109  0.00  0.00    +0.000 A 
ATOM     18  C   UNL     1      45.715   4.832   8.916  0.00  0.00    +0.000 A 
ATOM     19  C   UNL     1      45.941   3.885   7.919  0.00  0.00    +0.000 A 
ATOM     20  C   UNL     1      45.529   2.578   8.125  0.00  0.00    +0.000 A 
ATOM     21  C   UNL     1      44.887   2.281   9.313  0.00  0.00    +0.000 A 
ATOM     22  N   UNL     1      44.654   3.183  10.293  0.00  0.00    +0.000 NA
ENDBRANCH  14  17
ENDBRANCH  12  14
ENDBRANCH   4  12
TORSDOF 4
ENDMDL
MODEL 4
REMARK VINA RESULT:    -5.738      3.138      6.384
REMARK INTER + INTRA:          -7.590
REMARK INTER:                  -7.938
REMARK INTRA:                   0.348
REMARK UNBOUND:                -0.510
REMARK  Name = 
REMARK  4 active torsions:
REMARK  status: ('A' for Active; 'I' for Inactive)
REMARK    1  A    between atoms: C_2  and  C_4
REMARK    2  A    between atoms: C_7  and  N_8
REMARK    3  A    between atoms: N_8  and  C_9
REMARK    4  A    between atoms: C_9  and  C_10
REMARK                            x       y       z     vdW  Elec       q    Type
REMARK                         _______ _______ _______ _____ _____    ______ ____
ROOT
ATOM      1  C   UNL     1      47.109   4.712  14.287  0.00  0.00    +0.000 A 
ATOM      2  C   UNL     1      46.411   5.583  13.461  0.00  0.00    +0.000 A 
ATOM      3  C   UNL     1      45.705   5.054  12.377  0.00  0.00    +0.000 A 
ATOM      4  C   UNL     1      45.687   3.675  12.154  0.00  0.00    +0.000 A 
ATOM      5  C   UNL     1      46.455   2.899  13.030  0.00  0.00    +0.000 A 
ATOM      6  N   UNL     1      47.156   3.366  14.093  0.00  0.00    +0.000 NA
ENDROOT
BRANCH   1   8
ATOM      7  N   UNL     1      48.022   6.606  15.495  0.00  0.00    +0.000 N 
ATOM      8  C   UNL     1      47.875   5.246  15.459  0.00  0.00    +0.000 C 
ATOM      9  O   UNL     1      48.343   4.522  16.334  0.00  0.00    +0.000 OA
ATOM     10  H   UNL     1      48.522   7.034  16.260  0.00  0.00    +0.000 HD
ATOM     11  H   UNL     1      47.612   7.172  14.761  0.00  0.00    +0.000 HD
ENDBRANCH   1   8
BRANCH   4  12
ATOM     12  N   UNL     1      45.036   3.074  11.054  0.00  0.00    +0.000 N 
ATOM     13  H   UNL     1      44.123   2.705  11.305  0.00  0.00    +0.000 HD
BRANCH  12  14
ATOM     14  C   UNL     1      45.111   3.663   9.686  0.00  0.00    +0.000 C 
ATOM     15  C   UNL     1      45.103   5.178   9.563  0.00  0.00    +0.000 C 
ATOM     16  C   UNL     1      43.884   4.414   9.167  0.00  0.00    +0.000 C 
BRANCH  14  17
ATOM     17  C   UNL     1      45.790   2.793   8.610  0.00  0.00    +0.000 A 
ATOM     18  C   UNL     1      46.500   3.395   7.565  0.00  0.00    +0.000 A 
ATOM     19  C   UNL     1      47.240   2.613   6.680  0.00  0.00    +0.000 A 
ATOM     20  C   UNL     1      47.257   1.238   6.847  0.00  0.00    +0.000 A 
ATOM     21  C   UNL     1      46.512   0.702   7.881  0.00  0.00    +0.000 A 
ATOM     22  N   UNL     1      45.785   1.439   8.751  0.00  0.00    +0.000 NA
ENDBRANCH  14  17
ENDBRANCH  12  14
ENDBRANCH   4  12
TORSDOF 4
ENDMDL
MODEL 5
REMARK VINA RESULT:    -5.682      3.062      5.142
REMARK INTER + INTRA:          -7.520
REMARK INTER:                  -7.221
REMARK INTRA:                  -0.299
REMARK UNBOUND:                -0.510
REMARK  Name = 
REMARK  4 active torsions:
REMARK  status: ('A' for Active; 'I' for Inactive)
REMARK    1  A    between atoms: C_2  and  C_4
REMARK    2  A    between atoms: C_7  and  N_8
REMARK    3  A    between atoms: N_8  and  C_9
REMARK    4  A    between atoms: C_9  and  C_10
REMARK                            x       y       z     vdW  Elec       q    Type
REMARK                         _______ _______ _______ _____ _____    ______ ____
ROOT
ATOM      1  C   UNL     1      44.630   3.899  11.571  0.00  0.00    +0.000 A 
ATOM      2  C   UNL     1      44.880   5.017  10.788  0.00  0.00    +0.000 A 
ATOM      3  C   UNL     1      45.497   6.122  11.380  0.00  0.00    +0.000 A 
ATOM      4  C   UNL     1      45.875   6.082  12.724  0.00  0.00    +0.000 A 
ATOM      5  C   UNL     1      45.539   4.916  13.424  0.00  0.00    +0.000 A 
ATOM      6  N   UNL     1      44.941   3.820  12.893  0.00  0.00    +0.000 NA
ENDROOT
BRANCH   1   8
ATOM      7  N   UNL     1      44.566   2.204   9.838  0.00  0.00    +0.000 N 
ATOM      8  C   UNL     1      43.970   2.696  10.967  0.00  0.00    +0.000 C 
ATOM      9  O   UNL     1      42.964   2.178  11.445  0.00  0.00    +0.000 OA
ATOM     10  H   UNL     1      44.178   1.392   9.382  0.00  0.00    +0.000 HD
ATOM     11  H   UNL     1      45.402   2.651   9.479  0.00  0.00    +0.000 HD
ENDBRANCH   1   8
BRANCH   4  12
ATOM     12  N   UNL     1      46.459   7.175  13.402  0.00  0.00    +0.000 N 
ATOM     13  H   UNL     1      46.269   7.151  14.400  0.00  0.00    +0.000 HD
BRANCH  12  14
ATOM     14  C   UNL     1      47.813   7.683  13.041  0.00  0.00    +0.000 C 
ATOM     15  C   UNL     1      48.907   6.662  12.773  0.00  0.00    +0.000 C 
ATOM     16  C   UNL     1      48.949   7.451  14.039  0.00  0.00    +0.000 C 
BRANCH  14  17
ATOM     17  C   UNL     1      47.861   9.074  12.379  0.00  0.00    +0.000 A 
ATOM     18  C   UNL     1      48.989   9.468  11.651  0.00  0.00    +0.000 A 
ATOM     19  C   UNL     1      48.975  10.659  10.929  0.00  0.00    +0.000 A 
ATOM     20  C   UNL     1      47.835  11.446  10.946  0.00  0.00    +0.000 A 
ATOM     21  C   UNL     1      46.763  11.016  11.708  0.00  0.00    +0.000 A 
ATOM     22  N   UNL     1      46.754   9.867  12.420  0.00  0.00    +0.000 NA
ENDBRANCH  14  17
ENDBRANCH  12  14
ENDBRANCH   4  12
TORSDOF 4
ENDMDL
MODEL 6
REMARK VINA RESULT:    -5.427      3.121      5.271
REMARK INTER + INTRA:          -7.206
REMARK INTER:                  -7.323
REMARK INTRA:                   0.117
REMARK UNBOUND:                -0.510
REMARK  Name = 
REMARK  4 active torsions:
REMARK  status: ('A' for Active; 'I' for Inactive)
REMARK    1  A    between atoms: C_2  and  C_4
REMARK    2  A    between atoms: C_7  and  N_8
REMARK    3  A    between atoms: N_8  and  C_9
REMARK    4  A    between atoms: C_9  and  C_10
REMARK                            x       y       z     vdW  Elec       q    Type
REMARK                         _______ _______ _______ _____ _____    ______ ____
ROOT
ATOM      1  C   UNL     1      44.747   3.965  11.635  0.00  0.00    +0.000 A 
ATOM      2  C   UNL     1      45.100   5.077  10.882  0.00  0.00    +0.000 A 
ATOM      3  C   UNL     1      45.764   6.130  11.518  0.00  0.00    +0.000 A 
ATOM      4  C   UNL     1      46.085   6.043  12.874  0.00  0.00    +0.000 A 
ATOM      5  C   UNL     1      45.648   4.890  13.539  0.00  0.00    +0.000 A 
ATOM      6  N   UNL     1      45.001   3.845  12.966  0.00  0.00    +0.000 NA
ENDROOT
BRANCH   1   8
ATOM      7  N   UNL     1      44.616   2.337   9.842  0.00  0.00    +0.000 N 
ATOM      8  C   UNL     1      44.035   2.818  10.984  0.00  0.00    +0.000 C 
ATOM      9  O   UNL     1      43.001   2.333  11.436  0.00  0.00    +0.000 OA
ATOM     10  H   UNL     1      44.193   1.561   9.355  0.00  0.00    +0.000 HD
ATOM     11  H   UNL     1      45.476   2.754   9.506  0.00  0.00    +0.000 HD
ENDBRANCH   1   8
BRANCH   4  12
ATOM     12  N   UNL     1      46.712   7.085  13.594  0.00  0.00    +0.000 N 
ATOM     13  H   UNL     1      46.182   7.350  14.420  0.00  0.00    +0.000 HD
BRANCH  12  14
ATOM     14  C   UNL     1      48.192   7.134  13.765  0.00  0.00    +0.000 C 
ATOM     15  C   UNL     1      48.967   8.169  12.964  0.00  0.00    +0.000 C 
ATOM     16  C   UNL     1      49.059   6.732  12.571  0.00  0.00    +0.000 C 
BRANCH  14  17
ATOM     17  C   UNL     1      48.735   6.618  15.112  0.00  0.00    +0.000 A 
ATOM     18  C   UNL     1      49.599   7.415  15.873  0.00  0.00    +0.000 A 
ATOM     19  C   UNL     1      49.970   7.017  17.155  0.00  0.00    +0.000 A 
ATOM     20  C   UNL     1      49.478   5.824  17.661  0.00  0.00    +0.000 A 
ATOM     21  C   UNL     1      48.652   5.068  16.849  0.00  0.00    +0.000 A 
ATOM     22  N   UNL     1      48.281   5.431  15.600  0.00  0.00    +0.000 NA
ENDBRANCH  14  17
ENDBRANCH  12  14
ENDBRANCH   4  12
TORSDOF 4
ENDMDL
MODEL 7
REMARK VINA RESULT:    -5.315      4.489      6.787
REMARK INTER + INTRA:          -7.068
REMARK INTER:                  -6.564
REMARK INTRA:                  -0.503
REMARK UNBOUND:                -0.510
REMARK  Name = 
REMARK  4 active torsions:
REMARK  status: ('A' for Active; 'I' for Inactive)
REMARK    1  A    between atoms: C_2  and  C_4
REMARK    2  A    between atoms: C_7  and  N_8
REMARK    3  A    between atoms: N_8  and  C_9
REMARK    4  A    between atoms: C_9  and  C_10
REMARK                            x       y       z     vdW  Elec       q    Type
REMARK                         _______ _______ _______ _____ _____    ______ ____
ROOT
ATOM      1  C   UNL     1      44.970   5.145  13.275  0.00  0.00    +0.000 A 
ATOM      2  C   UNL     1      45.213   6.454  12.881  0.00  0.00    +0.000 A 
ATOM      3  C   UNL     1      46.473   7.004  13.132  0.00  0.00    +0.000 A 
ATOM      4  C   UNL     1      47.468   6.235  13.741  0.00  0.00    +0.000 A 
ATOM      5  C   UNL     1      47.097   4.941  14.127  0.00  0.00    +0.000 A 
ATOM      6  N   UNL     1      45.889   4.365  13.906  0.00  0.00    +0.000 NA
ENDROOT
BRANCH   1   8
ATOM      7  N   UNL     1      42.591   5.404  12.883  0.00  0.00    +0.000 N 
ATOM      8  C   UNL     1      43.630   4.524  13.020  0.00  0.00    +0.000 C 
ATOM      9  O   UNL     1      43.463   3.310  12.937  0.00  0.00    +0.000 OA
ATOM     10  H   UNL     1      41.661   5.055  12.703  0.00  0.00    +0.000 HD
ATOM     11  H   UNL     1      42.768   6.400  12.945  0.00  0.00    +0.000 HD
ENDBRANCH   1   8
BRANCH   4  12
ATOM     12  N   UNL     1      48.747   6.737  14.069  0.00  0.00    +0.000 N 
ATOM     13  H   UNL     1      49.204   7.168  13.270  0.00  0.00    +0.000 HD
BRANCH  12  14
ATOM     14  C   UNL     1      49.009   7.413  15.372  0.00  0.00    +0.000 C 
ATOM     15  C   UNL     1      48.550   8.854  15.530  0.00  0.00    +0.000 C 
ATOM     16  C   UNL     1      50.008   8.571  15.383  0.00  0.00    +0.000 C 
BRANCH  14  17
ATOM     17  C   UNL     1      49.134   6.491  16.600  0.00  0.00    +0.000 A 
ATOM     18  C   UNL     1      48.389   6.754  17.755  0.00  0.00    +0.000 A 
ATOM     19  C   UNL     1      48.384   5.842  18.808  0.00  0.00    +0.000 A 
ATOM     20  C   UNL     1      49.129   4.679  18.697  0.00  0.00    +0.000 A 
ATOM     21  C   UNL     1      49.866   4.491  17.542  0.00  0.00    +0.000 A 
ATOM     22  N   UNL     1      49.890   5.362  16.509  0.00  0.00    +0.000 NA
ENDBRANCH  14  17
ENDBRANCH  12  14
ENDBRANCH   4  12
TORSDOF 4
ENDMDL
MODEL 8
REMARK VINA RESULT:    -5.256      4.116      6.893
REMARK INTER + INTRA:          -6.995
REMARK INTER:                  -7.159
REMARK INTRA:                   0.165
REMARK UNBOUND:                -0.510
REMARK  Name = 
REMARK  4 active torsions:
REMARK  status: ('A' for Active; 'I' for Inactive)
REMARK    1  A    between atoms: C_2  and  C_4
REMARK    2  A    between atoms: C_7  and  N_8
REMARK    3  A    between atoms: N_8  and  C_9
REMARK    4  A    between atoms: C_9  and  C_10
REMARK                            x       y       z     vdW  Elec       q    Type
REMARK                         _______ _______ _______ _____ _____    ______ ____
ROOT
ATOM      1  C   UNL     1      47.551   4.213  16.332  0.00  0.00    +0.000 A 
ATOM      2  C   UNL     1      48.291   5.388  16.308  0.00  0.00    +0.000 A 
ATOM      3  C   UNL     1      48.281   6.160  15.143  0.00  0.00    +0.000 A 
ATOM      4  C   UNL     1      47.519   5.763  14.042  0.00  0.00    +0.000 A 
ATOM      5  C   UNL     1      46.843   4.543  14.167  0.00  0.00    +0.000 A 
ATOM      6  N   UNL     1      46.823   3.761  15.275  0.00  0.00    +0.000 NA
ENDROOT
BRANCH   1   8
ATOM      7  N   UNL     1      48.544   3.610  18.461  0.00  0.00    +0.000 N 
ATOM      8  C   UNL     1      47.539   3.363  17.566  0.00  0.00    +0.000 C 
ATOM      9  O   UNL     1      46.689   2.500  17.771  0.00  0.00    +0.000 OA
ATOM     10  H   UNL     1      48.593   3.079  19.317  0.00  0.00    +0.000 HD
ATOM     11  H   UNL     1      49.220   4.339  18.263  0.00  0.00    +0.000 HD
ENDBRANCH   1   8
BRANCH   4  12
ATOM     12  N   UNL     1      47.498   6.465  12.816  0.00  0.00    +0.000 N 
ATOM     13  H   UNL     1      47.994   5.967  12.082  0.00  0.00    +0.000 HD
BRANCH  12  14
ATOM     14  C   UNL     1      46.281   7.195  12.356  0.00  0.00    +0.000 C 
ATOM     15  C   UNL     1      46.466   8.582  11.761  0.00  0.00    +0.000 C 
ATOM     16  C   UNL     1      45.874   8.452  13.125  0.00  0.00    +0.000 C 
BRANCH  14  17
ATOM     17  C   UNL     1      45.082   6.319  11.944  0.00  0.00    +0.000 A 
ATOM     18  C   UNL     1      45.082   5.665  10.707  0.00  0.00    +0.000 A 
ATOM     19  C   UNL     1      44.073   4.756  10.396  0.00  0.00    +0.000 A 
ATOM     20  C   UNL     1      43.072   4.514  11.324  0.00  0.00    +0.000 A 
ATOM     21  C   UNL     1      43.113   5.214  12.516  0.00  0.00    +0.000 A 
ATOM     22  N   UNL     1      44.079   6.103  12.839  0.00  0.00    +0.000 NA
ENDBRANCH  14  17
ENDBRANCH  12  14
ENDBRANCH   4  12
TORSDOF 4
ENDMDL
MODEL 9
REMARK VINA RESULT:    -5.255      4.355      6.389
REMARK INTER + INTRA:          -6.993
REMARK INTER:                  -6.468
REMARK INTRA:                  -0.525
REMARK UNBOUND:                -0.510
REMARK  Name = 
REMARK  4 active torsions:
REMARK  status: ('A' for Active; 'I' for Inactive)
REMARK    1  A    between atoms: C_2  and  C_4
REMARK    2  A    between atoms: C_7  and  N_8
REMARK    3  A    between atoms: N_8  and  C_9
REMARK    4  A    between atoms: C_9  and  C_10
REMARK                            x       y       z     vdW  Elec       q    Type
REMARK                         _______ _______ _______ _____ _____    ______ ____
ROOT
ATOM      1  C   UNL     1      44.566   5.776  12.569  0.00  0.00    +0.000 A 
ATOM      2  C   UNL     1      45.072   6.701  11.665  0.00  0.00    +0.000 A 
ATOM      3  C   UNL     1      46.447   6.947  11.660  0.00  0.00    +0.000 A 
ATOM      4  C   UNL     1      47.290   6.252  12.530  0.00  0.00    +0.000 A 
ATOM      5  C   UNL     1      46.665   5.370  13.421  0.00  0.00    +0.000 A 
ATOM      6  N   UNL     1      45.336   5.100  13.464  0.00  0.00    +0.000 NA
ENDROOT
BRANCH   1   8
ATOM      7  N   UNL     1      42.335   6.218  11.729  0.00  0.00    +0.000 N 
ATOM      8  C   UNL     1      43.096   5.488  12.600  0.00  0.00    +0.000 C 
ATOM      9  O   UNL     1      42.597   4.654  13.351  0.00  0.00    +0.000 OA
ATOM     10  H   UNL     1      41.338   6.072  11.692  0.00  0.00    +0.000 HD
ATOM     11  H   UNL     1      42.784   6.889  11.115  0.00  0.00    +0.000 HD
ENDBRANCH   1   8
BRANCH   4  12
ATOM     12  N   UNL     1      48.681   6.481  12.615  0.00  0.00    +0.000 N 
ATOM     13  H   UNL     1      49.161   6.241  11.752  0.00  0.00    +0.000 HD
BRANCH  12  14
ATOM     14  C   UNL     1      49.234   7.674  13.319  0.00  0.00    +0.000 C 
ATOM     15  C   UNL     1      49.225   9.003  12.580  0.00  0.00    +0.000 C 
ATOM     16  C   UNL     1      50.522   8.290  12.771  0.00  0.00    +0.000 C 
BRANCH  14  17
ATOM     17  C   UNL     1      49.187   7.634  14.859  0.00  0.00    +0.000 A 
ATOM     18  C   UNL     1      48.637   8.704  15.574  0.00  0.00    +0.000 A 
ATOM     19  C   UNL     1      48.456   8.605  16.952  0.00  0.00    +0.000 A 
ATOM     20  C   UNL     1      48.831   7.440  17.601  0.00  0.00    +0.000 A 
ATOM     21  C   UNL     1      49.395   6.430  16.842  0.00  0.00    +0.000 A 
ATOM     22  N   UNL     1      49.584   6.503  15.506  0.00  0.00    +0.000 NA
ENDBRANCH  14  17
ENDBRANCH  12  14
ENDBRANCH   4  12
TORSDOF 4
ENDMDL
