MODEL 1
REMARK VINA RESULT:    -7.887      0.000      0.000
REMARK INTER + INTRA:         -12.160
REMARK INTER:                 -11.346
REMARK INTRA:                  -0.814
REMARK UNBOUND:                -0.814
REMARK  Name = 
REMARK  8 active torsions:
REMARK  status: ('A' for Active; 'I' for Inactive)
REMARK    1  A    between atoms: N_1  and  C_2
REMARK    2  A    between atoms: C_2  and  C_3
REMARK    3  A    between atoms: C_6  and  C_7
REMARK    4  A    between atoms: N_9  and  C_10
REMARK    5  A    between atoms: C_10  and  C_11
REMARK    6  A    between atoms: C_14  and  C_15
REMARK    7  A    between atoms: C_15  and  N_16
REMARK    8  A    between atoms: C_17  and  C_19
REMARK                            x       y       z     vdW  Elec       q    Type
REMARK                         _______ _______ _______ _____ _____    ______ ____
ROOT
ATOM      1  C   UNL     1      44.631   6.520  11.662  0.00  0.00    +0.000 A 
ATOM      2  C   UNL     1      44.660   7.919  11.581  0.00  0.00    +0.000 A 
ATOM      3  C   UNL     1      45.571   8.659  12.343  0.00  0.00    +0.000 A 
ATOM      4  C   UNL     1      46.489   8.014  13.185  0.00  0.00    +0.000 A 
ATOM      5  C   UNL     1      46.453   6.617  13.272  0.00  0.00    +0.000 A 
ATOM      6  C   UNL     1      45.542   5.876  12.512  0.00  0.00    +0.000 A 
ENDROOT
BRANCH   1   7
ATOM      7  C   UNL     1      43.675   5.718  10.817  0.00  0.00    +0.000 C 
BRANCH   7  10
ATOM      8  C   UNL     1      44.448   3.549   9.907  0.00  0.00    +0.000 C 
ATOM      9  O   UNL     1      43.882   2.925  10.800  0.00  0.00    +0.000 OA
ATOM     10  N   UNL     1      44.390   4.928   9.843  0.00  0.00    +0.000 N 
ATOM     11  H   UNL     1      44.874   5.396   9.090  0.00  0.00    +0.000 HD
BRANCH   8  15
ATOM     12  C   UNL     1      46.577   2.415   6.823  0.00  0.00    +0.000 A 
ATOM     13  C   UNL     1      46.358   1.293   7.597  0.00  0.00    +0.000 A 
ATOM     14  C   UNL     1      45.583   1.578   8.760  0.00  0.00    +0.000 A 
ATOM     15  C   UNL     1      45.229   2.912   8.851  0.00  0.00    +0.000 A 
ATOM     16  S   UNL     1      45.842   3.795   7.514  0.00  0.00    +0.000 S 
BRANCH  12  17
ATOM     17  C   UNL     1      47.346   2.534   5.544  0.00  0.00    +0.000 C 
BRANCH  17  18
ATOM     18  N   UNL     1      48.603   1.798   5.628  0.00  0.00    +0.000 NA
ATOM     19  H   UNL     1      48.919   1.575   4.687  0.00  0.00    +0.000 HD
ATOM     20  H   UNL     1      48.429   0.905   6.089  0.00  0.00    +0.000 HD
ENDBRANCH  17  18
ENDBRANCH  12  17
ENDBRANCH   8  15
ENDBRANCH   7  10
ENDBRANCH   1   7
BRANCH   4  21
ATOM     21  C   UNL     1      47.479   8.806  14.001  0.00  0.00    +0.000 C 
BRANCH  21  22
ATOM     22  N   UNL     1      47.948   8.053  15.138  0.00  0.00    +0.000 N 
ATOM     23  C   UNL     1      49.143   7.380  15.090  0.00  0.00    +0.000 C 
ATOM     24  O   UNL     1      49.785   7.261  14.050  0.00  0.00    +0.000 OA
ATOM     25  H   UNL     1      47.541   8.283  16.039  0.00  0.00    +0.000 HD
BRANCH  23  26
ATOM     26  C   UNL     1      49.619   6.792  16.349  0.00  0.00    +0.000 A 
ATOM     27  C   UNL     1      50.561   7.461  17.118  0.00  0.00    +0.000 A 
ATOM     28  S   UNL     1      50.938   6.663  18.579  0.00  0.00    +0.000 S 
ATOM     29  C   UNL     1      49.796   5.441  18.268  0.00  0.00    +0.000 A 
ATOM     30  N   UNL     1      49.525   4.481  19.194  0.00  0.00    +0.000 NA
ATOM     31  C   UNL     1      48.620   3.633  18.833  0.00  0.00    +0.000 A 
ATOM     32  N   UNL     1      47.990   3.634  17.615  0.00  0.00    +0.000 N 
ATOM     33  C   UNL     1      48.265   4.556  16.633  0.00  0.00    +0.000 A 
ATOM     34  O   UNL     1      47.752   4.476  15.523  0.00  0.00    +0.000 OA
ATOM     35  C   UNL     1      49.215   5.581  17.021  0.00  0.00    +0.000 A 
ATOM     36  H   UNL     1      47.330   2.910  17.374  0.00  0.00    +0.000 HD
ENDBRANCH  23  26
ENDBRANCH  21  22
ENDBRANCH   4  21
TORSDOF 8
ENDMDL
MODEL 2
REMARK VINA RESULT:    -7.265      1.920      2.461
REMARK INTER + INTRA:         -11.264
REMARK INTER:                 -10.438
REMARK INTRA:                  -0.827
REMARK UNBOUND:                -0.814
REMARK  Name = 
REMARK  8 active torsions:
REMARK  status: ('A' for Active; 'I' for Inactive)
REMARK    1  A    between atoms: N_1  and  C_2
REMARK    2  A    between atoms: C_2  and  C_3
REMARK    3  A    between atoms: C_6  and  C_7
REMARK    4  A    between atoms: N_9  and  C_10
REMARK    5  A    between atoms: C_10  and  C_11
REMARK    6  A    between atoms: C_14  and  C_15
REMARK    7  A    between atoms: C_15  and  N_16
REMARK    8  A    between atoms: C_17  and  C_19
REMARK                            x       y       z     vdW  Elec       q    Type
REMARK                         _______ _______ _______ _____ _____    ______ ____
ROOT
ATOM      1  C   UNL     1      45.346   6.599  11.939  0.00  0.00    +0.000 A 
ATOM      2  C   UNL     1      45.329   7.936  12.357  0.00  0.00    +0.000 A 
ATOM      3  C   UNL     1      46.319   8.426  13.217  0.00  0.00    +0.000 A 
ATOM      4  C   UNL     1      47.359   7.596  13.658  0.00  0.00    +0.000 A 
ATOM      5  C   UNL     1      47.369   6.257  13.246  0.00  0.00    +0.000 A 
ATOM      6  C   UNL     1      46.380   5.766  12.388  0.00  0.00    +0.000 A 
ENDROOT
BRANCH   1   7
ATOM      7  C   UNL     1      44.302   6.076  10.985  0.00  0.00    +0.000 C 
BRANCH   7  10
ATOM      8  C   UNL     1      44.683   3.859   9.950  0.00  0.00    +0.000 C 
ATOM      9  O   UNL     1      43.957   3.305  10.770  0.00  0.00    +0.000 OA
ATOM     10  N   UNL     1      44.901   5.223   9.986  0.00  0.00    +0.000 N 
ATOM     11  H   UNL     1      45.509   5.633   9.291  0.00  0.00    +0.000 HD
BRANCH   8  15
ATOM     12  C   UNL     1      46.627   2.518   6.828  0.00  0.00    +0.000 A 
ATOM     13  C   UNL     1      46.343   1.427   7.626  0.00  0.00    +0.000 A 
ATOM     14  C   UNL     1      45.627   1.789   8.804  0.00  0.00    +0.000 A 
ATOM     15  C   UNL     1      45.381   3.148   8.884  0.00  0.00    +0.000 A 
ATOM     16  S   UNL     1      46.023   3.962   7.517  0.00  0.00    +0.000 S 
BRANCH  12  17
ATOM     17  C   UNL     1      47.368   2.558   5.527  0.00  0.00    +0.000 C 
BRANCH  17  18
ATOM     18  N   UNL     1      48.601   1.784   5.611  0.00  0.00    +0.000 NA
ATOM     19  H   UNL     1      49.383   2.380   5.350  0.00  0.00    +0.000 HD
ATOM     20  H   UNL     1      48.567   1.038   4.917  0.00  0.00    +0.000 HD
ENDBRANCH  17  18
ENDBRANCH  12  17
ENDBRANCH   8  15
ENDBRANCH   7  10
ENDBRANCH   1   7
BRANCH   4  21
ATOM     21  C   UNL     1      48.432   8.121  14.577  0.00  0.00    +0.000 C 
BRANCH  21  22
ATOM     22  N   UNL     1      49.178   7.048  15.187  0.00  0.00    +0.000 N 
ATOM     23  C   UNL     1      49.153   6.860  16.546  0.00  0.00    +0.000 C 
ATOM     24  O   UNL     1      48.630   7.669  17.309  0.00  0.00    +0.000 OA
ATOM     25  H   UNL     1      49.454   6.282  14.582  0.00  0.00    +0.000 HD
BRANCH  23  26
ATOM     26  C   UNL     1      49.796   5.642  17.054  0.00  0.00    +0.000 A 
ATOM     27  C   UNL     1      49.052   4.482  17.229  0.00  0.00    +0.000 A 
ATOM     28  S   UNL     1      49.981   3.151  17.756  0.00  0.00    +0.000 S 
ATOM     29  C   UNL     1      51.419   4.059  17.689  0.00  0.00    +0.000 A 
ATOM     30  N   UNL     1      52.628   3.477  17.913  0.00  0.00    +0.000 NA
ATOM     31  C   UNL     1      53.634   4.280  17.806  0.00  0.00    +0.000 A 
ATOM     32  N   UNL     1      53.537   5.621  17.536  0.00  0.00    +0.000 N 
ATOM     33  C   UNL     1      52.335   6.260  17.348  0.00  0.00    +0.000 A 
ATOM     34  O   UNL     1      52.275   7.475  17.198  0.00  0.00    +0.000 OA
ATOM     35  C   UNL     1      51.179   5.385  17.376  0.00  0.00    +0.000 A 
ATOM     36  H   UNL     1      54.359   6.205  17.518  0.00  0.00    +0.000 HD
ENDBRANCH  23  26
ENDBRANCH  21  22
ENDBRANCH   4  21
TORSDOF 8
ENDMDL
MODEL 3
REMARK VINA RESULT:    -7.163      4.584      7.774
REMARK INTER + INTRA:         -11.117
REMARK INTER:                 -10.174
REMARK INTRA:                  -0.943
REMARK UNBOUND:                -0.814
REMARK  Name = 
REMARK  8 active torsions:
REMARK  status: ('A' for Active; 'I' for Inactive)
REMARK    1  A    between atoms: N_1  and  C_2
REMARK    2  A    between atoms: C_2  and  C_3
REMARK    3  A    between atoms: C_6  and  C_7
REMARK    4  A    between atoms: N_9  and  C_10
REMARK    5  A    between atoms: C_10  and  C_11
REMARK    6  A    between atoms: C_14  and  C_15
REMARK    7  A    between atoms: C_15  and  N_16
REMARK    8  A    between atoms: C_17  and  C_19
REMARK                            x       y       z     vdW  Elec       q    Type
REMARK                         _______ _______ _______ _____ _____    ______ ____
ROOT
ATOM      1  C   UNL     1      49.847   9.187  11.409  0.00  0.00    +0.000 A 
ATOM      2  C   UNL     1      48.903  10.216  11.528  0.00  0.00    +0.000 A 
ATOM      3  C   UNL     1      47.599   9.942  11.959  0.00  0.00    +0.000 A 
ATOM      4  C   UNL     1      47.219   8.637  12.302  0.00  0.00    +0.000 A 
ATOM      5  C   UNL     1      48.161   7.608  12.174  0.00  0.00    +0.000 A 
ATOM      6  C   UNL     1      49.463   7.881  11.743  0.00  0.00    +0.000 A 
ENDROOT
BRANCH   1   7
ATOM      7  C   UNL     1      51.261   9.484  10.979  0.00  0.00    +0.000 C 
BRANCH   7  10
ATOM      8  C   UNL     1      52.845   8.421   9.401  0.00  0.00    +0.000 C 
ATOM      9  O   UNL     1      53.253   9.511   9.011  0.00  0.00    +0.000 OA
ATOM     10  N   UNL     1      51.866   8.323  10.372  0.00  0.00    +0.000 N 
ATOM     11  H   UNL     1      51.561   7.403  10.657  0.00  0.00    +0.000 HD
BRANCH   8  15
ATOM     12  C   UNL     1      53.781   5.117   7.520  0.00  0.00    +0.000 A 
ATOM     13  C   UNL     1      54.509   5.135   8.693  0.00  0.00    +0.000 A 
ATOM     14  C   UNL     1      54.251   6.298   9.476  0.00  0.00    +0.000 A 
ATOM     15  C   UNL     1      53.333   7.147   8.883  0.00  0.00    +0.000 A 
ATOM     16  S   UNL     1      52.796   6.508   7.384  0.00  0.00    +0.000 S 
BRANCH  12  17
ATOM     17  C   UNL     1      53.780   4.086   6.435  0.00  0.00    +0.000 C 
BRANCH  17  18
ATOM     18  N   UNL     1      52.951   2.945   6.807  0.00  0.00    +0.000 NA
ATOM     19  H   UNL     1      53.532   2.110   6.836  0.00  0.00    +0.000 HD
ATOM     20  H   UNL     1      52.262   2.788   6.072  0.00  0.00    +0.000 HD
ENDBRANCH  17  18
ENDBRANCH  12  17
ENDBRANCH   8  15
ENDBRANCH   7  10
ENDBRANCH   1   7
BRANCH   4  21
ATOM     21  C   UNL     1      45.820   8.338  12.776  0.00  0.00    +0.000 C 
BRANCH  21  22
ATOM     22  N   UNL     1      45.477   6.953  12.570  0.00  0.00    +0.000 N 
ATOM     23  C   UNL     1      44.450   6.601  11.729  0.00  0.00    +0.000 C 
ATOM     24  O   UNL     1      43.690   7.433  11.241  0.00  0.00    +0.000 OA
ATOM     25  H   UNL     1      46.185   6.266  12.806  0.00  0.00    +0.000 HD
BRANCH  23  26
ATOM     26  C   UNL     1      44.292   5.169  11.447  0.00  0.00    +0.000 A 
ATOM     27  C   UNL     1      43.528   4.373  12.290  0.00  0.00    +0.000 A 
ATOM     28  S   UNL     1      43.398   2.754  11.765  0.00  0.00    +0.000 S 
ATOM     29  C   UNL     1      44.290   3.084  10.354  0.00  0.00    +0.000 A 
ATOM     30  N   UNL     1      44.454   2.138   9.389  0.00  0.00    +0.000 NA
ATOM     31  C   UNL     1      45.132   2.535   8.364  0.00  0.00    +0.000 A 
ATOM     32  N   UNL     1      45.696   3.778   8.234  0.00  0.00    +0.000 N 
ATOM     33  C   UNL     1      45.594   4.749   9.202  0.00  0.00    +0.000 A 
ATOM     34  O   UNL     1      46.184   5.818   9.097  0.00  0.00    +0.000 OA
ATOM     35  C   UNL     1      44.771   4.381  10.338  0.00  0.00    +0.000 A 
ATOM     36  H   UNL     1      46.260   4.009   7.430  0.00  0.00    +0.000 HD
ENDBRANCH  23  26
ENDBRANCH  21  22
ENDBRANCH   4  21
TORSDOF 8
ENDMDL
MODEL 4
REMARK VINA RESULT:    -6.908      3.953      8.975
REMARK INTER + INTRA:         -10.751
REMARK INTER:                  -9.790
REMARK INTRA:                  -0.961
REMARK UNBOUND:                -0.814
REMARK  Name = 
REMARK  8 active torsions:
REMARK  status: ('A' for Active; 'I' for Inactive)
REMARK    1  A    between atoms: N_1  and  C_2
REMARK    2  A    between atoms: C_2  and  C_3
REMARK    3  A    between atoms: C_6  and  C_7
REMARK    4  A    between atoms: N_9  and  C_10
REMARK    5  A    between atoms: C_10  and  C_11
REMARK    6  A    between atoms: C_14  and  C_15
REMARK    7  A    between atoms: C_15  and  N_16
REMARK    8  A    between atoms: C_17  and  C_19
REMARK                            x       y       z     vdW  Elec       q    Type
REMARK                         _______ _______ _______ _____ _____    ______ ____
ROOT
ATOM      1  C   UNL     1      49.721   4.908  17.405  0.00  0.00    +0.000 A 
ATOM      2  C   UNL     1      50.535   5.954  16.949  0.00  0.00    +0.000 A 
ATOM      3  C   UNL     1      50.097   6.806  15.928  0.00  0.00    +0.000 A 
ATOM      4  C   UNL     1      48.827   6.643  15.357  0.00  0.00    +0.000 A 
ATOM      5  C   UNL     1      48.018   5.592  15.806  0.00  0.00    +0.000 A 
ATOM      6  C   UNL     1      48.455   4.740  16.826  0.00  0.00    +0.000 A 
ENDROOT
BRANCH   1   7
ATOM      7  C   UNL     1      50.174   4.011  18.528  0.00  0.00    +0.000 C 
BRANCH   7  10
ATOM      8  C   UNL     1      52.548   3.311  18.461  0.00  0.00    +0.000 C 
ATOM      9  O   UNL     1      52.884   4.233  19.197  0.00  0.00    +0.000 OA
ATOM     10  N   UNL     1      51.229   3.131  18.088  0.00  0.00    +0.000 N 
ATOM     11  H   UNL     1      51.002   2.359  17.477  0.00  0.00    +0.000 HD
BRANCH   8  15
ATOM     12  C   UNL     1      54.617   0.279  17.100  0.00  0.00    +0.000 A 
ATOM     13  C   UNL     1      55.398   1.407  16.937  0.00  0.00    +0.000 A 
ATOM     14  C   UNL     1      54.750   2.588  17.403  0.00  0.00    +0.000 A 
ATOM     15  C   UNL     1      53.486   2.339  17.909  0.00  0.00    +0.000 A 
ATOM     16  S   UNL     1      53.113   0.667  17.814  0.00  0.00    +0.000 S 
BRANCH  12  17
ATOM     17  C   UNL     1      54.930  -1.137  16.728  0.00  0.00    +0.000 C 
BRANCH  17  18
ATOM     18  N   UNL     1      54.273  -1.500  15.477  0.00  0.00    +0.000 NA
ATOM     19  H   UNL     1      53.448  -2.057  15.687  0.00  0.00    +0.000 HD
ATOM     20  H   UNL     1      54.897  -2.104  14.944  0.00  0.00    +0.000 HD
ENDBRANCH  17  18
ENDBRANCH  12  17
ENDBRANCH   8  15
ENDBRANCH   7  10
ENDBRANCH   1   7
BRANCH   4  21
ATOM     21  C   UNL     1      48.347   7.563  14.263  0.00  0.00    +0.000 C 
BRANCH  21  22
ATOM     22  N   UNL     1      47.034   7.191  13.798  0.00  0.00    +0.000 N 
ATOM     23  C   UNL     1      46.836   6.785  12.502  0.00  0.00    +0.000 C 
ATOM     24  O   UNL     1      47.719   6.863  11.651  0.00  0.00    +0.000 OA
ATOM     25  H   UNL     1      46.350   6.947  14.506  0.00  0.00    +0.000 HD
BRANCH  23  26
ATOM     26  C   UNL     1      45.506   6.260  12.172  0.00  0.00    +0.000 A 
ATOM     27  C   UNL     1      44.544   7.096  11.619  0.00  0.00    +0.000 A 
ATOM     28  S   UNL     1      43.086   6.295  11.235  0.00  0.00    +0.000 S 
ATOM     29  C   UNL     1      43.722   4.792  11.719  0.00  0.00    +0.000 A 
ATOM     30  N   UNL     1      43.018   3.642  11.541  0.00  0.00    +0.000 NA
ATOM     31  C   UNL     1      43.632   2.575  11.934  0.00  0.00    +0.000 A 
ATOM     32  N   UNL     1      44.869   2.559  12.524  0.00  0.00    +0.000 N 
ATOM     33  C   UNL     1      45.597   3.700  12.764  0.00  0.00    +0.000 A 
ATOM     34  O   UNL     1      46.659   3.662  13.375  0.00  0.00    +0.000 OA
ATOM     35  C   UNL     1      44.986   4.918  12.267  0.00  0.00    +0.000 A 
ATOM     36  H   UNL     1      45.272   1.696  12.856  0.00  0.00    +0.000 HD
ENDBRANCH  23  26
ENDBRANCH  21  22
ENDBRANCH   4  21
TORSDOF 8
ENDMDL
MODEL 5
REMARK VINA RESULT:    -6.730      3.360      4.587
REMARK INTER + INTRA:         -10.495
REMARK INTER:                  -9.524
REMARK INTRA:                  -0.971
REMARK UNBOUND:                -0.814
REMARK  Name = 
REMARK  8 active torsions:
REMARK  status: ('A' for Active; 'I' for Inactive)
REMARK    1  A    between atoms: N_1  and  C_2
REMARK    2  A    between atoms: C_2  and  C_3
REMARK    3  A    between atoms: C_6  and  C_7
REMARK    4  A    between atoms: N_9  and  C_10
REMARK    5  A    between atoms: C_10  and  C_11
REMARK    6  A    between atoms: C_14  and  C_15
REMARK    7  A    between atoms: C_15  and  N_16
REMARK    8  A    between atoms: C_17  and  C_19
REMARK                            x       y       z     vdW  Elec       q    Type
REMARK                         _______ _______ _______ _____ _____    ______ ____
ROOT
ATOM      1  C   UNL     1      45.876   5.933  12.678  0.00  0.00    +0.000 A 
ATOM      2  C   UNL     1      46.351   7.249  12.607  0.00  0.00    +0.000 A 
ATOM      3  C   UNL     1      47.404   7.672  13.428  0.00  0.00    +0.000 A 
ATOM      4  C   UNL     1      48.017   6.782  14.320  0.00  0.00    +0.000 A 
ATOM      5  C   UNL     1      47.534   5.469  14.397  0.00  0.00    +0.000 A 
ATOM      6  C   UNL     1      46.482   5.046  13.578  0.00  0.00    +0.000 A 
ENDROOT
BRANCH   1   7
ATOM      7  C   UNL     1      44.767   5.465  11.771  0.00  0.00    +0.000 C 
BRANCH   7  10
ATOM      8  C   UNL     1      44.674   3.616  10.126  0.00  0.00    +0.000 C 
ATOM      9  O   UNL     1      43.624   3.193  10.598  0.00  0.00    +0.000 OA
ATOM     10  N   UNL     1      45.299   4.735  10.645  0.00  0.00    +0.000 N 
ATOM     11  H   UNL     1      46.163   5.043  10.224  0.00  0.00    +0.000 HD
BRANCH   8  15
ATOM     12  C   UNL     1      46.587   2.525   6.889  0.00  0.00    +0.000 A 
ATOM     13  C   UNL     1      46.299   1.374   7.595  0.00  0.00    +0.000 A 
ATOM     14  C   UNL     1      45.593   1.641   8.805  0.00  0.00    +0.000 A 
ATOM     15  C   UNL     1      45.360   2.991   8.999  0.00  0.00    +0.000 A 
ATOM     16  S   UNL     1      46.000   3.911   7.700  0.00  0.00    +0.000 S 
BRANCH  12  17
ATOM     17  C   UNL     1      47.320   2.668   5.591  0.00  0.00    +0.000 C 
BRANCH  17  18
ATOM     18  N   UNL     1      48.522   1.842   5.583  0.00  0.00    +0.000 NA
ATOM     19  H   UNL     1      48.397   1.083   4.917  0.00  0.00    +0.000 HD
ATOM     20  H   UNL     1      48.623   1.404   6.498  0.00  0.00    +0.000 HD
ENDBRANCH  17  18
ENDBRANCH  12  17
ENDBRANCH   8  15
ENDBRANCH   7  10
ENDBRANCH   1   7
BRANCH   4  21
ATOM     21  C   UNL     1      49.156   7.229  15.201  0.00  0.00    +0.000 C 
BRANCH  21  22
ATOM     22  N   UNL     1      50.372   7.401  14.445  0.00  0.00    +0.000 N 
ATOM     23  C   UNL     1      51.114   8.550  14.559  0.00  0.00    +0.000 C 
ATOM     24  O   UNL     1      50.710   9.530  15.180  0.00  0.00    +0.000 OA
ATOM     25  H   UNL     1      50.808   6.560  14.083  0.00  0.00    +0.000 HD
BRANCH  23  26
ATOM     26  C   UNL     1      52.420   8.560  13.889  0.00  0.00    +0.000 A 
ATOM     27  C   UNL     1      53.584   8.703  14.634  0.00  0.00    +0.000 A 
ATOM     28  S   UNL     1      55.007   8.617  13.695  0.00  0.00    +0.000 S 
ATOM     29  C   UNL     1      54.117   8.306  12.278  0.00  0.00    +0.000 A 
ATOM     30  N   UNL     1      54.743   8.014  11.106  0.00  0.00    +0.000 NA
ATOM     31  C   UNL     1      53.944   7.777  10.119  0.00  0.00    +0.000 A 
ATOM     32  N   UNL     1      52.576   7.845  10.189  0.00  0.00    +0.000 N 
ATOM     33  C   UNL     1      51.903   8.180  11.339  0.00  0.00    +0.000 A 
ATOM     34  O   UNL     1      50.685   8.321  11.347  0.00  0.00    +0.000 OA
ATOM     35  C   UNL     1      52.753   8.375  12.498  0.00  0.00    +0.000 A 
ATOM     36  H   UNL     1      52.009   7.700   9.367  0.00  0.00    +0.000 HD
ENDBRANCH  23  26
ENDBRANCH  21  22
ENDBRANCH   4  21
TORSDOF 8
ENDMDL
MODEL 6
REMARK VINA RESULT:    -6.412      2.703      4.029
REMARK INTER + INTRA:         -10.038
REMARK INTER:                  -9.078
REMARK INTRA:                  -0.960
REMARK UNBOUND:                -0.814
REMARK  Name = 
REMARK  8 active torsions:
REMARK  status: ('A' for Active; 'I' for Inactive)
REMARK    1  A    between atoms: N_1  and  C_2
REMARK    2  A    between atoms: C_2  and  C_3
REMARK    3  A    between atoms: C_6  and  C_7
REMARK    4  A    between atoms: N_9  and  C_10
REMARK    5  A    between atoms: C_10  and  C_11
REMARK    6  A    between atoms: C_14  and  C_15
REMARK    7  A    between atoms: C_15  and  N_16
REMARK    8  A    between atoms: C_17  and  C_19
REMARK                            x       y       z     vdW  Elec       q    Type
REMARK                         _______ _______ _______ _____ _____    ______ ____
ROOT
ATOM      1  C   UNL     1      48.154   8.028  13.557  0.00  0.00    +0.000 A 
ATOM      2  C   UNL     1      47.825   9.089  14.411  0.00  0.00    +0.000 A 
ATOM      3  C   UNL     1      48.251   9.090  15.744  0.00  0.00    +0.000 A 
ATOM      4  C   UNL     1      49.034   8.041  16.246  0.00  0.00    +0.000 A 
ATOM      5  C   UNL     1      49.354   6.976  15.394  0.00  0.00    +0.000 A 
ATOM      6  C   UNL     1      48.928   6.973  14.062  0.00  0.00    +0.000 A 
ENDROOT
BRANCH   1   7
ATOM      7  C   UNL     1      47.728   8.040  12.111  0.00  0.00    +0.000 C 
BRANCH   7  10
ATOM      8  C   UNL     1      45.764   6.560  11.824  0.00  0.00    +0.000 C 
ATOM      9  O   UNL     1      44.995   7.436  12.208  0.00  0.00    +0.000 OA
ATOM     10  N   UNL     1      47.126   6.780  11.744  0.00  0.00    +0.000 N 
ATOM     11  H   UNL     1      47.718   6.027  11.424  0.00  0.00    +0.000 HD
BRANCH   8  15
ATOM     12  C   UNL     1      44.703   3.169  10.179  0.00  0.00    +0.000 A 
ATOM     13  C   UNL     1      44.576   3.012  11.546  0.00  0.00    +0.000 A 
ATOM     14  C   UNL     1      44.933   4.192  12.263  0.00  0.00    +0.000 A 
ATOM     15  C   UNL     1      45.329   5.223  11.430  0.00  0.00    +0.000 A 
ATOM     16  S   UNL     1      45.252   4.739   9.786  0.00  0.00    +0.000 S 
BRANCH  12  17
ATOM     17  C   UNL     1      44.440   2.170   9.095  0.00  0.00    +0.000 C 
BRANCH  17  18
ATOM     18  N   UNL     1      45.633   1.376   8.825  0.00  0.00    +0.000 NA
ATOM     19  H   UNL     1      45.350   0.438   8.551  0.00  0.00    +0.000 HD
ATOM     20  H   UNL     1      46.160   1.273   9.691  0.00  0.00    +0.000 HD
ENDBRANCH  17  18
ENDBRANCH  12  17
ENDBRANCH   8  15
ENDBRANCH   7  10
ENDBRANCH   1   7
BRANCH   4  21
ATOM     21  C   UNL     1      49.503   8.041  17.678  0.00  0.00    +0.000 C 
BRANCH  21  22
ATOM     22  N   UNL     1      50.558   7.082  17.889  0.00  0.00    +0.000 N 
ATOM     23  C   UNL     1      50.334   5.939  18.616  0.00  0.00    +0.000 C 
ATOM     24  O   UNL     1      49.291   5.753  19.237  0.00  0.00    +0.000 OA
ATOM     25  H   UNL     1      51.346   7.121  17.251  0.00  0.00    +0.000 HD
BRANCH  23  26
ATOM     26  C   UNL     1      51.414   4.944  18.627  0.00  0.00    +0.000 A 
ATOM     27  C   UNL     1      52.607   5.217  19.281  0.00  0.00    +0.000 A 
ATOM     28  S   UNL     1      53.714   3.917  19.249  0.00  0.00    +0.000 S 
ATOM     29  C   UNL     1      52.603   2.921  18.431  0.00  0.00    +0.000 A 
ATOM     30  N   UNL     1      52.879   1.611  18.190  0.00  0.00    +0.000 NA
ATOM     31  C   UNL     1      51.937   0.971  17.582  0.00  0.00    +0.000 A 
ATOM     32  N   UNL     1      50.759   1.531  17.158  0.00  0.00    +0.000 N 
ATOM     33  C   UNL     1      50.457   2.860  17.340  0.00  0.00    +0.000 A 
ATOM     34  O   UNL     1      49.437   3.351  16.870  0.00  0.00    +0.000 OA
ATOM     35  C   UNL     1      51.449   3.604  18.092  0.00  0.00    +0.000 A 
ATOM     36  H   UNL     1      50.085   0.988  16.641  0.00  0.00    +0.000 HD
ENDBRANCH  23  26
ENDBRANCH  21  22
ENDBRANCH   4  21
TORSDOF 8
ENDMDL
MODEL 7
REMARK VINA RESULT:    -6.052      3.007      9.301
REMARK INTER + INTRA:          -9.520
REMARK INTER:                  -8.671
REMARK INTRA:                  -0.848
REMARK UNBOUND:                -0.814
REMARK  Name = 
REMARK  8 active torsions:
REMARK  status: ('A' for Active; 'I' for Inactive)
REMARK    1  A    between atoms: N_1  and  C_2
REMARK    2  A    between atoms: C_2  and  C_3
REMARK    3  A    between atoms: C_6  and  C_7
REMARK    4  A    between atoms: N_9  and  C_10
REMARK    5  A    between atoms: C_10  and  C_11
REMARK    6  A    between atoms: C_14  and  C_15
REMARK    7  A    between atoms: C_15  and  N_16
REMARK    8  A    between atoms: C_17  and  C_19
REMARK                            x       y       z     vdW  Elec       q    Type
REMARK                         _______ _______ _______ _____ _____    ______ ____
ROOT
ATOM      1  C   UNL     1      50.179   8.266  14.389  0.00  0.00    +0.000 A 
ATOM      2  C   UNL     1      49.559   9.470  14.029  0.00  0.00    +0.000 A 
ATOM      3  C   UNL     1      48.217   9.490  13.633  0.00  0.00    +0.000 A 
ATOM      4  C   UNL     1      47.460   8.310  13.611  0.00  0.00    +0.000 A 
ATOM      5  C   UNL     1      48.083   7.106  13.962  0.00  0.00    +0.000 A 
ATOM      6  C   UNL     1      49.425   7.085  14.357  0.00  0.00    +0.000 A 
ENDROOT
BRANCH   1   7
ATOM      7  C   UNL     1      51.615   8.245  14.849  0.00  0.00    +0.000 C 
BRANCH   7  10
ATOM      8  C   UNL     1      51.996   6.934  16.914  0.00  0.00    +0.000 C 
ATOM      9  O   UNL     1      51.808   7.917  17.623  0.00  0.00    +0.000 OA
ATOM     10  N   UNL     1      51.915   7.012  15.537  0.00  0.00    +0.000 N 
ATOM     11  H   UNL     1      52.082   6.176  14.995  0.00  0.00    +0.000 HD
BRANCH   8  15
ATOM     12  C   UNL     1      53.433   3.649  18.487  0.00  0.00    +0.000 A 
ATOM     13  C   UNL     1      52.159   3.358  18.039  0.00  0.00    +0.000 A 
ATOM     14  C   UNL     1      51.526   4.485  17.436  0.00  0.00    +0.000 A 
ATOM     15  C   UNL     1      52.327   5.613  17.440  0.00  0.00    +0.000 A 
ATOM     16  S   UNL     1      53.842   5.279  18.173  0.00  0.00    +0.000 S 
BRANCH  12  17
ATOM     17  C   UNL     1      54.408   2.748  19.181  0.00  0.00    +0.000 C 
BRANCH  17  18
ATOM     18  N   UNL     1      53.954   1.363  19.135  0.00  0.00    +0.000 NA
ATOM     19  H   UNL     1      52.976   1.327  19.415  0.00  0.00    +0.000 HD
ATOM     20  H   UNL     1      54.469   0.827  19.832  0.00  0.00    +0.000 HD
ENDBRANCH  17  18
ENDBRANCH  12  17
ENDBRANCH   8  15
ENDBRANCH   7  10
ENDBRANCH   1   7
BRANCH   4  21
ATOM     21  C   UNL     1      46.011   8.328  13.195  0.00  0.00    +0.000 C 
BRANCH  21  22
ATOM     22  N   UNL     1      45.510   6.995  12.970  0.00  0.00    +0.000 N 
ATOM     23  C   UNL     1      44.724   6.714  11.881  0.00  0.00    +0.000 C 
ATOM     24  O   UNL     1      44.291   7.595  11.142  0.00  0.00    +0.000 OA
ATOM     25  H   UNL     1      45.991   6.238  13.446  0.00  0.00    +0.000 HD
BRANCH  23  26
ATOM     26  C   UNL     1      44.410   5.300  11.642  0.00  0.00    +0.000 A 
ATOM     27  C   UNL     1      43.665   4.584  12.571  0.00  0.00    +0.000 A 
ATOM     28  S   UNL     1      43.339   2.979  12.090  0.00  0.00    +0.000 S 
ATOM     29  C   UNL     1      44.111   3.214  10.592  0.00  0.00    +0.000 A 
ATOM     30  N   UNL     1      44.092   2.248   9.634  0.00  0.00    +0.000 NA
ATOM     31  C   UNL     1      44.698   2.572   8.540  0.00  0.00    +0.000 A 
ATOM     32  N   UNL     1      45.355   3.757   8.332  0.00  0.00    +0.000 N 
ATOM     33  C   UNL     1      45.439   4.742   9.287  0.00  0.00    +0.000 A 
ATOM     34  O   UNL     1      46.109   5.752   9.105  0.00  0.00    +0.000 OA
ATOM     35  C   UNL     1      44.703   4.461  10.505  0.00  0.00    +0.000 A 
ATOM     36  H   UNL     1      45.855   3.927   7.472  0.00  0.00    +0.000 HD
ENDBRANCH  23  26
ENDBRANCH  21  22
ENDBRANCH   4  21
TORSDOF 8
ENDMDL
MODEL 8
REMARK VINA RESULT:    -5.975      3.713      8.924
REMARK INTER + INTRA:          -9.409
REMARK INTER:                  -8.425
REMARK INTRA:                  -0.984
REMARK UNBOUND:                -0.814
REMARK  Name = 
REMARK  8 active torsions:
REMARK  status: ('A' for Active; 'I' for Inactive)
REMARK    1  A    between atoms: N_1  and  C_2
REMARK    2  A    between atoms: C_2  and  C_3
REMARK    3  A    between atoms: C_6  and  C_7
REMARK    4  A    between atoms: N_9  and  C_10
REMARK    5  A    between atoms: C_10  and  C_11
REMARK    6  A    between atoms: C_14  and  C_15
REMARK    7  A    between atoms: C_15  and  N_16
REMARK    8  A    between atoms: C_17  and  C_19
REMARK                            x       y       z     vdW  Elec       q    Type
REMARK                         _______ _______ _______ _____ _____    ______ ____
ROOT
ATOM      1  C   UNL     1      50.120   5.855  18.141  0.00  0.00    +0.000 A 
ATOM      2  C   UNL     1      48.737   5.863  17.913  0.00  0.00    +0.000 A 
ATOM      3  C   UNL     1      48.196   6.568  16.832  0.00  0.00    +0.000 A 
ATOM      4  C   UNL     1      49.028   7.262  15.943  0.00  0.00    +0.000 A 
ATOM      5  C   UNL     1      50.409   7.262  16.176  0.00  0.00    +0.000 A 
ATOM      6  C   UNL     1      50.951   6.558  17.257  0.00  0.00    +0.000 A 
ENDROOT
BRANCH   1   7
ATOM      7  C   UNL     1      50.709   5.068  19.283  0.00  0.00    +0.000 C 
BRANCH   7  10
ATOM      8  C   UNL     1      51.594   3.063  18.131  0.00  0.00    +0.000 C 
ATOM      9  O   UNL     1      50.465   2.668  17.861  0.00  0.00    +0.000 OA
ATOM     10  N   UNL     1      51.800   4.240  18.826  0.00  0.00    +0.000 N 
ATOM     11  H   UNL     1      52.748   4.522  19.027  0.00  0.00    +0.000 HD
BRANCH   8  15
ATOM     12  C   UNL     1      54.478   0.631  17.083  0.00  0.00    +0.000 A 
ATOM     13  C   UNL     1      55.047   1.875  17.271  0.00  0.00    +0.000 A 
ATOM     14  C   UNL     1      54.090   2.856  17.662  0.00  0.00    +0.000 A 
ATOM     15  C   UNL     1      52.809   2.343  17.762  0.00  0.00    +0.000 A 
ATOM     16  S   UNL     1      52.795   0.670  17.383  0.00  0.00    +0.000 S 
BRANCH  12  17
ATOM     17  C   UNL     1      55.138  -0.646  16.661  0.00  0.00    +0.000 C 
BRANCH  17  18
ATOM     18  N   UNL     1      54.278  -1.394  15.750  0.00  0.00    +0.000 NA
ATOM     19  H   UNL     1      53.744  -2.075  16.285  0.00  0.00    +0.000 HD
ATOM     20  H   UNL     1      54.866  -1.931  15.113  0.00  0.00    +0.000 HD
ENDBRANCH  17  18
ENDBRANCH  12  17
ENDBRANCH   8  15
ENDBRANCH   7  10
ENDBRANCH   1   7
BRANCH   4  21
ATOM     21  C   UNL     1      48.451   8.016  14.771  0.00  0.00    +0.000 C 
BRANCH  21  22
ATOM     22  N   UNL     1      47.380   7.282  14.146  0.00  0.00    +0.000 N 
ATOM     23  C   UNL     1      47.646   6.243  13.288  0.00  0.00    +0.000 C 
ATOM     24  O   UNL     1      48.784   5.992  12.900  0.00  0.00    +0.000 OA
ATOM     25  H   UNL     1      46.466   7.347  14.581  0.00  0.00    +0.000 HD
BRANCH  23  26
ATOM     26  C   UNL     1      46.497   5.447  12.842  0.00  0.00    +0.000 A 
ATOM     27  C   UNL     1      46.460   4.080  13.086  0.00  0.00    +0.000 A 
ATOM     28  S   UNL     1      45.016   3.334  12.561  0.00  0.00    +0.000 S 
ATOM     29  C   UNL     1      44.363   4.825  12.066  0.00  0.00    +0.000 A 
ATOM     30  N   UNL     1      43.081   4.917  11.620  0.00  0.00    +0.000 NA
ATOM     31  C   UNL     1      42.711   6.113  11.301  0.00  0.00    +0.000 A 
ATOM     32  N   UNL     1      43.520   7.219  11.350  0.00  0.00    +0.000 N 
ATOM     33  C   UNL     1      44.834   7.166  11.751  0.00  0.00    +0.000 A 
ATOM     34  O   UNL     1      45.557   8.155  11.697  0.00  0.00    +0.000 OA
ATOM     35  C   UNL     1      45.273   5.859  12.199  0.00  0.00    +0.000 A 
ATOM     36  H   UNL     1      43.186   8.118  11.036  0.00  0.00    +0.000 HD
ENDBRANCH  23  26
ENDBRANCH  21  22
ENDBRANCH   4  21
TORSDOF 8
ENDMDL
MODEL 9
REMARK VINA RESULT:    -5.916      4.103      6.613
REMARK INTER + INTRA:          -9.325
REMARK INTER:                  -8.292
REMARK INTRA:                  -1.033
REMARK UNBOUND:                -0.814
REMARK  Name = 
REMARK  8 active torsions:
REMARK  status: ('A' for Active; 'I' for Inactive)
REMARK    1  A    between atoms: N_1  and  C_2
REMARK    2  A    between atoms: C_2  and  C_3
REMARK    3  A    between atoms: C_6  and  C_7
REMARK    4  A    between atoms: N_9  and  C_10
REMARK    5  A    between atoms: C_10  and  C_11
REMARK    6  A    between atoms: C_14  and  C_15
REMARK    7  A    between atoms: C_15  and  N_16
REMARK    8  A    between atoms: C_17  and  C_19
REMARK                            x       y       z     vdW  Elec       q    Type
REMARK                         _______ _______ _______ _____ _____    ______ ____
ROOT
ATOM      1  C   UNL     1      47.591   4.426  15.814  0.00  0.00    +0.000 A 
ATOM      2  C   UNL     1      48.263   5.629  16.069  0.00  0.00    +0.000 A 
ATOM      3  C   UNL     1      49.052   5.776  17.217  0.00  0.00    +0.000 A 
ATOM      4  C   UNL     1      49.203   4.716  18.121  0.00  0.00    +0.000 A 
ATOM      5  C   UNL     1      48.523   3.517  17.870  0.00  0.00    +0.000 A 
ATOM      6  C   UNL     1      47.734   3.370  16.724  0.00  0.00    +0.000 A 
ENDROOT
BRANCH   1   7
ATOM      7  C   UNL     1      46.770   4.252  14.562  0.00  0.00    +0.000 C 
BRANCH   7  10
ATOM      8  C   UNL     1      45.835   5.669  12.760  0.00  0.00    +0.000 C 
ATOM      9  O   UNL     1      45.653   4.698  12.033  0.00  0.00    +0.000 OA
ATOM     10  N   UNL     1      46.378   5.533  14.024  0.00  0.00    +0.000 N 
ATOM     11  H   UNL     1      46.512   6.363  14.583  0.00  0.00    +0.000 HD
BRANCH   8  15
ATOM     12  C   UNL     1      44.502   9.084  11.386  0.00  0.00    +0.000 A 
ATOM     13  C   UNL     1      45.586   9.369  12.192  0.00  0.00    +0.000 A 
ATOM     14  C   UNL     1      46.168   8.195  12.754  0.00  0.00    +0.000 A 
ATOM     15  C   UNL     1      45.513   7.038  12.369  0.00  0.00    +0.000 A 
ATOM     16  S   UNL     1      44.204   7.402  11.322  0.00  0.00    +0.000 S 
BRANCH  12  17
ATOM     17  C   UNL     1      43.622  10.033  10.632  0.00  0.00    +0.000 C 
BRANCH  17  18
ATOM     18  N   UNL     1      42.258   9.992  11.148  0.00  0.00    +0.000 NA
ATOM     19  H   UNL     1      41.668  10.586  10.569  0.00  0.00    +0.000 HD
ATOM     20  H   UNL     1      42.249  10.403  12.081  0.00  0.00    +0.000 HD
ENDBRANCH  17  18
ENDBRANCH  12  17
ENDBRANCH   8  15
ENDBRANCH   7  10
ENDBRANCH   1   7
BRANCH   4  21
ATOM     21  C   UNL     1      50.058   4.866  19.353  0.00  0.00    +0.000 C 
BRANCH  21  22
ATOM     22  N   UNL     1      51.171   3.949  19.339  0.00  0.00    +0.000 N 
ATOM     23  C   UNL     1      52.434   4.382  19.023  0.00  0.00    +0.000 C 
ATOM     24  O   UNL     1      52.649   5.514  18.597  0.00  0.00    +0.000 OA
ATOM     25  H   UNL     1      51.055   3.081  19.852  0.00  0.00    +0.000 HD
BRANCH  23  26
ATOM     26  C   UNL     1      53.526   3.419  19.207  0.00  0.00    +0.000 A 
ATOM     27  C   UNL     1      54.646   3.768  19.951  0.00  0.00    +0.000 A 
ATOM     28  S   UNL     1      55.775   2.499  20.118  0.00  0.00    +0.000 S 
ATOM     29  C   UNL     1      54.767   1.419  19.272  0.00  0.00    +0.000 A 
ATOM     30  N   UNL     1      55.091   0.103  19.153  0.00  0.00    +0.000 NA
ATOM     31  C   UNL     1      54.224  -0.602  18.506  0.00  0.00    +0.000 A 
ATOM     32  N   UNL     1      53.082  -0.104  17.933  0.00  0.00    +0.000 N 
ATOM     33  C   UNL     1      52.738   1.226  17.989  0.00  0.00    +0.000 A 
ATOM     34  O   UNL     1      51.759   1.656  17.391  0.00  0.00    +0.000 OA
ATOM     35  C   UNL     1      53.638   2.046  18.776  0.00  0.00    +0.000 A 
ATOM     36  H   UNL     1      52.472  -0.699  17.395  0.00  0.00    +0.000 HD
ENDBRANCH  23  26
ENDBRANCH  21  22
ENDBRANCH   4  21
TORSDOF 8
ENDMDL
