MODEL 1
REMARK VINA RESULT:    -8.628      0.000      0.000
REMARK INTER + INTRA:         -13.196
REMARK INTER:                 -12.158
REMARK INTRA:                  -1.038
REMARK UNBOUND:                -1.038
REMARK  Name = 
REMARK  8 active torsions:
REMARK  status: ('A' for Active; 'I' for Inactive)
REMARK    1  A    between atoms: C_1  and  N_2
REMARK    2  A    between atoms: N_2  and  C_3
REMARK    3  A    between atoms: N_2  and  C_17
REMARK    4  A    between atoms: C_3  and  N_4
REMARK    5  A    between atoms: C_5  and  C_7
REMARK    6  A    between atoms: C_20  and  C_21
REMARK    7  A    between atoms: C_21  and  N_22
REMARK    8  A    between atoms: C_23  and  C_25
REMARK                            x       y       z     vdW  Elec       q    Type
REMARK                         _______ _______ _______ _____ _____    ______ ____
ROOT
ATOM      1  C   UNL     1      48.301   6.480  14.374  0.00  0.00    +0.000 C 
ATOM      2  N   UNL     1      47.132   5.606  14.409  0.00  0.00    +0.000 N 
ENDROOT
BRANCH   2   3
ATOM      3  C   UNL     1      46.453   5.324  13.221  0.00  0.00    +0.000 A 
ATOM      4  C   UNL     1      45.623   4.198  13.063  0.00  0.00    +0.000 A 
ATOM      5  C   UNL     1      44.953   3.914  11.858  0.00  0.00    +0.000 A 
ATOM      6  C   UNL     1      45.101   4.749  10.750  0.00  0.00    +0.000 A 
ATOM      7  C   UNL     1      45.908   5.879  10.885  0.00  0.00    +0.000 A 
ATOM      8  C   UNL     1      46.584   6.140  12.088  0.00  0.00    +0.000 A 
BRANCH   6   9
ATOM      9  C   UNL     1      44.448   4.446   9.430  0.00  0.00    +0.000 C 
BRANCH   9  10
ATOM     10  N   UNL     1      45.396   4.026   8.427  0.00  0.00    +0.000 N 
ATOM     11  C   UNL     1      45.721   2.699   8.265  0.00  0.00    +0.000 C 
ATOM     12  O   UNL     1      45.246   1.812   8.972  0.00  0.00    +0.000 OA
ATOM     13  H   UNL     1      45.752   4.718   7.784  0.00  0.00    +0.000 HD
BRANCH  11  14
ATOM     14  C   UNL     1      46.651   2.416   7.205  0.00  0.00    +0.000 A 
ATOM     15  C   UNL     1      47.612   1.436   7.041  0.00  0.00    +0.000 A 
ATOM     16  N   UNL     1      48.275   1.580   5.848  0.00  0.00    +0.000 NA
ATOM     17  C   UNL     1      47.729   2.625   5.274  0.00  0.00    +0.000 A 
ATOM     18  N   UNL     1      46.737   3.156   6.046  0.00  0.00    +0.000 N 
ATOM     19  H   UNL     1      46.158   3.954   5.819  0.00  0.00    +0.000 HD
ENDBRANCH  11  14
ENDBRANCH   9  10
ENDBRANCH   6   9
ENDBRANCH   2   3
BRANCH   2  20
ATOM     20  C   UNL     1      47.009   4.704  15.550  0.00  0.00    +0.000 C 
BRANCH  20  21
ATOM     21  N   UNL     1      48.325   4.489  16.065  0.00  0.00    +0.000 N 
ATOM     22  C   UNL     1      48.541   4.511  17.420  0.00  0.00    +0.000 C 
ATOM     23  O   UNL     1      47.625   4.694  18.218  0.00  0.00    +0.000 OA
ATOM     24  H   UNL     1      49.086   4.693  15.425  0.00  0.00    +0.000 HD
BRANCH  22  25
ATOM     25  C   UNL     1      49.905   4.228  17.887  0.00  0.00    +0.000 A 
ATOM     26  C   UNL     1      50.580   5.169  18.655  0.00  0.00    +0.000 A 
ATOM     27  S   UNL     1      52.121   4.653  19.173  0.00  0.00    +0.000 S 
ATOM     28  C   UNL     1      51.971   3.183  18.331  0.00  0.00    +0.000 A 
ATOM     29  N   UNL     1      52.978   2.269  18.330  0.00  0.00    +0.000 NA
ATOM     30  C   UNL     1      52.743   1.220  17.617  0.00  0.00    +0.000 A 
ATOM     31  N   UNL     1      51.585   0.994  16.909  0.00  0.00    +0.000 N 
ATOM     32  C   UNL     1      50.528   1.871  16.912  0.00  0.00    +0.000 A 
ATOM     33  O   UNL     1      49.496   1.629  16.309  0.00  0.00    +0.000 OA
ATOM     34  C   UNL     1      50.750   3.079  17.687  0.00  0.00    +0.000 A 
ATOM     35  H   UNL     1      51.463   0.151  16.373  0.00  0.00    +0.000 HD
ENDBRANCH  22  25
ENDBRANCH  20  21
ENDBRANCH   2  20
TORSDOF 7
ENDMDL
MODEL 2
REMARK VINA RESULT:    -8.359      2.510      3.305
REMARK INTER + INTRA:         -12.818
REMARK INTER:                 -11.639
REMARK INTRA:                  -1.179
REMARK UNBOUND:                -1.038
REMARK  Name = 
REMARK  8 active torsions:
REMARK  status: ('A' for Active; 'I' for Inactive)
REMARK    1  A    between atoms: C_1  and  N_2
REMARK    2  A    between atoms: N_2  and  C_3
REMARK    3  A    between atoms: N_2  and  C_17
REMARK    4  A    between atoms: C_3  and  N_4
REMARK    5  A    between atoms: C_5  and  C_7
REMARK    6  A    between atoms: C_20  and  C_21
REMARK    7  A    between atoms: C_21  and  N_22
REMARK    8  A    between atoms: C_23  and  C_25
REMARK                            x       y       z     vdW  Elec       q    Type
REMARK                         _______ _______ _______ _____ _____    ______ ____
ROOT
ATOM      1  C   UNL     1      45.081   9.602  12.517  0.00  0.00    +0.000 C 
ATOM      2  N   UNL     1      45.877   8.442  12.909  0.00  0.00    +0.000 N 
ENDROOT
BRANCH   2   3
ATOM      3  C   UNL     1      45.521   7.177  12.434  0.00  0.00    +0.000 A 
ATOM      4  C   UNL     1      46.237   6.511  11.421  0.00  0.00    +0.000 A 
ATOM      5  C   UNL     1      45.864   5.242  10.940  0.00  0.00    +0.000 A 
ATOM      6  C   UNL     1      44.741   4.592  11.450  0.00  0.00    +0.000 A 
ATOM      7  C   UNL     1      44.022   5.225  12.464  0.00  0.00    +0.000 A 
ATOM      8  C   UNL     1      44.395   6.498  12.922  0.00  0.00    +0.000 A 
BRANCH   6   9
ATOM      9  C   UNL     1      44.279   3.262  10.920  0.00  0.00    +0.000 C 
BRANCH   9  10
ATOM     10  N   UNL     1      45.228   2.669  10.010  0.00  0.00    +0.000 N 
ATOM     11  C   UNL     1      45.212   2.969   8.668  0.00  0.00    +0.000 C 
ATOM     12  O   UNL     1      44.385   3.731   8.171  0.00  0.00    +0.000 OA
ATOM     13  H   UNL     1      45.963   2.094  10.394  0.00  0.00    +0.000 HD
BRANCH  11  14
ATOM     14  C   UNL     1      46.236   2.335   7.881  0.00  0.00    +0.000 A 
ATOM     15  C   UNL     1      46.647   1.021   7.763  0.00  0.00    +0.000 A 
ATOM     16  N   UNL     1      47.690   0.899   6.881  0.00  0.00    +0.000 NA
ATOM     17  C   UNL     1      47.919   2.116   6.448  0.00  0.00    +0.000 A 
ATOM     18  N   UNL     1      47.061   3.014   7.011  0.00  0.00    +0.000 N 
ATOM     19  H   UNL     1      47.026   4.010   6.831  0.00  0.00    +0.000 HD
ENDBRANCH  11  14
ENDBRANCH   9  10
ENDBRANCH   6   9
ENDBRANCH   2   3
BRANCH   2  20
ATOM     20  C   UNL     1      47.242   8.694  13.360  0.00  0.00    +0.000 C 
BRANCH  20  21
ATOM     21  N   UNL     1      47.470   7.868  14.504  0.00  0.00    +0.000 N 
ATOM     22  C   UNL     1      48.712   7.325  14.719  0.00  0.00    +0.000 C 
ATOM     23  O   UNL     1      49.654   7.543  13.959  0.00  0.00    +0.000 OA
ATOM     24  H   UNL     1      46.647   7.425  14.897  0.00  0.00    +0.000 HD
BRANCH  22  25
ATOM     25  C   UNL     1      48.896   6.533  15.943  0.00  0.00    +0.000 A 
ATOM     26  C   UNL     1      49.808   6.951  16.904  0.00  0.00    +0.000 A 
ATOM     27  S   UNL     1      49.846   5.959  18.291  0.00  0.00    +0.000 S 
ATOM     28  C   UNL     1      48.696   4.896  17.627  0.00  0.00    +0.000 A 
ATOM     29  N   UNL     1      48.295   3.785  18.302  0.00  0.00    +0.000 NA
ATOM     30  C   UNL     1      47.451   3.050  17.660  0.00  0.00    +0.000 A 
ATOM     31  N   UNL     1      46.960   3.327  16.406  0.00  0.00    +0.000 N 
ATOM     32  C   UNL     1      47.308   4.455  15.704  0.00  0.00    +0.000 A 
ATOM     33  O   UNL     1      46.828   4.700  14.609  0.00  0.00    +0.000 OA
ATOM     34  C   UNL     1      48.271   5.309  16.375  0.00  0.00    +0.000 A 
ATOM     35  H   UNL     1      46.300   2.712  15.961  0.00  0.00    +0.000 HD
ENDBRANCH  22  25
ENDBRANCH  20  21
ENDBRANCH   2  20
TORSDOF 7
ENDMDL
MODEL 3
REMARK VINA RESULT:    -8.050      1.240      1.432
REMARK INTER + INTRA:         -12.382
REMARK INTER:                 -11.694
REMARK INTRA:                  -0.688
REMARK UNBOUND:                -1.038
REMARK  Name = 
REMARK  8 active torsions:
REMARK  status: ('A' for Active; 'I' for Inactive)
REMARK    1  A    between atoms: C_1  and  N_2
REMARK    2  A    between atoms: N_2  and  C_3
REMARK    3  A    between atoms: N_2  and  C_17
REMARK    4  A    between atoms: C_3  and  N_4
REMARK    5  A    between atoms: C_5  and  C_7
REMARK    6  A    between atoms: C_20  and  C_21
REMARK    7  A    between atoms: C_21  and  N_22
REMARK    8  A    between atoms: C_23  and  C_25
REMARK                            x       y       z     vdW  Elec       q    Type
REMARK                         _______ _______ _______ _____ _____    ______ ____
ROOT
ATOM      1  C   UNL     1      48.055   6.262  14.350  0.00  0.00    +0.000 C 
ATOM      2  N   UNL     1      46.972   5.283  14.397  0.00  0.00    +0.000 N 
ENDROOT
BRANCH   2   3
ATOM      3  C   UNL     1      46.259   4.996  13.231  0.00  0.00    +0.000 A 
ATOM      4  C   UNL     1      45.795   3.704  12.917  0.00  0.00    +0.000 A 
ATOM      5  C   UNL     1      45.089   3.421  11.733  0.00  0.00    +0.000 A 
ATOM      6  C   UNL     1      44.829   4.427  10.803  0.00  0.00    +0.000 A 
ATOM      7  C   UNL     1      45.267   5.719  11.097  0.00  0.00    +0.000 A 
ATOM      8  C   UNL     1      45.986   5.983  12.273  0.00  0.00    +0.000 A 
BRANCH   6   9
ATOM      9  C   UNL     1      44.129   4.150   9.501  0.00  0.00    +0.000 C 
BRANCH   9  10
ATOM     10  N   UNL     1      44.943   3.389   8.586  0.00  0.00    +0.000 N 
ATOM     11  C   UNL     1      46.027   3.955   7.957  0.00  0.00    +0.000 C 
ATOM     12  O   UNL     1      46.345   5.132   8.118  0.00  0.00    +0.000 OA
ATOM     13  H   UNL     1      44.754   2.403   8.483  0.00  0.00    +0.000 HD
BRANCH  11  14
ATOM     14  C   UNL     1      46.773   3.074   7.098  0.00  0.00    +0.000 A 
ATOM     15  C   UNL     1      47.272   1.797   7.274  0.00  0.00    +0.000 A 
ATOM     16  N   UNL     1      47.939   1.362   6.156  0.00  0.00    +0.000 NA
ATOM     17  C   UNL     1      47.848   2.347   5.295  0.00  0.00    +0.000 A 
ATOM     18  N   UNL     1      47.144   3.396   5.811  0.00  0.00    +0.000 N 
ATOM     19  H   UNL     1      46.926   4.265   5.340  0.00  0.00    +0.000 HD
ENDBRANCH  11  14
ENDBRANCH   9  10
ENDBRANCH   6   9
ENDBRANCH   2   3
BRANCH   2  20
ATOM     20  C   UNL     1      46.993   4.321  15.495  0.00  0.00    +0.000 C 
BRANCH  20  21
ATOM     21  N   UNL     1      48.119   4.637  16.315  0.00  0.00    +0.000 N 
ATOM     22  C   UNL     1      47.948   4.840  17.662  0.00  0.00    +0.000 C 
ATOM     23  O   UNL     1      46.846   4.740  18.197  0.00  0.00    +0.000 OA
ATOM     24  H   UNL     1      48.910   5.052  15.835  0.00  0.00    +0.000 HD
BRANCH  22  25
ATOM     25  C   UNL     1      49.154   5.106  18.459  0.00  0.00    +0.000 A 
ATOM     26  C   UNL     1      49.192   6.209  19.303  0.00  0.00    +0.000 A 
ATOM     27  S   UNL     1      50.634   6.331  20.206  0.00  0.00    +0.000 S 
ATOM     28  C   UNL     1      51.287   4.954  19.451  0.00  0.00    +0.000 A 
ATOM     29  N   UNL     1      52.540   4.517  19.750  0.00  0.00    +0.000 NA
ATOM     30  C   UNL     1      52.919   3.488  19.071  0.00  0.00    +0.000 A 
ATOM     31  N   UNL     1      52.156   2.846  18.124  0.00  0.00    +0.000 N 
ATOM     32  C   UNL     1      50.874   3.229  17.817  0.00  0.00    +0.000 A 
ATOM     33  O   UNL     1      50.202   2.619  17.001  0.00  0.00    +0.000 OA
ATOM     34  C   UNL     1      50.404   4.396  18.541  0.00  0.00    +0.000 A 
ATOM     35  H   UNL     1      52.512   2.044  17.630  0.00  0.00    +0.000 HD
ENDBRANCH  22  25
ENDBRANCH  20  21
ENDBRANCH   2  20
TORSDOF 7
ENDMDL
MODEL 4
REMARK VINA RESULT:    -7.642      2.522      3.212
REMARK INTER + INTRA:         -11.807
REMARK INTER:                 -10.803
REMARK INTRA:                  -1.004
REMARK UNBOUND:                -1.038
REMARK  Name = 
REMARK  8 active torsions:
REMARK  status: ('A' for Active; 'I' for Inactive)
REMARK    1  A    between atoms: C_1  and  N_2
REMARK    2  A    between atoms: N_2  and  C_3
REMARK    3  A    between atoms: N_2  and  C_17
REMARK    4  A    between atoms: C_3  and  N_4
REMARK    5  A    between atoms: C_5  and  C_7
REMARK    6  A    between atoms: C_20  and  C_21
REMARK    7  A    between atoms: C_21  and  N_22
REMARK    8  A    between atoms: C_23  and  C_25
REMARK                            x       y       z     vdW  Elec       q    Type
REMARK                         _______ _______ _______ _____ _____    ______ ____
ROOT
ATOM      1  C   UNL     1      47.171   8.964  13.564  0.00  0.00    +0.000 C 
ATOM      2  N   UNL     1      47.267   7.509  13.637  0.00  0.00    +0.000 N 
ENDROOT
BRANCH   2   3
ATOM      3  C   UNL     1      46.451   6.728  12.815  0.00  0.00    +0.000 A 
ATOM      4  C   UNL     1      46.437   5.321  12.865  0.00  0.00    +0.000 A 
ATOM      5  C   UNL     1      45.621   4.541  12.024  0.00  0.00    +0.000 A 
ATOM      6  C   UNL     1      44.789   5.147  11.082  0.00  0.00    +0.000 A 
ATOM      7  C   UNL     1      44.775   6.540  11.021  0.00  0.00    +0.000 A 
ATOM      8  C   UNL     1      45.607   7.305  11.854  0.00  0.00    +0.000 A 
BRANCH   6   9
ATOM      9  C   UNL     1      43.948   4.345  10.128  0.00  0.00    +0.000 C 
BRANCH   9  10
ATOM     10  N   UNL     1      44.707   3.329   9.440  0.00  0.00    +0.000 N 
ATOM     11  C   UNL     1      45.585   3.656   8.432  0.00  0.00    +0.000 C 
ATOM     12  O   UNL     1      45.751   4.813   8.050  0.00  0.00    +0.000 OA
ATOM     13  H   UNL     1      44.647   2.379   9.773  0.00  0.00    +0.000 HD
BRANCH  11  14
ATOM     14  C   UNL     1      46.303   2.551   7.856  0.00  0.00    +0.000 A 
ATOM     15  C   UNL     1      47.292   2.477   6.893  0.00  0.00    +0.000 A 
ATOM     16  N   UNL     1      47.667   1.178   6.659  0.00  0.00    +0.000 NA
ATOM     17  C   UNL     1      46.931   0.456   7.469  0.00  0.00    +0.000 A 
ATOM     18  N   UNL     1      46.103   1.237   8.220  0.00  0.00    +0.000 N 
ATOM     19  H   UNL     1      45.450   0.920   8.925  0.00  0.00    +0.000 HD
ENDBRANCH  11  14
ENDBRANCH   9  10
ENDBRANCH   6   9
ENDBRANCH   2   3
BRANCH   2  20
ATOM     20  C   UNL     1      48.500   6.950  14.183  0.00  0.00    +0.000 C 
BRANCH  20  21
ATOM     21  N   UNL     1      48.292   6.749  15.582  0.00  0.00    +0.000 N 
ATOM     22  C   UNL     1      48.943   7.547  16.491  0.00  0.00    +0.000 C 
ATOM     23  O   UNL     1      49.694   8.452  16.136  0.00  0.00    +0.000 OA
ATOM     24  H   UNL     1      47.978   5.824  15.852  0.00  0.00    +0.000 HD
BRANCH  22  25
ATOM     25  C   UNL     1      48.643   7.327  17.913  0.00  0.00    +0.000 A 
ATOM     26  C   UNL     1      48.204   8.387  18.696  0.00  0.00    +0.000 A 
ATOM     27  S   UNL     1      47.834   7.945  20.301  0.00  0.00    +0.000 S 
ATOM     28  C   UNL     1      48.313   6.337  20.026  0.00  0.00    +0.000 A 
ATOM     29  N   UNL     1      48.277   5.413  21.024  0.00  0.00    +0.000 NA
ATOM     30  C   UNL     1      48.708   4.246  20.683  0.00  0.00    +0.000 A 
ATOM     31  N   UNL     1      49.165   3.912  19.429  0.00  0.00    +0.000 N 
ATOM     32  C   UNL     1      49.184   4.801  18.383  0.00  0.00    +0.000 A 
ATOM     33  O   UNL     1      49.556   4.470  17.269  0.00  0.00    +0.000 OA
ATOM     34  C   UNL     1      48.725   6.137  18.719  0.00  0.00    +0.000 A 
ATOM     35  H   UNL     1      49.486   2.980  19.228  0.00  0.00    +0.000 HD
ENDBRANCH  22  25
ENDBRANCH  20  21
ENDBRANCH   2  20
TORSDOF 7
ENDMDL
MODEL 5
REMARK VINA RESULT:    -7.507      1.580      2.503
REMARK INTER + INTRA:         -11.618
REMARK INTER:                 -11.224
REMARK INTRA:                  -0.394
REMARK UNBOUND:                -1.038
REMARK  Name = 
REMARK  8 active torsions:
REMARK  status: ('A' for Active; 'I' for Inactive)
REMARK    1  A    between atoms: C_1  and  N_2
REMARK    2  A    between atoms: N_2  and  C_3
REMARK    3  A    between atoms: N_2  and  C_17
REMARK    4  A    between atoms: C_3  and  N_4
REMARK    5  A    between atoms: C_5  and  C_7
REMARK    6  A    between atoms: C_20  and  C_21
REMARK    7  A    between atoms: C_21  and  N_22
REMARK    8  A    between atoms: C_23  and  C_25
REMARK                            x       y       z     vdW  Elec       q    Type
REMARK                         _______ _______ _______ _____ _____    ______ ____
ROOT
ATOM      1  C   UNL     1      48.220   5.882  15.302  0.00  0.00    +0.000 C 
ATOM      2  N   UNL     1      47.182   4.864  15.159  0.00  0.00    +0.000 N 
ENDROOT
BRANCH   2   3
ATOM      3  C   UNL     1      46.501   4.749  13.944  0.00  0.00    +0.000 A 
ATOM      4  C   UNL     1      46.089   5.864  13.190  0.00  0.00    +0.000 A 
ATOM      5  C   UNL     1      45.392   5.739  11.973  0.00  0.00    +0.000 A 
ATOM      6  C   UNL     1      45.067   4.480  11.468  0.00  0.00    +0.000 A 
ATOM      7  C   UNL     1      45.476   3.359  12.190  0.00  0.00    +0.000 A 
ATOM      8  C   UNL     1      46.155   3.499  13.410  0.00  0.00    +0.000 A 
BRANCH   6   9
ATOM      9  C   UNL     1      44.273   4.310  10.202  0.00  0.00    +0.000 C 
BRANCH   9  10
ATOM     10  N   UNL     1      44.961   3.506   9.221  0.00  0.00    +0.000 N 
ATOM     11  C   UNL     1      45.860   4.067   8.344  0.00  0.00    +0.000 C 
ATOM     12  O   UNL     1      46.107   5.272   8.331  0.00  0.00    +0.000 OA
ATOM     13  H   UNL     1      44.836   2.505   9.249  0.00  0.00    +0.000 HD
BRANCH  11  14
ATOM     14  C   UNL     1      46.501   3.147   7.443  0.00  0.00    +0.000 A 
ATOM     15  C   UNL     1      46.775   1.795   7.524  0.00  0.00    +0.000 A 
ATOM     16  N   UNL     1      47.426   1.347   6.403  0.00  0.00    +0.000 NA
ATOM     17  C   UNL     1      47.546   2.400   5.631  0.00  0.00    +0.000 A 
ATOM     18  N   UNL     1      46.993   3.506   6.207  0.00  0.00    +0.000 N 
ATOM     19  H   UNL     1      46.947   4.435   5.808  0.00  0.00    +0.000 HD
ENDBRANCH  11  14
ENDBRANCH   9  10
ENDBRANCH   6   9
ENDBRANCH   2   3
BRANCH   2  20
ATOM     20  C   UNL     1      47.228   3.732  16.079  0.00  0.00    +0.000 C 
BRANCH  20  21
ATOM     21  N   UNL     1      48.454   3.827  16.807  0.00  0.00    +0.000 N 
ATOM     22  C   UNL     1      49.334   2.772  16.804  0.00  0.00    +0.000 C 
ATOM     23  O   UNL     1      49.107   1.742  16.173  0.00  0.00    +0.000 OA
ATOM     24  H   UNL     1      48.461   4.492  17.572  0.00  0.00    +0.000 HD
BRANCH  22  25
ATOM     25  C   UNL     1      50.601   2.954  17.525  0.00  0.00    +0.000 A 
ATOM     26  C   UNL     1      51.617   2.018  17.378  0.00  0.00    +0.000 A 
ATOM     27  S   UNL     1      53.043   2.415  18.225  0.00  0.00    +0.000 S 
ATOM     28  C   UNL     1      52.330   3.816  18.874  0.00  0.00    +0.000 A 
ATOM     29  N   UNL     1      53.016   4.619  19.732  0.00  0.00    +0.000 NA
ATOM     30  C   UNL     1      52.337   5.622  20.177  0.00  0.00    +0.000 A 
ATOM     31  N   UNL     1      51.035   5.904  19.836  0.00  0.00    +0.000 N 
ATOM     32  C   UNL     1      50.318   5.144  18.946  0.00  0.00    +0.000 A 
ATOM     33  O   UNL     1      49.177   5.437  18.628  0.00  0.00    +0.000 OA
ATOM     34  C   UNL     1      51.031   3.990  18.429  0.00  0.00    +0.000 A 
ATOM     35  H   UNL     1      50.563   6.707  20.218  0.00  0.00    +0.000 HD
ENDBRANCH  22  25
ENDBRANCH  20  21
ENDBRANCH   2  20
TORSDOF 7
ENDMDL
MODEL 6
REMARK VINA RESULT:    -7.457      2.149      3.258
REMARK INTER + INTRA:         -11.547
REMARK INTER:                 -10.693
REMARK INTRA:                  -0.854
REMARK UNBOUND:                -1.038
REMARK  Name = 
REMARK  8 active torsions:
REMARK  status: ('A' for Active; 'I' for Inactive)
REMARK    1  A    between atoms: C_1  and  N_2
REMARK    2  A    between atoms: N_2  and  C_3
REMARK    3  A    between atoms: N_2  and  C_17
REMARK    4  A    between atoms: C_3  and  N_4
REMARK    5  A    between atoms: C_5  and  C_7
REMARK    6  A    between atoms: C_20  and  C_21
REMARK    7  A    between atoms: C_21  and  N_22
REMARK    8  A    between atoms: C_23  and  C_25
REMARK                            x       y       z     vdW  Elec       q    Type
REMARK                         _______ _______ _______ _____ _____    ______ ____
ROOT
ATOM      1  C   UNL     1      48.041   6.641  14.391  0.00  0.00    +0.000 C 
ATOM      2  N   UNL     1      47.067   5.552  14.373  0.00  0.00    +0.000 N 
ENDROOT
BRANCH   2   3
ATOM      3  C   UNL     1      46.386   5.265  13.188  0.00  0.00    +0.000 A 
ATOM      4  C   UNL     1      45.587   4.117  13.024  0.00  0.00    +0.000 A 
ATOM      5  C   UNL     1      44.914   3.828  11.822  0.00  0.00    +0.000 A 
ATOM      6  C   UNL     1      45.028   4.679  10.723  0.00  0.00    +0.000 A 
ATOM      7  C   UNL     1      45.804   5.830  10.863  0.00  0.00    +0.000 A 
ATOM      8  C   UNL     1      46.483   6.096  12.062  0.00  0.00    +0.000 A 
BRANCH   6   9
ATOM      9  C   UNL     1      44.371   4.373   9.405  0.00  0.00    +0.000 C 
BRANCH   9  10
ATOM     10  N   UNL     1      45.319   3.976   8.393  0.00  0.00    +0.000 N 
ATOM     11  C   UNL     1      45.722   2.667   8.269  0.00  0.00    +0.000 C 
ATOM     12  O   UNL     1      45.321   1.778   9.018  0.00  0.00    +0.000 OA
ATOM     13  H   UNL     1      45.616   4.665   7.718  0.00  0.00    +0.000 HD
BRANCH  11  14
ATOM     14  C   UNL     1      46.643   2.403   7.196  0.00  0.00    +0.000 A 
ATOM     15  C   UNL     1      47.593   1.418   6.998  0.00  0.00    +0.000 A 
ATOM     16  N   UNL     1      48.249   1.588   5.806  0.00  0.00    +0.000 NA
ATOM     17  C   UNL     1      47.711   2.654   5.264  0.00  0.00    +0.000 A 
ATOM     18  N   UNL     1      46.730   3.173   6.057  0.00  0.00    +0.000 N 
ATOM     19  H   UNL     1      46.158   3.984   5.856  0.00  0.00    +0.000 HD
ENDBRANCH  11  14
ENDBRANCH   9  10
ENDBRANCH   6   9
ENDBRANCH   2   3
BRANCH   2  20
ATOM     20  C   UNL     1      47.191   4.532  15.409  0.00  0.00    +0.000 C 
BRANCH  20  21
ATOM     21  N   UNL     1      48.175   4.988  16.339  0.00  0.00    +0.000 N 
ATOM     22  C   UNL     1      47.848   5.131  17.665  0.00  0.00    +0.000 C 
ATOM     23  O   UNL     1      46.726   4.859  18.087  0.00  0.00    +0.000 OA
ATOM     24  H   UNL     1      48.938   5.525  15.943  0.00  0.00    +0.000 HD
BRANCH  22  25
ATOM     25  C   UNL     1      48.919   5.550  18.579  0.00  0.00    +0.000 A 
ATOM     26  C   UNL     1      49.676   4.590  19.239  0.00  0.00    +0.000 A 
ATOM     27  S   UNL     1      50.921   5.243  20.204  0.00  0.00    +0.000 S 
ATOM     28  C   UNL     1      50.451   6.833  19.829  0.00  0.00    +0.000 A 
ATOM     29  N   UNL     1      51.098   7.902  20.366  0.00  0.00    +0.000 NA
ATOM     30  C   UNL     1      50.608   9.046  20.027  0.00  0.00    +0.000 A 
ATOM     31  N   UNL     1      49.532   9.223  19.189  0.00  0.00    +0.000 N 
ATOM     32  C   UNL     1      48.872   8.175  18.594  0.00  0.00    +0.000 A 
ATOM     33  O   UNL     1      47.945   8.359  17.822  0.00  0.00    +0.000 OA
ATOM     34  C   UNL     1      49.374   6.863  18.959  0.00  0.00    +0.000 A 
ATOM     35  H   UNL     1      49.200  10.145  18.961  0.00  0.00    +0.000 HD
ENDBRANCH  22  25
ENDBRANCH  20  21
ENDBRANCH   2  20
TORSDOF 7
ENDMDL
MODEL 7
REMARK VINA RESULT:    -7.324      2.968      4.020
REMARK INTER + INTRA:         -11.359
REMARK INTER:                 -10.644
REMARK INTRA:                  -0.715
REMARK UNBOUND:                -1.038
REMARK  Name = 
REMARK  8 active torsions:
REMARK  status: ('A' for Active; 'I' for Inactive)
REMARK    1  A    between atoms: C_1  and  N_2
REMARK    2  A    between atoms: N_2  and  C_3
REMARK    3  A    between atoms: N_2  and  C_17
REMARK    4  A    between atoms: C_3  and  N_4
REMARK    5  A    between atoms: C_5  and  C_7
REMARK    6  A    between atoms: C_20  and  C_21
REMARK    7  A    between atoms: C_21  and  N_22
REMARK    8  A    between atoms: C_23  and  C_25
REMARK                            x       y       z     vdW  Elec       q    Type
REMARK                         _______ _______ _______ _____ _____    ______ ____
ROOT
ATOM      1  C   UNL     1      46.232   9.345  12.908  0.00  0.00    +0.000 C 
ATOM      2  N   UNL     1      46.696   8.015  13.295  0.00  0.00    +0.000 N 
ENDROOT
BRANCH   2   3
ATOM      3  C   UNL     1      46.097   6.889  12.726  0.00  0.00    +0.000 A 
ATOM      4  C   UNL     1      45.015   6.971  11.828  0.00  0.00    +0.000 A 
ATOM      5  C   UNL     1      44.408   5.830  11.269  0.00  0.00    +0.000 A 
ATOM      6  C   UNL     1      44.857   4.552  11.601  0.00  0.00    +0.000 A 
ATOM      7  C   UNL     1      45.936   4.445  12.479  0.00  0.00    +0.000 A 
ATOM      8  C   UNL     1      46.520   5.591  13.042  0.00  0.00    +0.000 A 
BRANCH   6   9
ATOM      9  C   UNL     1      44.196   3.311  11.069  0.00  0.00    +0.000 C 
BRANCH   9  10
ATOM     10  N   UNL     1      45.029   2.597  10.133  0.00  0.00    +0.000 N 
ATOM     11  C   UNL     1      45.151   3.013   8.827  0.00  0.00    +0.000 C 
ATOM     12  O   UNL     1      44.546   3.988   8.385  0.00  0.00    +0.000 OA
ATOM     13  H   UNL     1      45.593   1.835  10.478  0.00  0.00    +0.000 HD
BRANCH  11  14
ATOM     14  C   UNL     1      46.042   2.232   8.011  0.00  0.00    +0.000 A 
ATOM     15  C   UNL     1      46.328   0.881   7.966  0.00  0.00    +0.000 A 
ATOM     16  N   UNL     1      47.272   0.600   7.011  0.00  0.00    +0.000 NA
ATOM     17  C   UNL     1      47.562   1.755   6.462  0.00  0.00    +0.000 A 
ATOM     18  N   UNL     1      46.837   2.767   7.021  0.00  0.00    +0.000 N 
ATOM     19  H   UNL     1      46.869   3.746   6.763  0.00  0.00    +0.000 HD
ENDBRANCH  11  14
ENDBRANCH   9  10
ENDBRANCH   6   9
ENDBRANCH   2   3
BRANCH   2  20
ATOM     20  C   UNL     1      48.037   7.918  13.863  0.00  0.00    +0.000 C 
BRANCH  20  21
ATOM     21  N   UNL     1      47.905   7.352  15.168  0.00  0.00    +0.000 N 
ATOM     22  C   UNL     1      48.977   6.723  15.752  0.00  0.00    +0.000 C 
ATOM     23  O   UNL     1      50.067   6.646  15.189  0.00  0.00    +0.000 OA
ATOM     24  H   UNL     1      46.961   7.113  15.450  0.00  0.00    +0.000 HD
BRANCH  22  25
ATOM     25  C   UNL     1      48.793   6.211  17.117  0.00  0.00    +0.000 A 
ATOM     26  C   UNL     1      49.053   4.874  17.392  0.00  0.00    +0.000 A 
ATOM     27  S   UNL     1      48.858   4.462  19.035  0.00  0.00    +0.000 S 
ATOM     28  C   UNL     1      48.353   6.038  19.426  0.00  0.00    +0.000 A 
ATOM     29  N   UNL     1      47.992   6.365  20.696  0.00  0.00    +0.000 NA
ATOM     30  C   UNL     1      47.591   7.584  20.837  0.00  0.00    +0.000 A 
ATOM     31  N   UNL     1      47.526   8.512  19.825  0.00  0.00    +0.000 N 
ATOM     32  C   UNL     1      47.915   8.238  18.537  0.00  0.00    +0.000 A 
ATOM     33  O   UNL     1      47.887   9.090  17.665  0.00  0.00    +0.000 OA
ATOM     34  C   UNL     1      48.359   6.872  18.320  0.00  0.00    +0.000 A 
ATOM     35  H   UNL     1      47.206   9.449  20.003  0.00  0.00    +0.000 HD
ENDBRANCH  22  25
ENDBRANCH  20  21
ENDBRANCH   2  20
TORSDOF 7
ENDMDL
MODEL 8
REMARK VINA RESULT:    -7.058      4.089      8.714
REMARK INTER + INTRA:         -10.985
REMARK INTER:                  -9.713
REMARK INTRA:                  -1.272
REMARK UNBOUND:                -1.038
REMARK  Name = 
REMARK  8 active torsions:
REMARK  status: ('A' for Active; 'I' for Inactive)
REMARK    1  A    between atoms: C_1  and  N_2
REMARK    2  A    between atoms: N_2  and  C_3
REMARK    3  A    between atoms: N_2  and  C_17
REMARK    4  A    between atoms: C_3  and  N_4
REMARK    5  A    between atoms: C_5  and  C_7
REMARK    6  A    between atoms: C_20  and  C_21
REMARK    7  A    between atoms: C_21  and  N_22
REMARK    8  A    between atoms: C_23  and  C_25
REMARK                            x       y       z     vdW  Elec       q    Type
REMARK                         _______ _______ _______ _____ _____    ______ ____
ROOT
ATOM      1  C   UNL     1      47.707   9.758  18.596  0.00  0.00    +0.000 C 
ATOM      2  N   UNL     1      48.419   8.968  17.595  0.00  0.00    +0.000 N 
ENDROOT
BRANCH   2   3
ATOM      3  C   UNL     1      48.477   7.579  17.735  0.00  0.00    +0.000 A 
ATOM      4  C   UNL     1      49.548   6.806  17.248  0.00  0.00    +0.000 A 
ATOM      5  C   UNL     1      49.592   5.405  17.382  0.00  0.00    +0.000 A 
ATOM      6  C   UNL     1      48.550   4.718  18.004  0.00  0.00    +0.000 A 
ATOM      7  C   UNL     1      47.483   5.463  18.507  0.00  0.00    +0.000 A 
ATOM      8  C   UNL     1      47.444   6.858  18.351  0.00  0.00    +0.000 A 
BRANCH   6   9
ATOM      9  C   UNL     1      48.535   3.218  18.113  0.00  0.00    +0.000 C 
BRANCH   9  10
ATOM     10  N   UNL     1      49.856   2.663  18.283  0.00  0.00    +0.000 N 
ATOM     11  C   UNL     1      50.463   1.951  17.275  0.00  0.00    +0.000 C 
ATOM     12  O   UNL     1      49.914   1.730  16.197  0.00  0.00    +0.000 OA
ATOM     13  H   UNL     1      50.363   2.883  19.127  0.00  0.00    +0.000 HD
BRANCH  11  14
ATOM     14  C   UNL     1      51.793   1.484  17.564  0.00  0.00    +0.000 A 
ATOM     15  C   UNL     1      53.019   2.121  17.613  0.00  0.00    +0.000 A 
ATOM     16  N   UNL     1      54.027   1.244  17.925  0.00  0.00    +0.000 NA
ATOM     17  C   UNL     1      53.438   0.082  18.078  0.00  0.00    +0.000 A 
ATOM     18  N   UNL     1      52.091   0.177  17.883  0.00  0.00    +0.000 N 
ATOM     19  H   UNL     1      51.417  -0.574  17.957  0.00  0.00    +0.000 HD
ENDBRANCH  11  14
ENDBRANCH   9  10
ENDBRANCH   6   9
ENDBRANCH   2   3
BRANCH   2  20
ATOM     20  C   UNL     1      48.615   9.577  16.284  0.00  0.00    +0.000 C 
BRANCH  20  21
ATOM     21  N   UNL     1      47.602   9.059  15.419  0.00  0.00    +0.000 N 
ATOM     22  C   UNL     1      47.956   8.419  14.257  0.00  0.00    +0.000 C 
ATOM     23  O   UNL     1      49.133   8.258  13.941  0.00  0.00    +0.000 OA
ATOM     24  H   UNL     1      46.689   9.494  15.502  0.00  0.00    +0.000 HD
BRANCH  22  25
ATOM     25  C   UNL     1      46.870   7.860  13.441  0.00  0.00    +0.000 A 
ATOM     26  C   UNL     1      46.065   8.709  12.692  0.00  0.00    +0.000 A 
ATOM     27  S   UNL     1      44.901   7.894  11.748  0.00  0.00    +0.000 S 
ATOM     28  C   UNL     1      45.385   6.383  12.360  0.00  0.00    +0.000 A 
ATOM     29  N   UNL     1      44.758   5.238  11.978  0.00  0.00    +0.000 NA
ATOM     30  C   UNL     1      45.203   4.172  12.553  0.00  0.00    +0.000 A 
ATOM     31  N   UNL     1      46.226   4.142  13.471  0.00  0.00    +0.000 N 
ATOM     32  C   UNL     1      46.912   5.268  13.857  0.00  0.00    +0.000 A 
ATOM     33  O   UNL     1      47.844   5.211  14.643  0.00  0.00    +0.000 OA
ATOM     34  C   UNL     1      46.438   6.499  13.252  0.00  0.00    +0.000 A 
ATOM     35  H   UNL     1      46.528   3.274  13.881  0.00  0.00    +0.000 HD
ENDBRANCH  22  25
ENDBRANCH  20  21
ENDBRANCH   2  20
TORSDOF 7
ENDMDL
MODEL 9
REMARK VINA RESULT:    -7.017      2.580      3.620
REMARK INTER + INTRA:         -10.927
REMARK INTER:                  -9.728
REMARK INTRA:                  -1.199
REMARK UNBOUND:                -1.038
REMARK  Name = 
REMARK  8 active torsions:
REMARK  status: ('A' for Active; 'I' for Inactive)
REMARK    1  A    between atoms: C_1  and  N_2
REMARK    2  A    between atoms: N_2  and  C_3
REMARK    3  A    between atoms: N_2  and  C_17
REMARK    4  A    between atoms: C_3  and  N_4
REMARK    5  A    between atoms: C_5  and  C_7
REMARK    6  A    between atoms: C_20  and  C_21
REMARK    7  A    between atoms: C_21  and  N_22
REMARK    8  A    between atoms: C_23  and  C_25
REMARK                            x       y       z     vdW  Elec       q    Type
REMARK                         _______ _______ _______ _____ _____    ______ ____
ROOT
ATOM      1  C   UNL     1      48.771  10.861  13.542  0.00  0.00    +0.000 C 
ATOM      2  N   UNL     1      48.782   9.425  13.814  0.00  0.00    +0.000 N 
ENDROOT
BRANCH   2   3
ATOM      3  C   UNL     1      47.870   8.598  13.154  0.00  0.00    +0.000 A 
ATOM      4  C   UNL     1      48.260   7.638  12.201  0.00  0.00    +0.000 A 
ATOM      5  C   UNL     1      47.333   6.817  11.531  0.00  0.00    +0.000 A 
ATOM      6  C   UNL     1      45.966   6.937  11.783  0.00  0.00    +0.000 A 
ATOM      7  C   UNL     1      45.555   7.873  12.732  0.00  0.00    +0.000 A 
ATOM      8  C   UNL     1      46.489   8.697  13.380  0.00  0.00    +0.000 A 
BRANCH   6   9
ATOM      9  C   UNL     1      44.944   6.119  11.044  0.00  0.00    +0.000 C 
BRANCH   9  10
ATOM     10  N   UNL     1      45.542   5.095  10.223  0.00  0.00    +0.000 N 
ATOM     11  C   UNL     1      44.772   4.285   9.420  0.00  0.00    +0.000 C 
ATOM     12  O   UNL     1      43.546   4.372   9.375  0.00  0.00    +0.000 OA
ATOM     13  H   UNL     1      46.549   5.041  10.182  0.00  0.00    +0.000 HD
BRANCH  11  14
ATOM     14  C   UNL     1      45.499   3.330   8.628  0.00  0.00    +0.000 A 
ATOM     15  C   UNL     1      46.230   3.445   7.460  0.00  0.00    +0.000 A 
ATOM     16  N   UNL     1      46.740   2.234   7.067  0.00  0.00    +0.000 NA
ATOM     17  C   UNL     1      46.343   1.380   7.979  0.00  0.00    +0.000 A 
ATOM     18  N   UNL     1      45.604   1.994   8.947  0.00  0.00    +0.000 N 
ATOM     19  H   UNL     1      45.196   1.556   9.764  0.00  0.00    +0.000 HD
ENDBRANCH  11  14
ENDBRANCH   9  10
ENDBRANCH   6   9
ENDBRANCH   2   3
BRANCH   2  20
ATOM     20  C   UNL     1      50.009   8.862  14.367  0.00  0.00    +0.000 C 
BRANCH  20  21
ATOM     21  N   UNL     1      49.628   7.875  15.328  0.00  0.00    +0.000 N 
ATOM     22  C   UNL     1      50.582   7.059  15.885  0.00  0.00    +0.000 C 
ATOM     23  O   UNL     1      51.772   7.163  15.593  0.00  0.00    +0.000 OA
ATOM     24  H   UNL     1      48.661   7.573  15.287  0.00  0.00    +0.000 HD
BRANCH  22  25
ATOM     25  C   UNL     1      50.134   6.104  16.907  0.00  0.00    +0.000 A 
ATOM     26  C   UNL     1      50.833   5.998  18.103  0.00  0.00    +0.000 A 
ATOM     27  S   UNL     1      50.139   4.897  19.207  0.00  0.00    +0.000 S 
ATOM     28  C   UNL     1      48.921   4.472  18.098  0.00  0.00    +0.000 A 
ATOM     29  N   UNL     1      47.989   3.530  18.407  0.00  0.00    +0.000 NA
ATOM     30  C   UNL     1      47.153   3.279  17.457  0.00  0.00    +0.000 A 
ATOM     31  N   UNL     1      47.155   3.891  16.226  0.00  0.00    +0.000 N 
ATOM     32  C   UNL     1      48.053   4.873  15.884  0.00  0.00    +0.000 A 
ATOM     33  O   UNL     1      48.009   5.430  14.800  0.00  0.00    +0.000 OA
ATOM     34  C   UNL     1      49.029   5.180  16.914  0.00  0.00    +0.000 A 
ATOM     35  H   UNL     1      46.471   3.651  15.528  0.00  0.00    +0.000 HD
ENDBRANCH  22  25
ENDBRANCH  20  21
ENDBRANCH   2  20
TORSDOF 7
ENDMDL
