MODEL 1
REMARK VINA RESULT:    -7.468      0.000      0.000
REMARK INTER + INTRA:         -11.649
REMARK INTER:                 -10.306
REMARK INTRA:                  -1.342
REMARK UNBOUND:                -1.342
REMARK  Name = 
REMARK  8 active torsions:
REMARK  status: ('A' for Active; 'I' for Inactive)
REMARK    1  A    between atoms: C_1  and  N_2
REMARK    2  A    between atoms: N_2  and  C_3
REMARK    3  A    between atoms: C_3  and  C_4
REMARK    4  A    between atoms: C_7  and  C_8
REMARK    5  A    between atoms: C_8  and  N_9
REMARK    6  A    between atoms: N_9  and  C_10
REMARK    7  A    between atoms: C_13  and  N_14
REMARK    8  A    between atoms: C_18  and  C_20
REMARK                            x       y       z     vdW  Elec       q    Type
REMARK                         _______ _______ _______ _____ _____    ______ ____
ROOT
ATOM      1  C   UNL     1      47.321   5.635  13.591  0.00  0.00    +0.000 A 
ATOM      2  C   UNL     1      48.124   6.331  14.491  0.00  0.00    +0.000 A 
ATOM      3  C   UNL     1      48.231   5.866  15.790  0.00  0.00    +0.000 A 
ATOM      4  C   UNL     1      47.539   4.717  16.151  0.00  0.00    +0.000 A 
ATOM      5  N   UNL     1      46.794   3.990  15.276  0.00  0.00    +0.000 NA
ATOM      6  C   UNL     1      46.702   4.466  14.016  0.00  0.00    +0.000 A 
ENDROOT
BRANCH   1   7
ATOM      7  C   UNL     1      47.068   6.192  12.228  0.00  0.00    +0.000 C 
BRANCH   7   9
ATOM      8  C   UNL     1      46.142   8.554  12.182  0.00  0.00    +0.000 C 
ATOM      9  N   UNL     1      45.930   7.112  12.104  0.00  0.00    +0.000 N 
ATOM     10  C   UNL     1      44.705   6.717  11.536  0.00  0.00    +0.000 C 
ATOM     11  O   UNL     1      43.875   7.548  11.177  0.00  0.00    +0.000 OA
BRANCH  10  12
ATOM     12  C   UNL     1      44.415   5.283  11.409  0.00  0.00    +0.000 A 
ATOM     13  C   UNL     1      43.651   4.553  12.307  0.00  0.00    +0.000 A 
ATOM     14  S   UNL     1      43.463   2.914  11.887  0.00  0.00    +0.000 S 
ATOM     15  C   UNL     1      44.267   3.161  10.411  0.00  0.00    +0.000 A 
ATOM     16  N   UNL     1      44.358   2.158   9.501  0.00  0.00    +0.000 NA
ATOM     17  C   UNL     1      44.937   2.504   8.401  0.00  0.00    +0.000 A 
ATOM     18  N   UNL     1      45.468   3.741   8.145  0.00  0.00    +0.000 N 
ATOM     19  C   UNL     1      45.529   4.739   9.091  0.00  0.00    +0.000 A 
ATOM     20  O   UNL     1      46.236   5.726   8.921  0.00  0.00    +0.000 OA
ATOM     21  C   UNL     1      44.769   4.444  10.292  0.00  0.00    +0.000 A 
ATOM     22  H   UNL     1      45.982   3.912   7.293  0.00  0.00    +0.000 HD
ENDBRANCH  10  12
ENDBRANCH   7   9
ENDBRANCH   1   7
BRANCH   4  23
ATOM     23  C   UNL     1      47.559   4.246  17.592  0.00  0.00    +0.000 C 
BRANCH  23  24
ATOM     24  N   UNL     1      46.893   5.144  18.552  0.00  0.00    +0.000 NA
ATOM     25  H   UNL     1      46.087   4.612  18.898  0.00  0.00    +0.000 HD
BRANCH  24  26
ATOM     26  C   UNL     1      47.716   5.487  19.722  0.00  0.00    +0.000 C 
ATOM     27  C   UNL     1      49.209   5.676  19.437  0.00  0.00    +0.000 C 
ATOM     28  C   UNL     1      49.413   7.145  19.068  0.00  0.00    +0.000 C 
ATOM     29  C   UNL     1      48.116   7.883  19.428  0.00  0.00    +0.000 C 
ATOM     30  C   UNL     1      47.316   6.870  20.255  0.00  0.00    +0.000 C 
BRANCH  29  31
ATOM     31  N   UNL     1      47.368   8.319  18.248  0.00  0.00    +0.000 NA
ATOM     32  H   UNL     1      46.841   7.523  17.879  0.00  0.00    +0.000 HD
ATOM     33  H   UNL     1      48.008   8.593  17.504  0.00  0.00    +0.000 HD
ENDBRANCH  29  31
ENDBRANCH  24  26
ENDBRANCH  23  24
ENDBRANCH   4  23
TORSDOF 7
ENDMDL
MODEL 2
REMARK VINA RESULT:    -7.193      1.539      2.284
REMARK INTER + INTRA:         -11.269
REMARK INTER:                  -9.743
REMARK INTRA:                  -1.526
REMARK UNBOUND:                -1.342
REMARK  Name = 
REMARK  8 active torsions:
REMARK  status: ('A' for Active; 'I' for Inactive)
REMARK    1  A    between atoms: C_1  and  N_2
REMARK    2  A    between atoms: N_2  and  C_3
REMARK    3  A    between atoms: C_3  and  C_4
REMARK    4  A    between atoms: C_7  and  C_8
REMARK    5  A    between atoms: C_8  and  N_9
REMARK    6  A    between atoms: N_9  and  C_10
REMARK    7  A    between atoms: C_13  and  N_14
REMARK    8  A    between atoms: C_18  and  C_20
REMARK                            x       y       z     vdW  Elec       q    Type
REMARK                         _______ _______ _______ _____ _____    ______ ____
ROOT
ATOM      1  C   UNL     1      47.524   5.753  14.018  0.00  0.00    +0.000 A 
ATOM      2  C   UNL     1      46.833   4.610  14.414  0.00  0.00    +0.000 A 
ATOM      3  C   UNL     1      47.152   4.021  15.625  0.00  0.00    +0.000 A 
ATOM      4  C   UNL     1      48.143   4.595  16.410  0.00  0.00    +0.000 A 
ATOM      5  N   UNL     1      48.791   5.742  16.071  0.00  0.00    +0.000 NA
ATOM      6  C   UNL     1      48.467   6.293  14.883  0.00  0.00    +0.000 A 
ENDROOT
BRANCH   1   7
ATOM      7  C   UNL     1      47.308   6.323  12.655  0.00  0.00    +0.000 C 
BRANCH   7   9
ATOM      8  C   UNL     1      46.404   8.637  13.177  0.00  0.00    +0.000 C 
ATOM      9  N   UNL     1      46.250   7.335  12.534  0.00  0.00    +0.000 N 
ATOM     10  C   UNL     1      45.266   7.276  11.530  0.00  0.00    +0.000 C 
ATOM     11  O   UNL     1      44.575   8.254  11.261  0.00  0.00    +0.000 OA
BRANCH  10  12
ATOM     12  C   UNL     1      45.053   6.005  10.825  0.00  0.00    +0.000 A 
ATOM     13  C   UNL     1      45.600   5.689   9.591  0.00  0.00    +0.000 A 
ATOM     14  S   UNL     1      45.199   4.132   9.032  0.00  0.00    +0.000 S 
ATOM     15  C   UNL     1      44.408   3.771  10.490  0.00  0.00    +0.000 A 
ATOM     16  N   UNL     1      43.917   2.526  10.717  0.00  0.00    +0.000 NA
ATOM     17  C   UNL     1      43.400   2.374  11.889  0.00  0.00    +0.000 A 
ATOM     18  N   UNL     1      43.292   3.360  12.836  0.00  0.00    +0.000 N 
ATOM     19  C   UNL     1      43.641   4.669  12.595  0.00  0.00    +0.000 A 
ATOM     20  O   UNL     1      43.291   5.564  13.356  0.00  0.00    +0.000 OA
ATOM     21  C   UNL     1      44.353   4.858  11.344  0.00  0.00    +0.000 A 
ATOM     22  H   UNL     1      42.798   3.189  13.699  0.00  0.00    +0.000 HD
ENDBRANCH  10  12
ENDBRANCH   7   9
ENDBRANCH   1   7
BRANCH   4  23
ATOM     23  C   UNL     1      48.580   3.912  17.692  0.00  0.00    +0.000 C 
BRANCH  23  24
ATOM     24  N   UNL     1      47.746   4.206  18.871  0.00  0.00    +0.000 NA
ATOM     25  H   UNL     1      47.381   3.295  19.171  0.00  0.00    +0.000 HD
BRANCH  24  26
ATOM     26  C   UNL     1      48.492   4.766  20.008  0.00  0.00    +0.000 C 
ATOM     27  C   UNL     1      49.863   5.356  19.661  0.00  0.00    +0.000 C 
ATOM     28  C   UNL     1      49.640   6.824  19.296  0.00  0.00    +0.000 C 
ATOM     29  C   UNL     1      48.207   7.179  19.714  0.00  0.00    +0.000 C 
ATOM     30  C   UNL     1      47.750   5.989  20.567  0.00  0.00    +0.000 C 
BRANCH  29  31
ATOM     31  N   UNL     1      47.319   7.388  18.570  0.00  0.00    +0.000 NA
ATOM     32  H   UNL     1      46.543   7.988  18.859  0.00  0.00    +0.000 HD
ATOM     33  H   UNL     1      46.894   6.506  18.285  0.00  0.00    +0.000 HD
ENDBRANCH  29  31
ENDBRANCH  24  26
ENDBRANCH  23  24
ENDBRANCH   4  23
TORSDOF 7
ENDMDL
MODEL 3
REMARK VINA RESULT:    -7.150      1.889      2.299
REMARK INTER + INTRA:         -11.210
REMARK INTER:                  -9.770
REMARK INTRA:                  -1.440
REMARK UNBOUND:                -1.342
REMARK  Name = 
REMARK  8 active torsions:
REMARK  status: ('A' for Active; 'I' for Inactive)
REMARK    1  A    between atoms: C_1  and  N_2
REMARK    2  A    between atoms: N_2  and  C_3
REMARK    3  A    between atoms: C_3  and  C_4
REMARK    4  A    between atoms: C_7  and  C_8
REMARK    5  A    between atoms: C_8  and  N_9
REMARK    6  A    between atoms: N_9  and  C_10
REMARK    7  A    between atoms: C_13  and  N_14
REMARK    8  A    between atoms: C_18  and  C_20
REMARK                            x       y       z     vdW  Elec       q    Type
REMARK                         _______ _______ _______ _____ _____    ______ ____
ROOT
ATOM      1  C   UNL     1      47.145   5.723  13.508  0.00  0.00    +0.000 A 
ATOM      2  C   UNL     1      46.632   4.513  13.971  0.00  0.00    +0.000 A 
ATOM      3  C   UNL     1      47.073   4.022  15.187  0.00  0.00    +0.000 A 
ATOM      4  C   UNL     1      48.005   4.755  15.909  0.00  0.00    +0.000 A 
ATOM      5  N   UNL     1      48.478   5.965  15.504  0.00  0.00    +0.000 NA
ATOM      6  C   UNL     1      48.037   6.420  14.313  0.00  0.00    +0.000 A 
ENDROOT
BRANCH   1   7
ATOM      7  C   UNL     1      46.803   6.203  12.136  0.00  0.00    +0.000 C 
BRANCH   7   9
ATOM      8  C   UNL     1      45.687   8.482  12.107  0.00  0.00    +0.000 C 
ATOM      9  N   UNL     1      45.594   7.028  12.020  0.00  0.00    +0.000 N 
ATOM     10  C   UNL     1      44.403   6.538  11.452  0.00  0.00    +0.000 C 
ATOM     11  O   UNL     1      43.507   7.301  11.101  0.00  0.00    +0.000 OA
BRANCH  10  12
ATOM     12  C   UNL     1      44.231   5.086  11.317  0.00  0.00    +0.000 A 
ATOM     13  C   UNL     1      43.497   4.296  12.190  0.00  0.00    +0.000 A 
ATOM     14  S   UNL     1      43.452   2.649  11.765  0.00  0.00    +0.000 S 
ATOM     15  C   UNL     1      44.282   2.961  10.316  0.00  0.00    +0.000 A 
ATOM     16  N   UNL     1      44.480   1.970   9.410  0.00  0.00    +0.000 NA
ATOM     17  C   UNL     1      45.066   2.362   8.329  0.00  0.00    +0.000 A 
ATOM     18  N   UNL     1      45.505   3.638   8.089  0.00  0.00    +0.000 N 
ATOM     19  C   UNL     1      45.458   4.636   9.036  0.00  0.00    +0.000 A 
ATOM     20  O   UNL     1      46.090   5.676   8.889  0.00  0.00    +0.000 OA
ATOM     21  C   UNL     1      44.685   4.280  10.213  0.00  0.00    +0.000 A 
ATOM     22  H   UNL     1      46.032   3.851   7.255  0.00  0.00    +0.000 HD
ENDBRANCH  10  12
ENDBRANCH   7   9
ENDBRANCH   1   7
BRANCH   4  23
ATOM     23  C   UNL     1      48.578   4.190  17.195  0.00  0.00    +0.000 C 
BRANCH  23  24
ATOM     24  N   UNL     1      49.934   3.625  17.080  0.00  0.00    +0.000 NA
ATOM     25  H   UNL     1      50.339   4.077  16.252  0.00  0.00    +0.000 HD
BRANCH  24  26
ATOM     26  C   UNL     1      50.813   3.941  18.216  0.00  0.00    +0.000 C 
ATOM     27  C   UNL     1      52.296   3.626  18.000  0.00  0.00    +0.000 C 
ATOM     28  C   UNL     1      52.932   4.867  17.374  0.00  0.00    +0.000 C 
ATOM     29  C   UNL     1      51.912   6.007  17.499  0.00  0.00    +0.000 C 
ATOM     30  C   UNL     1      50.840   5.459  18.448  0.00  0.00    +0.000 C 
BRANCH  29  31
ATOM     31  N   UNL     1      51.337   6.395  16.210  0.00  0.00    +0.000 NA
ATOM     32  H   UNL     1      51.453   5.621  15.551  0.00  0.00    +0.000 HD
ATOM     33  H   UNL     1      51.856   7.176  15.811  0.00  0.00    +0.000 HD
ENDBRANCH  29  31
ENDBRANCH  24  26
ENDBRANCH  23  24
ENDBRANCH   4  23
TORSDOF 7
ENDMDL
MODEL 4
REMARK VINA RESULT:    -6.654      2.052      2.780
REMARK INTER + INTRA:         -10.525
REMARK INTER:                  -8.887
REMARK INTRA:                  -1.638
REMARK UNBOUND:                -1.342
REMARK  Name = 
REMARK  8 active torsions:
REMARK  status: ('A' for Active; 'I' for Inactive)
REMARK    1  A    between atoms: C_1  and  N_2
REMARK    2  A    between atoms: N_2  and  C_3
REMARK    3  A    between atoms: C_3  and  C_4
REMARK    4  A    between atoms: C_7  and  C_8
REMARK    5  A    between atoms: C_8  and  N_9
REMARK    6  A    between atoms: N_9  and  C_10
REMARK    7  A    between atoms: C_13  and  N_14
REMARK    8  A    between atoms: C_18  and  C_20
REMARK                            x       y       z     vdW  Elec       q    Type
REMARK                         _______ _______ _______ _____ _____    ______ ____
ROOT
ATOM      1  C   UNL     1      47.490   5.781  13.870  0.00  0.00    +0.000 A 
ATOM      2  C   UNL     1      46.844   4.593  14.203  0.00  0.00    +0.000 A 
ATOM      3  C   UNL     1      47.147   3.980  15.406  0.00  0.00    +0.000 A 
ATOM      4  C   UNL     1      48.080   4.574  16.245  0.00  0.00    +0.000 A 
ATOM      5  N   UNL     1      48.682   5.762  15.968  0.00  0.00    +0.000 NA
ATOM      6  C   UNL     1      48.373   6.337  14.787  0.00  0.00    +0.000 A 
ENDROOT
BRANCH   1   7
ATOM      7  C   UNL     1      47.296   6.385  12.519  0.00  0.00    +0.000 C 
BRANCH   7   9
ATOM      8  C   UNL     1      46.376   8.702  12.997  0.00  0.00    +0.000 C 
ATOM      9  N   UNL     1      46.220   7.378  12.400  0.00  0.00    +0.000 N 
ATOM     10  C   UNL     1      45.207   7.275  11.430  0.00  0.00    +0.000 C 
ATOM     11  O   UNL     1      44.494   8.235  11.153  0.00  0.00    +0.000 OA
BRANCH  10  12
ATOM     12  C   UNL     1      44.989   5.980  10.771  0.00  0.00    +0.000 A 
ATOM     13  C   UNL     1      45.513   5.629   9.536  0.00  0.00    +0.000 A 
ATOM     14  S   UNL     1      45.114   4.051   9.037  0.00  0.00    +0.000 S 
ATOM     15  C   UNL     1      44.357   3.731  10.523  0.00  0.00    +0.000 A 
ATOM     16  N   UNL     1      43.883   2.490  10.801  0.00  0.00    +0.000 NA
ATOM     17  C   UNL     1      43.393   2.373  11.989  0.00  0.00    +0.000 A 
ATOM     18  N   UNL     1      43.296   3.388  12.905  0.00  0.00    +0.000 N 
ATOM     19  C   UNL     1      43.628   4.692  12.614  0.00  0.00    +0.000 A 
ATOM     20  O   UNL     1      43.286   5.608  13.353  0.00  0.00    +0.000 OA
ATOM     21  C   UNL     1      44.311   4.845  11.342  0.00  0.00    +0.000 A 
ATOM     22  H   UNL     1      42.822   3.242  13.783  0.00  0.00    +0.000 HD
ENDBRANCH  10  12
ENDBRANCH   7   9
ENDBRANCH   1   7
BRANCH   4  23
ATOM     23  C   UNL     1      48.503   3.871  17.521  0.00  0.00    +0.000 C 
BRANCH  23  24
ATOM     24  N   UNL     1      48.969   4.760  18.599  0.00  0.00    +0.000 NA
ATOM     25  H   UNL     1      48.337   4.575  19.387  0.00  0.00    +0.000 HD
BRANCH  24  26
ATOM     26  C   UNL     1      50.334   4.472  19.065  0.00  0.00    +0.000 C 
ATOM     27  C   UNL     1      51.289   3.936  17.994  0.00  0.00    +0.000 C 
ATOM     28  C   UNL     1      51.947   5.147  17.333  0.00  0.00    +0.000 C 
ATOM     29  C   UNL     1      51.619   6.368  18.204  0.00  0.00    +0.000 C 
ATOM     30  C   UNL     1      51.027   5.775  19.488  0.00  0.00    +0.000 C 
BRANCH  29  31
ATOM     31  N   UNL     1      50.680   7.287  17.558  0.00  0.00    +0.000 NA
ATOM     32  H   UNL     1      50.589   7.026  16.573  0.00  0.00    +0.000 HD
ATOM     33  H   UNL     1      51.054   8.234  17.559  0.00  0.00    +0.000 HD
ENDBRANCH  29  31
ENDBRANCH  24  26
ENDBRANCH  23  24
ENDBRANCH   4  23
TORSDOF 7
ENDMDL
MODEL 5
REMARK VINA RESULT:    -6.626      3.565      8.081
REMARK INTER + INTRA:         -10.486
REMARK INTER:                  -9.232
REMARK INTRA:                  -1.254
REMARK UNBOUND:                -1.342
REMARK  Name = 
REMARK  8 active torsions:
REMARK  status: ('A' for Active; 'I' for Inactive)
REMARK    1  A    between atoms: C_1  and  N_2
REMARK    2  A    between atoms: N_2  and  C_3
REMARK    3  A    between atoms: C_3  and  C_4
REMARK    4  A    between atoms: C_7  and  C_8
REMARK    5  A    between atoms: C_8  and  N_9
REMARK    6  A    between atoms: N_9  and  C_10
REMARK    7  A    between atoms: C_13  and  N_14
REMARK    8  A    between atoms: C_18  and  C_20
REMARK                            x       y       z     vdW  Elec       q    Type
REMARK                         _______ _______ _______ _____ _____    ______ ____
ROOT
ATOM      1  C   UNL     1      48.124   6.829  14.365  0.00  0.00    +0.000 A 
ATOM      2  C   UNL     1      47.663   8.007  13.781  0.00  0.00    +0.000 A 
ATOM      3  C   UNL     1      46.626   7.939  12.867  0.00  0.00    +0.000 A 
ATOM      4  C   UNL     1      46.073   6.701  12.569  0.00  0.00    +0.000 A 
ATOM      5  N   UNL     1      46.468   5.545  13.168  0.00  0.00    +0.000 NA
ATOM      6  C   UNL     1      47.485   5.636  14.051  0.00  0.00    +0.000 A 
ENDROOT
BRANCH   1   7
ATOM      7  C   UNL     1      49.335   6.851  15.238  0.00  0.00    +0.000 C 
BRANCH   7   9
ATOM      8  C   UNL     1      49.215   8.948  16.662  0.00  0.00    +0.000 C 
ATOM      9  N   UNL     1      49.178   7.493  16.549  0.00  0.00    +0.000 N 
ATOM     10  C   UNL     1      48.617   6.822  17.651  0.00  0.00    +0.000 C 
ATOM     11  O   UNL     1      48.230   7.439  18.640  0.00  0.00    +0.000 OA
BRANCH  10  12
ATOM     12  C   UNL     1      48.532   5.356  17.616  0.00  0.00    +0.000 A 
ATOM     13  C   UNL     1      47.357   4.642  17.433  0.00  0.00    +0.000 A 
ATOM     14  S   UNL     1      47.569   2.953  17.411  0.00  0.00    +0.000 S 
ATOM     15  C   UNL     1      49.256   3.125  17.490  0.00  0.00    +0.000 A 
ATOM     16  N   UNL     1      50.064   2.038  17.398  0.00  0.00    +0.000 NA
ATOM     17  C   UNL     1      51.323   2.322  17.408  0.00  0.00    +0.000 A 
ATOM     18  N   UNL     1      51.846   3.581  17.543  0.00  0.00    +0.000 N 
ATOM     19  C   UNL     1      51.069   4.692  17.786  0.00  0.00    +0.000 A 
ATOM     20  O   UNL     1      51.574   5.744  18.161  0.00  0.00    +0.000 OA
ATOM     21  C   UNL     1      49.645   4.444  17.645  0.00  0.00    +0.000 A 
ATOM     22  H   UNL     1      52.842   3.716  17.628  0.00  0.00    +0.000 HD
ENDBRANCH  10  12
ENDBRANCH   7   9
ENDBRANCH   1   7
BRANCH   4  23
ATOM     23  C   UNL     1      45.005   6.589  11.499  0.00  0.00    +0.000 C 
BRANCH  23  24
ATOM     24  N   UNL     1      45.289   5.612  10.433  0.00  0.00    +0.000 NA
ATOM     25  H   UNL     1      45.867   4.892  10.881  0.00  0.00    +0.000 HD
BRANCH  24  26
ATOM     26  C   UNL     1      44.094   4.937   9.904  0.00  0.00    +0.000 C 
ATOM     27  C   UNL     1      44.372   3.742   8.987  0.00  0.00    +0.000 C 
ATOM     28  C   UNL     1      44.475   2.506   9.879  0.00  0.00    +0.000 C 
ATOM     29  C   UNL     1      43.962   2.909  11.269  0.00  0.00    +0.000 C 
ATOM     30  C   UNL     1      43.314   4.282  11.054  0.00  0.00    +0.000 C 
BRANCH  29  31
ATOM     31  N   UNL     1      45.030   2.974  12.268  0.00  0.00    +0.000 NA
ATOM     32  H   UNL     1      45.845   3.430  11.851  0.00  0.00    +0.000 HD
ATOM     33  H   UNL     1      45.337   2.035  12.519  0.00  0.00    +0.000 HD
ENDBRANCH  29  31
ENDBRANCH  24  26
ENDBRANCH  23  24
ENDBRANCH   4  23
TORSDOF 7
ENDMDL
MODEL 6
REMARK VINA RESULT:    -6.183      2.285      3.499
REMARK INTER + INTRA:          -9.875
REMARK INTER:                  -8.587
REMARK INTRA:                  -1.288
REMARK UNBOUND:                -1.342
REMARK  Name = 
REMARK  8 active torsions:
REMARK  status: ('A' for Active; 'I' for Inactive)
REMARK    1  A    between atoms: C_1  and  N_2
REMARK    2  A    between atoms: N_2  and  C_3
REMARK    3  A    between atoms: C_3  and  C_4
REMARK    4  A    between atoms: C_7  and  C_8
REMARK    5  A    between atoms: C_8  and  N_9
REMARK    6  A    between atoms: N_9  and  C_10
REMARK    7  A    between atoms: C_13  and  N_14
REMARK    8  A    between atoms: C_18  and  C_20
REMARK                            x       y       z     vdW  Elec       q    Type
REMARK                         _______ _______ _______ _____ _____    ______ ____
ROOT
ATOM      1  C   UNL     1      47.969   6.705  13.513  0.00  0.00    +0.000 A 
ATOM      2  C   UNL     1      47.498   5.789  14.452  0.00  0.00    +0.000 A 
ATOM      3  C   UNL     1      48.229   5.582  15.608  0.00  0.00    +0.000 A 
ATOM      4  C   UNL     1      49.403   6.298  15.798  0.00  0.00    +0.000 A 
ATOM      5  N   UNL     1      49.853   7.237  14.923  0.00  0.00    +0.000 NA
ATOM      6  C   UNL     1      49.126   7.418  13.801  0.00  0.00    +0.000 A 
ENDROOT
BRANCH   1   7
ATOM      7  C   UNL     1      47.284   6.841  12.193  0.00  0.00    +0.000 C 
BRANCH   7   9
ATOM      8  C   UNL     1      46.092   9.023  12.701  0.00  0.00    +0.000 C 
ATOM      9  N   UNL     1      46.066   7.661  12.175  0.00  0.00    +0.000 N 
ATOM     10  C   UNL     1      44.972   7.361  11.344  0.00  0.00    +0.000 C 
ATOM     11  O   UNL     1      44.095   8.192  11.124  0.00  0.00    +0.000 OA
BRANCH  10  12
ATOM     12  C   UNL     1      44.874   6.015  10.764  0.00  0.00    +0.000 A 
ATOM     13  C   UNL     1      45.440   5.637   9.556  0.00  0.00    +0.000 A 
ATOM     14  S   UNL     1      45.184   4.004   9.150  0.00  0.00    +0.000 S 
ATOM     15  C   UNL     1      44.440   3.709  10.648  0.00  0.00    +0.000 A 
ATOM     16  N   UNL     1      44.071   2.451  10.998  0.00  0.00    +0.000 NA
ATOM     17  C   UNL     1      43.578   2.363  12.188  0.00  0.00    +0.000 A 
ATOM     18  N   UNL     1      43.384   3.419  13.040  0.00  0.00    +0.000 N 
ATOM     19  C   UNL     1      43.606   4.727  12.672  0.00  0.00    +0.000 A 
ATOM     20  O   UNL     1      43.179   5.653  13.352  0.00  0.00    +0.000 OA
ATOM     21  C   UNL     1      44.289   4.862  11.398  0.00  0.00    +0.000 A 
ATOM     22  H   UNL     1      42.914   3.285  13.922  0.00  0.00    +0.000 HD
ENDBRANCH  10  12
ENDBRANCH   7   9
ENDBRANCH   1   7
BRANCH   4  23
ATOM     23  C   UNL     1      50.272   6.015  17.008  0.00  0.00    +0.000 C 
BRANCH  23  24
ATOM     24  N   UNL     1      50.943   4.703  17.003  0.00  0.00    +0.000 NA
ATOM     25  H   UNL     1      51.946   4.919  16.984  0.00  0.00    +0.000 HD
BRANCH  24  26
ATOM     26  C   UNL     1      50.698   3.900  18.210  0.00  0.00    +0.000 C 
ATOM     27  C   UNL     1      49.291   4.026  18.803  0.00  0.00    +0.000 C 
ATOM     28  C   UNL     1      48.421   2.970  18.122  0.00  0.00    +0.000 C 
ATOM     29  C   UNL     1      49.366   2.030  17.361  0.00  0.00    +0.000 C 
ATOM     30  C   UNL     1      50.765   2.405  17.864  0.00  0.00    +0.000 C 
BRANCH  29  31
ATOM     31  N   UNL     1      49.263   2.178  15.909  0.00  0.00    +0.000 NA
ATOM     32  H   UNL     1      50.157   1.915  15.486  0.00  0.00    +0.000 HD
ATOM     33  H   UNL     1      49.118   3.155  15.662  0.00  0.00    +0.000 HD
ENDBRANCH  29  31
ENDBRANCH  24  26
ENDBRANCH  23  24
ENDBRANCH   4  23
TORSDOF 7
ENDMDL
MODEL 7
REMARK VINA RESULT:    -6.024      3.502      7.848
REMARK INTER + INTRA:          -9.655
REMARK INTER:                  -8.242
REMARK INTRA:                  -1.413
REMARK UNBOUND:                -1.342
REMARK  Name = 
REMARK  8 active torsions:
REMARK  status: ('A' for Active; 'I' for Inactive)
REMARK    1  A    between atoms: C_1  and  N_2
REMARK    2  A    between atoms: N_2  and  C_3
REMARK    3  A    between atoms: C_3  and  C_4
REMARK    4  A    between atoms: C_7  and  C_8
REMARK    5  A    between atoms: C_8  and  N_9
REMARK    6  A    between atoms: N_9  and  C_10
REMARK    7  A    between atoms: C_13  and  N_14
REMARK    8  A    between atoms: C_18  and  C_20
REMARK                            x       y       z     vdW  Elec       q    Type
REMARK                         _______ _______ _______ _____ _____    ______ ____
ROOT
ATOM      1  C   UNL     1      47.477   8.439  13.735  0.00  0.00    +0.000 A 
ATOM      2  C   UNL     1      48.353   7.509  13.180  0.00  0.00    +0.000 A 
ATOM      3  C   UNL     1      47.900   6.688  12.162  0.00  0.00    +0.000 A 
ATOM      4  C   UNL     1      46.590   6.826  11.722  0.00  0.00    +0.000 A 
ATOM      5  N   UNL     1      45.735   7.764  12.209  0.00  0.00    +0.000 NA
ATOM      6  C   UNL     1      46.198   8.548  13.205  0.00  0.00    +0.000 A 
ENDROOT
BRANCH   1   7
ATOM      7  C   UNL     1      47.889   9.233  14.931  0.00  0.00    +0.000 C 
BRANCH   7   9
ATOM      8  C   UNL     1      50.207   9.981  14.218  0.00  0.00    +0.000 C 
ATOM      9  N   UNL     1      49.333   9.323  15.185  0.00  0.00    +0.000 N 
ATOM     10  C   UNL     1      49.881   9.155  16.470  0.00  0.00    +0.000 C 
ATOM     11  O   UNL     1      51.029   9.511  16.721  0.00  0.00    +0.000 OA
BRANCH  10  12
ATOM     12  C   UNL     1      49.064   8.512  17.507  0.00  0.00    +0.000 A 
ATOM     13  C   UNL     1      48.439   9.185  18.546  0.00  0.00    +0.000 A 
ATOM     14  S   UNL     1      47.538   8.179  19.582  0.00  0.00    +0.000 S 
ATOM     15  C   UNL     1      47.826   6.833  18.588  0.00  0.00    +0.000 A 
ATOM     16  N   UNL     1      47.232   5.642  18.853  0.00  0.00    +0.000 NA
ATOM     17  C   UNL     1      47.487   4.726  17.981  0.00  0.00    +0.000 A 
ATOM     18  N   UNL     1      48.311   4.878  16.897  0.00  0.00    +0.000 N 
ATOM     19  C   UNL     1      49.048   6.019  16.672  0.00  0.00    +0.000 A 
ATOM     20  O   UNL     1      49.963   6.028  15.856  0.00  0.00    +0.000 OA
ATOM     21  C   UNL     1      48.688   7.122  17.546  0.00  0.00    +0.000 A 
ATOM     22  H   UNL     1      48.531   4.091  16.305  0.00  0.00    +0.000 HD
ENDBRANCH  10  12
ENDBRANCH   7   9
ENDBRANCH   1   7
BRANCH   4  23
ATOM     23  C   UNL     1      46.041   5.872  10.678  0.00  0.00    +0.000 C 
BRANCH  23  24
ATOM     24  N   UNL     1      44.604   6.020  10.390  0.00  0.00    +0.000 NA
ATOM     25  H   UNL     1      44.561   6.345   9.417  0.00  0.00    +0.000 HD
BRANCH  24  26
ATOM     26  C   UNL     1      43.846   4.762  10.458  0.00  0.00    +0.000 C 
ATOM     27  C   UNL     1      44.563   3.606  11.163  0.00  0.00    +0.000 C 
ATOM     28  C   UNL     1      44.218   3.704  12.649  0.00  0.00    +0.000 C 
ATOM     29  C   UNL     1      43.071   4.715  12.779  0.00  0.00    +0.000 C 
ATOM     30  C   UNL     1      42.602   4.950  11.339  0.00  0.00    +0.000 C 
BRANCH  29  31
ATOM     31  N   UNL     1      43.489   5.965  13.415  0.00  0.00    +0.000 NA
ATOM     32  H   UNL     1      44.512   5.998  13.436  0.00  0.00    +0.000 HD
ATOM     33  H   UNL     1      43.193   5.983  14.390  0.00  0.00    +0.000 HD
ENDBRANCH  29  31
ENDBRANCH  24  26
ENDBRANCH  23  24
ENDBRANCH   4  23
TORSDOF 7
ENDMDL
MODEL 8
REMARK VINA RESULT:    -5.952      3.351      4.969
REMARK INTER + INTRA:          -9.556
REMARK INTER:                  -7.541
REMARK INTRA:                  -2.015
REMARK UNBOUND:                -1.342
REMARK  Name = 
REMARK  8 active torsions:
REMARK  status: ('A' for Active; 'I' for Inactive)
REMARK    1  A    between atoms: C_1  and  N_2
REMARK    2  A    between atoms: N_2  and  C_3
REMARK    3  A    between atoms: C_3  and  C_4
REMARK    4  A    between atoms: C_7  and  C_8
REMARK    5  A    between atoms: C_8  and  N_9
REMARK    6  A    between atoms: N_9  and  C_10
REMARK    7  A    between atoms: C_13  and  N_14
REMARK    8  A    between atoms: C_18  and  C_20
REMARK                            x       y       z     vdW  Elec       q    Type
REMARK                         _______ _______ _______ _____ _____    ______ ____
ROOT
ATOM      1  C   UNL     1      49.728   8.965  15.425  0.00  0.00    +0.000 A 
ATOM      2  C   UNL     1      48.694   8.269  16.046  0.00  0.00    +0.000 A 
ATOM      3  C   UNL     1      49.003   7.169  16.827  0.00  0.00    +0.000 A 
ATOM      4  C   UNL     1      50.334   6.801  16.971  0.00  0.00    +0.000 A 
ATOM      5  N   UNL     1      51.364   7.498  16.420  0.00  0.00    +0.000 NA
ATOM      6  C   UNL     1      51.036   8.563  15.660  0.00  0.00    +0.000 A 
ENDROOT
BRANCH   1   7
ATOM      7  C   UNL     1      49.416  10.062  14.460  0.00  0.00    +0.000 C 
BRANCH   7   9
ATOM      8  C   UNL     1      51.387  10.054  12.861  0.00  0.00    +0.000 C 
ATOM      9  N   UNL     1      49.955   9.905  13.103  0.00  0.00    +0.000 N 
ATOM     10  C   UNL     1      49.241   9.249  12.083  0.00  0.00    +0.000 C 
ATOM     11  O   UNL     1      49.801   8.874  11.057  0.00  0.00    +0.000 OA
BRANCH  10  12
ATOM     12  C   UNL     1      47.796   9.048  12.251  0.00  0.00    +0.000 A 
ATOM     13  C   UNL     1      46.834  10.017  12.007  0.00  0.00    +0.000 A 
ATOM     14  S   UNL     1      45.236   9.488  12.262  0.00  0.00    +0.000 S 
ATOM     15  C   UNL     1      45.767   7.903  12.557  0.00  0.00    +0.000 A 
ATOM     16  N   UNL     1      44.871   6.900  12.741  0.00  0.00    +0.000 NA
ATOM     17  C   UNL     1      45.412   5.738  12.890  0.00  0.00    +0.000 A 
ATOM     18  N   UNL     1      46.761   5.494  12.913  0.00  0.00    +0.000 N 
ATOM     19  C   UNL     1      47.703   6.497  12.878  0.00  0.00    +0.000 A 
ATOM     20  O   UNL     1      48.874   6.272  13.164  0.00  0.00    +0.000 OA
ATOM     21  C   UNL     1      47.147   7.803  12.572  0.00  0.00    +0.000 A 
ATOM     22  H   UNL     1      47.111   4.570  13.119  0.00  0.00    +0.000 HD
ENDBRANCH  10  12
ENDBRANCH   7   9
ENDBRANCH   1   7
BRANCH   4  23
ATOM     23  C   UNL     1      50.690   5.541  17.737  0.00  0.00    +0.000 C 
BRANCH  23  24
ATOM     24  N   UNL     1      50.490   4.282  16.998  0.00  0.00    +0.000 NA
ATOM     25  H   UNL     1      51.431   3.890  16.884  0.00  0.00    +0.000 HD
BRANCH  24  26
ATOM     26  C   UNL     1      49.692   3.282  17.723  0.00  0.00    +0.000 C 
ATOM     27  C   UNL     1      48.595   3.853  18.626  0.00  0.00    +0.000 C 
ATOM     28  C   UNL     1      47.337   3.996  17.769  0.00  0.00    +0.000 C 
ATOM     29  C   UNL     1      47.596   3.235  16.461  0.00  0.00    +0.000 C 
ATOM     30  C   UNL     1      48.880   2.441  16.727  0.00  0.00    +0.000 C 
BRANCH  29  31
ATOM     31  N   UNL     1      47.747   4.126  15.310  0.00  0.00    +0.000 NA
ATOM     32  H   UNL     1      47.757   5.094  15.641  0.00  0.00    +0.000 HD
ATOM     33  H   UNL     1      46.937   4.053  14.696  0.00  0.00    +0.000 HD
ENDBRANCH  29  31
ENDBRANCH  24  26
ENDBRANCH  23  24
ENDBRANCH   4  23
TORSDOF 7
ENDMDL
MODEL 9
REMARK VINA RESULT:    -5.938      4.222      8.361
REMARK INTER + INTRA:          -9.537
REMARK INTER:                  -8.542
REMARK INTRA:                  -0.995
REMARK UNBOUND:                -1.342
REMARK  Name = 
REMARK  8 active torsions:
REMARK  status: ('A' for Active; 'I' for Inactive)
REMARK    1  A    between atoms: C_1  and  N_2
REMARK    2  A    between atoms: N_2  and  C_3
REMARK    3  A    between atoms: C_3  and  C_4
REMARK    4  A    between atoms: C_7  and  C_8
REMARK    5  A    between atoms: C_8  and  N_9
REMARK    6  A    between atoms: N_9  and  C_10
REMARK    7  A    between atoms: C_13  and  N_14
REMARK    8  A    between atoms: C_18  and  C_20
REMARK                            x       y       z     vdW  Elec       q    Type
REMARK                         _______ _______ _______ _____ _____    ______ ____
ROOT
ATOM      1  C   UNL     1      49.276   6.958  14.915  0.00  0.00    +0.000 A 
ATOM      2  C   UNL     1      49.429   7.904  13.904  0.00  0.00    +0.000 A 
ATOM      3  C   UNL     1      48.624   7.819  12.782  0.00  0.00    +0.000 A 
ATOM      4  C   UNL     1      47.685   6.798  12.705  0.00  0.00    +0.000 A 
ATOM      5  N   UNL     1      47.480   5.898  13.703  0.00  0.00    +0.000 NA
ATOM      6  C   UNL     1      48.280   5.999  14.785  0.00  0.00    +0.000 A 
ENDROOT
BRANCH   1   7
ATOM      7  C   UNL     1      50.227   6.935  16.067  0.00  0.00    +0.000 C 
BRANCH   7   9
ATOM      8  C   UNL     1      48.440   7.861  17.613  0.00  0.00    +0.000 C 
ATOM      9  N   UNL     1      49.630   7.041  17.404  0.00  0.00    +0.000 N 
ATOM     10  C   UNL     1      49.898   6.107  18.422  0.00  0.00    +0.000 C 
ATOM     11  O   UNL     1      49.189   6.036  19.422  0.00  0.00    +0.000 OA
BRANCH  10  12
ATOM     12  C   UNL     1      51.071   5.233  18.287  0.00  0.00    +0.000 A 
ATOM     13  C   UNL     1      52.350   5.563  18.709  0.00  0.00    +0.000 A 
ATOM     14  S   UNL     1      53.505   4.341  18.445  0.00  0.00    +0.000 S 
ATOM     15  C   UNL     1      52.305   3.272  17.900  0.00  0.00    +0.000 A 
ATOM     16  N   UNL     1      52.613   1.982  17.608  0.00  0.00    +0.000 NA
ATOM     17  C   UNL     1      51.594   1.267  17.268  0.00  0.00    +0.000 A 
ATOM     18  N   UNL     1      50.309   1.730  17.154  0.00  0.00    +0.000 N 
ATOM     19  C   UNL     1      49.977   3.058  17.296  0.00  0.00    +0.000 A 
ATOM     20  O   UNL     1      48.884   3.477  16.933  0.00  0.00    +0.000 OA
ATOM     21  C   UNL     1      51.062   3.873  17.813  0.00  0.00    +0.000 A 
ATOM     22  H   UNL     1      49.578   1.131  16.800  0.00  0.00    +0.000 HD
ENDBRANCH  10  12
ENDBRANCH   7   9
ENDBRANCH   1   7
BRANCH   4  23
ATOM     23  C   UNL     1      46.862   6.623  11.443  0.00  0.00    +0.000 C 
BRANCH  23  24
ATOM     24  N   UNL     1      45.426   6.378  11.663  0.00  0.00    +0.000 NA
ATOM     25  H   UNL     1      44.956   7.211  11.291  0.00  0.00    +0.000 HD
BRANCH  24  26
ATOM     26  C   UNL     1      44.896   5.221  10.927  0.00  0.00    +0.000 C 
ATOM     27  C   UNL     1      45.201   3.856  11.552  0.00  0.00    +0.000 C 
ATOM     28  C   UNL     1      44.066   3.547  12.529  0.00  0.00    +0.000 C 
ATOM     29  C   UNL     1      42.951   4.567  12.262  0.00  0.00    +0.000 C 
ATOM     30  C   UNL     1      43.361   5.246  10.950  0.00  0.00    +0.000 C 
BRANCH  29  31
ATOM     31  N   UNL     1      42.806   5.541  13.344  0.00  0.00    +0.000 NA
ATOM     32  H   UNL     1      43.305   5.196  14.168  0.00  0.00    +0.000 HD
ATOM     33  H   UNL     1      41.829   5.615  13.626  0.00  0.00    +0.000 HD
ENDBRANCH  29  31
ENDBRANCH  24  26
ENDBRANCH  23  24
ENDBRANCH   4  23
TORSDOF 7
ENDMDL
