MODEL 1
REMARK VINA RESULT:    -7.968      0.000      0.000
REMARK INTER + INTRA:         -12.316
REMARK INTER:                 -11.229
REMARK INTRA:                  -1.087
REMARK UNBOUND:                -1.087
REMARK  Name = 
REMARK  8 active torsions:
REMARK  status: ('A' for Active; 'I' for Inactive)
REMARK    1  A    between atoms: C_1  and  O_2
REMARK    2  A    between atoms: O_2  and  C_3
REMARK    3  A    between atoms: C_10  and  C_11
REMARK    4  A    between atoms: N_13  and  C_14
REMARK    5  A    between atoms: C_14  and  C_15
REMARK    6  A    between atoms: C_18  and  N_19
REMARK    7  A    between atoms: N_19  and  C_20
REMARK    8  A    between atoms: C_20  and  C_21
REMARK                            x       y       z     vdW  Elec       q    Type
REMARK                         _______ _______ _______ _____ _____    ______ ____
ROOT
ATOM      1  C   UNL     1      45.688   7.754  12.588  0.00  0.00    +0.000 C 
ENDROOT
BRANCH   1   2
ATOM      2  C   UNL     1      45.234   6.713  11.599  0.00  0.00    +0.000 A 
ATOM      3  C   UNL     1      46.077   6.293  10.564  0.00  0.00    +0.000 A 
ATOM      4  C   UNL     1      45.687   5.264   9.694  0.00  0.00    +0.000 A 
ATOM      5  C   UNL     1      44.433   4.654   9.803  0.00  0.00    +0.000 A 
ATOM      6  C   UNL     1      43.579   5.114  10.815  0.00  0.00    +0.000 A 
ATOM      7  C   UNL     1      43.966   6.132  11.697  0.00  0.00    +0.000 A 
BRANCH   5   8
ATOM      8  N   UNL     1      44.037   3.540   9.056  0.00  0.00    +0.000 N 
ATOM      9  H   UNL     1      43.860   3.777   8.082  0.00  0.00    +0.000 HD
BRANCH   8  10
ATOM     10  C   UNL     1      44.714   2.251   9.215  0.00  0.00    +0.000 C 
BRANCH  10  11
ATOM     11  C   UNL     1      46.034   2.226   8.413  0.00  0.00    +0.000 C 
ATOM     12  C   UNL     1      45.909   2.930   7.070  0.00  0.00    +0.000 C 
ATOM     13  C   UNL     1      47.096   2.389   6.295  0.00  0.00    +0.000 C 
ATOM     14  C   UNL     1      47.298   0.983   6.840  0.00  0.00    +0.000 C 
ATOM     15  N   UNL     1      46.453   0.864   8.033  0.00  0.00    +0.000 NA
ATOM     16  H   UNL     1      46.974   0.432   8.794  0.00  0.00    +0.000 HD
ENDBRANCH  10  11
ENDBRANCH   8  10
ENDBRANCH   5   8
ENDBRANCH   1   2
BRANCH   1  19
ATOM     17  C   UNL     1      47.774   7.169  13.738  0.00  0.00    +0.000 C 
ATOM     18  O   UNL     1      48.442   7.656  12.824  0.00  0.00    +0.000 OA
ATOM     19  N   UNL     1      46.408   7.171  13.693  0.00  0.00    +0.000 N 
ATOM     20  H   UNL     1      45.870   6.727  14.424  0.00  0.00    +0.000 HD
BRANCH  17  28
ATOM     21  C   UNL     1      47.172   4.332  15.607  0.00  0.00    +0.000 A 
ATOM     22  N   UNL     1      47.122   3.360  16.540  0.00  0.00    +0.000 NA
ATOM     23  C   UNL     1      48.007   3.397  17.540  0.00  0.00    +0.000 A 
ATOM     24  N   UNL     1      48.963   4.300  17.726  0.00  0.00    +0.000 NA
ATOM     25  C   UNL     1      48.972   5.259  16.786  0.00  0.00    +0.000 A 
ATOM     26  S   UNL     1      50.138   6.490  16.864  0.00  0.00    +0.000 S 
ATOM     27  C   UNL     1      49.513   7.235  15.472  0.00  0.00    +0.000 A 
ATOM     28  C   UNL     1      48.419   6.579  14.922  0.00  0.00    +0.000 A 
ATOM     29  C   UNL     1      48.112   5.376  15.696  0.00  0.00    +0.000 A 
BRANCH  21  31
ATOM     30  C   UNL     1      46.813   3.571  13.411  0.00  0.00    +0.000 C 
ATOM     31  O   UNL     1      46.293   4.265  14.545  0.00  0.00    +0.000 OA
ENDBRANCH  21  31
ENDBRANCH  17  28
ENDBRANCH   1  19
TORSDOF 7
ENDMDL
MODEL 2
REMARK VINA RESULT:    -7.492      1.483      2.135
REMARK INTER + INTRA:         -11.645
REMARK INTER:                 -10.478
REMARK INTRA:                  -1.167
REMARK UNBOUND:                -1.087
REMARK  Name = 
REMARK  8 active torsions:
REMARK  status: ('A' for Active; 'I' for Inactive)
REMARK    1  A    between atoms: C_1  and  O_2
REMARK    2  A    between atoms: O_2  and  C_3
REMARK    3  A    between atoms: C_10  and  C_11
REMARK    4  A    between atoms: N_13  and  C_14
REMARK    5  A    between atoms: C_14  and  C_15
REMARK    6  A    between atoms: C_18  and  N_19
REMARK    7  A    between atoms: N_19  and  C_20
REMARK    8  A    between atoms: C_20  and  C_21
REMARK                            x       y       z     vdW  Elec       q    Type
REMARK                         _______ _______ _______ _____ _____    ______ ____
ROOT
ATOM      1  C   UNL     1      47.602   8.456  13.986  0.00  0.00    +0.000 C 
ENDROOT
BRANCH   1   2
ATOM      2  C   UNL     1      46.729   7.831  12.929  0.00  0.00    +0.000 A 
ATOM      3  C   UNL     1      47.173   6.723  12.198  0.00  0.00    +0.000 A 
ATOM      4  C   UNL     1      46.329   6.089  11.275  0.00  0.00    +0.000 A 
ATOM      5  C   UNL     1      45.037   6.562  11.023  0.00  0.00    +0.000 A 
ATOM      6  C   UNL     1      44.620   7.699  11.728  0.00  0.00    +0.000 A 
ATOM      7  C   UNL     1      45.452   8.331  12.663  0.00  0.00    +0.000 A 
BRANCH   5   8
ATOM      8  N   UNL     1      44.105   5.901  10.217  0.00  0.00    +0.000 N 
ATOM      9  H   UNL     1      44.087   6.273   9.271  0.00  0.00    +0.000 HD
BRANCH   8  10
ATOM     10  C   UNL     1      43.978   4.443  10.258  0.00  0.00    +0.000 C 
BRANCH  10  11
ATOM     11  C   UNL     1      44.491   3.814   8.944  0.00  0.00    +0.000 C 
ATOM     12  C   UNL     1      45.255   2.519   9.181  0.00  0.00    +0.000 C 
ATOM     13  C   UNL     1      46.038   2.350   7.892  0.00  0.00    +0.000 C 
ATOM     14  C   UNL     1      46.305   3.771   7.420  0.00  0.00    +0.000 C 
ATOM     15  N   UNL     1      45.481   4.658   8.249  0.00  0.00    +0.000 NA
ATOM     16  H   UNL     1      45.008   5.347   7.667  0.00  0.00    +0.000 HD
ENDBRANCH  10  11
ENDBRANCH   8  10
ENDBRANCH   5   8
ENDBRANCH   1   2
BRANCH   1  19
ATOM     17  C   UNL     1      49.069   6.899  15.185  0.00  0.00    +0.000 C 
ATOM     18  O   UNL     1      49.962   7.061  14.351  0.00  0.00    +0.000 OA
ATOM     19  N   UNL     1      47.871   7.548  15.072  0.00  0.00    +0.000 N 
ATOM     20  H   UNL     1      47.129   7.372  15.734  0.00  0.00    +0.000 HD
BRANCH  17  28
ATOM     21  C   UNL     1      47.358   4.161  16.398  0.00  0.00    +0.000 A 
ATOM     22  N   UNL     1      46.854   3.143  17.125  0.00  0.00    +0.000 NA
ATOM     23  C   UNL     1      47.475   2.807  18.259  0.00  0.00    +0.000 A 
ATOM     24  N   UNL     1      48.567   3.368  18.767  0.00  0.00    +0.000 NA
ATOM     25  C   UNL     1      49.030   4.386  18.023  0.00  0.00    +0.000 A 
ATOM     26  S   UNL     1      50.428   5.212  18.521  0.00  0.00    +0.000 S 
ATOM     27  C   UNL     1      50.340   6.261  17.188  0.00  0.00    +0.000 A 
ATOM     28  C   UNL     1      49.262   6.016  16.346  0.00  0.00    +0.000 A 
ATOM     29  C   UNL     1      48.492   4.872  16.833  0.00  0.00    +0.000 A 
BRANCH  21  31
ATOM     30  C   UNL     1      47.089   3.588  14.133  0.00  0.00    +0.000 C 
ATOM     31  O   UNL     1      46.748   4.473  15.200  0.00  0.00    +0.000 OA
ENDBRANCH  21  31
ENDBRANCH  17  28
ENDBRANCH   1  19
TORSDOF 7
ENDMDL
MODEL 3
REMARK VINA RESULT:    -7.460      1.827      2.326
REMARK INTER + INTRA:         -11.600
REMARK INTER:                 -10.706
REMARK INTRA:                  -0.894
REMARK UNBOUND:                -1.087
REMARK  Name = 
REMARK  8 active torsions:
REMARK  status: ('A' for Active; 'I' for Inactive)
REMARK    1  A    between atoms: C_1  and  O_2
REMARK    2  A    between atoms: O_2  and  C_3
REMARK    3  A    between atoms: C_10  and  C_11
REMARK    4  A    between atoms: N_13  and  C_14
REMARK    5  A    between atoms: C_14  and  C_15
REMARK    6  A    between atoms: C_18  and  N_19
REMARK    7  A    between atoms: N_19  and  C_20
REMARK    8  A    between atoms: C_20  and  C_21
REMARK                            x       y       z     vdW  Elec       q    Type
REMARK                         _______ _______ _______ _____ _____    ______ ____
ROOT
ATOM      1  C   UNL     1      47.741   6.906  13.221  0.00  0.00    +0.000 C 
ENDROOT
BRANCH   1   2
ATOM      2  C   UNL     1      46.803   5.859  12.678  0.00  0.00    +0.000 A 
ATOM      3  C   UNL     1      46.056   6.100  11.519  0.00  0.00    +0.000 A 
ATOM      4  C   UNL     1      45.248   5.096  10.967  0.00  0.00    +0.000 A 
ATOM      5  C   UNL     1      45.126   3.841  11.573  0.00  0.00    +0.000 A 
ATOM      6  C   UNL     1      45.843   3.627  12.759  0.00  0.00    +0.000 A 
ATOM      7  C   UNL     1      46.665   4.620  13.310  0.00  0.00    +0.000 A 
BRANCH   5   8
ATOM      8  N   UNL     1      44.445   2.761  11.006  0.00  0.00    +0.000 N 
ATOM      9  H   UNL     1      43.568   2.568  11.484  0.00  0.00    +0.000 HD
BRANCH   8  10
ATOM     10  C   UNL     1      44.343   2.617   9.552  0.00  0.00    +0.000 C 
BRANCH  10  11
ATOM     11  C   UNL     1      45.737   2.390   8.929  0.00  0.00    +0.000 C 
ATOM     12  C   UNL     1      45.959   3.233   7.681  0.00  0.00    +0.000 C 
ATOM     13  C   UNL     1      47.118   2.530   7.001  0.00  0.00    +0.000 C 
ATOM     14  C   UNL     1      46.954   1.067   7.383  0.00  0.00    +0.000 C 
ATOM     15  N   UNL     1      45.931   1.013   8.434  0.00  0.00    +0.000 NA
ATOM     16  H   UNL     1      46.236   0.407   9.193  0.00  0.00    +0.000 HD
ENDBRANCH  10  11
ENDBRANCH   8  10
ENDBRANCH   5   8
ENDBRANCH   1   2
BRANCH   1  19
ATOM     17  C   UNL     1      48.919   6.946  15.372  0.00  0.00    +0.000 C 
ATOM     18  O   UNL     1      50.011   6.932  14.801  0.00  0.00    +0.000 OA
ATOM     19  N   UNL     1      47.750   6.927  14.662  0.00  0.00    +0.000 N 
ATOM     20  H   UNL     1      46.861   6.891  15.140  0.00  0.00    +0.000 HD
BRANCH  17  28
ATOM     21  C   UNL     1      48.910   4.539  17.843  0.00  0.00    +0.000 A 
ATOM     22  N   UNL     1      48.804   3.828  18.984  0.00  0.00    +0.000 NA
ATOM     23  C   UNL     1      48.626   4.493  20.129  0.00  0.00    +0.000 A 
ATOM     24  N   UNL     1      48.545   5.810  20.283  0.00  0.00    +0.000 NA
ATOM     25  C   UNL     1      48.639   6.482  19.124  0.00  0.00    +0.000 A 
ATOM     26  S   UNL     1      48.566   8.178  19.137  0.00  0.00    +0.000 S 
ATOM     27  C   UNL     1      48.720   8.245  17.447  0.00  0.00    +0.000 A 
ATOM     28  C   UNL     1      48.827   7.000  16.839  0.00  0.00    +0.000 A 
ATOM     29  C   UNL     1      48.806   5.942  17.850  0.00  0.00    +0.000 A 
BRANCH  21  31
ATOM     30  C   UNL     1      48.134   2.906  16.340  0.00  0.00    +0.000 C 
ATOM     31  O   UNL     1      49.147   3.856  16.667  0.00  0.00    +0.000 OA
ENDBRANCH  21  31
ENDBRANCH  17  28
ENDBRANCH   1  19
TORSDOF 7
ENDMDL
MODEL 4
REMARK VINA RESULT:    -7.353      1.389      1.774
REMARK INTER + INTRA:         -11.449
REMARK INTER:                 -10.381
REMARK INTRA:                  -1.068
REMARK UNBOUND:                -1.087
REMARK  Name = 
REMARK  8 active torsions:
REMARK  status: ('A' for Active; 'I' for Inactive)
REMARK    1  A    between atoms: C_1  and  O_2
REMARK    2  A    between atoms: O_2  and  C_3
REMARK    3  A    between atoms: C_10  and  C_11
REMARK    4  A    between atoms: N_13  and  C_14
REMARK    5  A    between atoms: C_14  and  C_15
REMARK    6  A    between atoms: C_18  and  N_19
REMARK    7  A    between atoms: N_19  and  C_20
REMARK    8  A    between atoms: C_20  and  C_21
REMARK                            x       y       z     vdW  Elec       q    Type
REMARK                         _______ _______ _______ _____ _____    ______ ____
ROOT
ATOM      1  C   UNL     1      45.813   7.649  12.906  0.00  0.00    +0.000 C 
ENDROOT
BRANCH   1   2
ATOM      2  C   UNL     1      45.417   6.324  12.309  0.00  0.00    +0.000 A 
ATOM      3  C   UNL     1      45.262   6.180  10.926  0.00  0.00    +0.000 A 
ATOM      4  C   UNL     1      44.976   4.927  10.364  0.00  0.00    +0.000 A 
ATOM      5  C   UNL     1      44.795   3.793  11.163  0.00  0.00    +0.000 A 
ATOM      6  C   UNL     1      44.907   3.959  12.551  0.00  0.00    +0.000 A 
ATOM      7  C   UNL     1      45.207   5.205  13.120  0.00  0.00    +0.000 A 
BRANCH   5   8
ATOM      8  N   UNL     1      44.639   2.498  10.660  0.00  0.00    +0.000 N 
ATOM      9  H   UNL     1      43.956   1.962  11.190  0.00  0.00    +0.000 HD
BRANCH   8  10
ATOM     10  C   UNL     1      44.556   2.258   9.218  0.00  0.00    +0.000 C 
BRANCH  10  11
ATOM     11  C   UNL     1      45.966   2.198   8.593  0.00  0.00    +0.000 C 
ATOM     12  C   UNL     1      46.080   3.046   7.335  0.00  0.00    +0.000 C 
ATOM     13  C   UNL     1      47.317   2.484   6.660  0.00  0.00    +0.000 C 
ATOM     14  C   UNL     1      47.336   1.016   7.061  0.00  0.00    +0.000 C 
ATOM     15  N   UNL     1      46.329   0.850   8.115  0.00  0.00    +0.000 NA
ATOM     16  H   UNL     1      46.707   0.296   8.881  0.00  0.00    +0.000 HD
ENDBRANCH  10  11
ENDBRANCH   8  10
ENDBRANCH   5   8
ENDBRANCH   1   2
BRANCH   1  19
ATOM     17  C   UNL     1      48.234   7.462  13.254  0.00  0.00    +0.000 C 
ATOM     18  O   UNL     1      48.435   7.483  12.038  0.00  0.00    +0.000 OA
ATOM     19  N   UNL     1      46.967   7.532  13.762  0.00  0.00    +0.000 N 
ATOM     20  H   UNL     1      46.810   7.466  14.758  0.00  0.00    +0.000 HD
BRANCH  17  28
ATOM     21  C   UNL     1      48.743   5.679  16.163  0.00  0.00    +0.000 A 
ATOM     22  N   UNL     1      49.173   5.180  17.340  0.00  0.00    +0.000 NA
ATOM     23  C   UNL     1      50.363   5.576  17.798  0.00  0.00    +0.000 A 
ATOM     24  N   UNL     1      51.202   6.424  17.212  0.00  0.00    +0.000 NA
ATOM     25  C   UNL     1      50.732   6.910  16.051  0.00  0.00    +0.000 A 
ATOM     26  S   UNL     1      51.682   8.001  15.162  0.00  0.00    +0.000 S 
ATOM     27  C   UNL     1      50.485   8.141  13.965  0.00  0.00    +0.000 A 
ATOM     28  C   UNL     1      49.351   7.376  14.209  0.00  0.00    +0.000 A 
ATOM     29  C   UNL     1      49.512   6.616  15.448  0.00  0.00    +0.000 A 
BRANCH  21  31
ATOM     30  C   UNL     1      47.369   3.815  15.758  0.00  0.00    +0.000 C 
ATOM     31  O   UNL     1      47.537   5.229  15.663  0.00  0.00    +0.000 OA
ENDBRANCH  21  31
ENDBRANCH  17  28
ENDBRANCH   1  19
TORSDOF 7
ENDMDL
MODEL 5
REMARK VINA RESULT:    -7.283      2.097      3.493
REMARK INTER + INTRA:         -11.351
REMARK INTER:                 -10.272
REMARK INTRA:                  -1.079
REMARK UNBOUND:                -1.087
REMARK  Name = 
REMARK  8 active torsions:
REMARK  status: ('A' for Active; 'I' for Inactive)
REMARK    1  A    between atoms: C_1  and  O_2
REMARK    2  A    between atoms: O_2  and  C_3
REMARK    3  A    between atoms: C_10  and  C_11
REMARK    4  A    between atoms: N_13  and  C_14
REMARK    5  A    between atoms: C_14  and  C_15
REMARK    6  A    between atoms: C_18  and  N_19
REMARK    7  A    between atoms: N_19  and  C_20
REMARK    8  A    between atoms: C_20  and  C_21
REMARK                            x       y       z     vdW  Elec       q    Type
REMARK                         _______ _______ _______ _____ _____    ______ ____
ROOT
ATOM      1  C   UNL     1      46.637   4.370  14.436  0.00  0.00    +0.000 C 
ENDROOT
BRANCH   1   2
ATOM      2  C   UNL     1      46.053   4.525  13.056  0.00  0.00    +0.000 A 
ATOM      3  C   UNL     1      46.227   5.711  12.335  0.00  0.00    +0.000 A 
ATOM      4  C   UNL     1      45.756   5.825  11.019  0.00  0.00    +0.000 A 
ATOM      5  C   UNL     1      45.064   4.780  10.399  0.00  0.00    +0.000 A 
ATOM      6  C   UNL     1      44.856   3.613  11.147  0.00  0.00    +0.000 A 
ATOM      7  C   UNL     1      45.335   3.485  12.458  0.00  0.00    +0.000 A 
BRANCH   5   8
ATOM      8  N   UNL     1      44.687   4.781   9.053  0.00  0.00    +0.000 N 
ATOM      9  H   UNL     1      45.097   5.559   8.542  0.00  0.00    +0.000 HD
BRANCH   8  10
ATOM     10  C   UNL     1      44.667   3.538   8.278  0.00  0.00    +0.000 C 
BRANCH  10  11
ATOM     11  C   UNL     1      46.105   3.069   7.965  0.00  0.00    +0.000 C 
ATOM     12  C   UNL     1      46.502   3.341   6.521  0.00  0.00    +0.000 C 
ATOM     13  C   UNL     1      47.686   2.414   6.317  0.00  0.00    +0.000 C 
ATOM     14  C   UNL     1      47.402   1.228   7.227  0.00  0.00    +0.000 C 
ATOM     15  N   UNL     1      46.273   1.608   8.083  0.00  0.00    +0.000 NA
ATOM     16  H   UNL     1      46.463   1.354   9.051  0.00  0.00    +0.000 HD
ENDBRANCH  10  11
ENDBRANCH   8  10
ENDBRANCH   5   8
ENDBRANCH   1   2
BRANCH   1  19
ATOM     17  C   UNL     1      48.284   5.530  15.835  0.00  0.00    +0.000 C 
ATOM     18  O   UNL     1      48.610   4.470  16.373  0.00  0.00    +0.000 OA
ATOM     19  N   UNL     1      47.312   5.566  14.874  0.00  0.00    +0.000 N 
ATOM     20  H   UNL     1      47.019   6.445  14.474  0.00  0.00    +0.000 HD
BRANCH  17  28
ATOM     21  C   UNL     1      49.897   7.971  14.007  0.00  0.00    +0.000 A 
ATOM     22  N   UNL     1      50.629   9.016  13.568  0.00  0.00    +0.000 NA
ATOM     23  C   UNL     1      51.074   9.898  14.466  0.00  0.00    +0.000 A 
ATOM     24  N   UNL     1      50.870   9.873  15.779  0.00  0.00    +0.000 NA
ATOM     25  C   UNL     1      50.150   8.812  16.179  0.00  0.00    +0.000 A 
ATOM     26  S   UNL     1      49.787   8.628  17.827  0.00  0.00    +0.000 S 
ATOM     27  C   UNL     1      48.958   7.175  17.530  0.00  0.00    +0.000 A 
ATOM     28  C   UNL     1      48.939   6.798  16.193  0.00  0.00    +0.000 A 
ATOM     29  C   UNL     1      49.632   7.797  15.378  0.00  0.00    +0.000 A 
BRANCH  21  31
ATOM     30  C   UNL     1      49.403   7.595  11.740  0.00  0.00    +0.000 C 
ATOM     31  O   UNL     1      49.392   7.088  13.074  0.00  0.00    +0.000 OA
ENDBRANCH  21  31
ENDBRANCH  17  28
ENDBRANCH   1  19
TORSDOF 7
ENDMDL
MODEL 6
REMARK VINA RESULT:    -6.898      2.967      3.959
REMARK INTER + INTRA:         -10.807
REMARK INTER:                  -9.630
REMARK INTRA:                  -1.178
REMARK UNBOUND:                -1.087
REMARK  Name = 
REMARK  8 active torsions:
REMARK  status: ('A' for Active; 'I' for Inactive)
REMARK    1  A    between atoms: C_1  and  O_2
REMARK    2  A    between atoms: O_2  and  C_3
REMARK    3  A    between atoms: C_10  and  C_11
REMARK    4  A    between atoms: N_13  and  C_14
REMARK    5  A    between atoms: C_14  and  C_15
REMARK    6  A    between atoms: C_18  and  N_19
REMARK    7  A    between atoms: N_19  and  C_20
REMARK    8  A    between atoms: C_20  and  C_21
REMARK                            x       y       z     vdW  Elec       q    Type
REMARK                         _______ _______ _______ _____ _____    ______ ____
ROOT
ATOM      1  C   UNL     1      48.519   6.716  14.172  0.00  0.00    +0.000 C 
ENDROOT
BRANCH   1   2
ATOM      2  C   UNL     1      47.410   6.123  13.342  0.00  0.00    +0.000 A 
ATOM      3  C   UNL     1      46.719   4.988  13.779  0.00  0.00    +0.000 A 
ATOM      4  C   UNL     1      45.632   4.486  13.048  0.00  0.00    +0.000 A 
ATOM      5  C   UNL     1      45.229   5.072  11.843  0.00  0.00    +0.000 A 
ATOM      6  C   UNL     1      45.959   6.182  11.393  0.00  0.00    +0.000 A 
ATOM      7  C   UNL     1      47.038   6.698  12.124  0.00  0.00    +0.000 A 
BRANCH   5   8
ATOM      8  N   UNL     1      44.080   4.703  11.139  0.00  0.00    +0.000 N 
ATOM      9  H   UNL     1      43.746   5.450  10.534  0.00  0.00    +0.000 HD
BRANCH   8  10
ATOM     10  C   UNL     1      43.970   3.380  10.522  0.00  0.00    +0.000 C 
BRANCH  10  11
ATOM     11  C   UNL     1      45.214   3.076   9.659  0.00  0.00    +0.000 C 
ATOM     12  C   UNL     1      45.191   3.815   8.329  0.00  0.00    +0.000 C 
ATOM     13  C   UNL     1      46.191   3.038   7.494  0.00  0.00    +0.000 C 
ATOM     14  C   UNL     1      46.098   1.612   8.017  0.00  0.00    +0.000 C 
ATOM     15  N   UNL     1      45.301   1.662   9.248  0.00  0.00    +0.000 NA
ATOM     16  H   UNL     1      45.745   1.110   9.979  0.00  0.00    +0.000 HD
ENDBRANCH  10  11
ENDBRANCH   8  10
ENDBRANCH   5   8
ENDBRANCH   1   2
BRANCH   1  19
ATOM     17  C   UNL     1      49.033   6.312  16.536  0.00  0.00    +0.000 C 
ATOM     18  O   UNL     1      50.127   5.827  16.240  0.00  0.00    +0.000 OA
ATOM     19  N   UNL     1      48.177   6.767  15.571  0.00  0.00    +0.000 N 
ATOM     20  H   UNL     1      47.264   7.118  15.821  0.00  0.00    +0.000 HD
BRANCH  17  28
ATOM     21  C   UNL     1      47.727   8.899  18.406  0.00  0.00    +0.000 A 
ATOM     22  N   UNL     1      47.291   9.731  19.374  0.00  0.00    +0.000 NA
ATOM     23  C   UNL     1      47.172   9.250  20.614  0.00  0.00    +0.000 A 
ATOM     24  N   UNL     1      47.433   8.012  21.019  0.00  0.00    +0.000 NA
ATOM     25  C   UNL     1      47.879   7.219  20.031  0.00  0.00    +0.000 A 
ATOM     26  S   UNL     1      48.253   5.598  20.370  0.00  0.00    +0.000 S 
ATOM     27  C   UNL     1      48.721   5.320  18.761  0.00  0.00    +0.000 A 
ATOM     28  C   UNL     1      48.609   6.435  17.939  0.00  0.00    +0.000 A 
ATOM     29  C   UNL     1      48.077   7.568  18.697  0.00  0.00    +0.000 A 
BRANCH  21  31
ATOM     30  C   UNL     1      49.000  10.101  16.836  0.00  0.00    +0.000 C 
ATOM     31  O   UNL     1      47.799   9.381  17.114  0.00  0.00    +0.000 OA
ENDBRANCH  21  31
ENDBRANCH  17  28
ENDBRANCH   1  19
TORSDOF 7
ENDMDL
MODEL 7
REMARK VINA RESULT:    -6.861      2.706      3.559
REMARK INTER + INTRA:         -10.755
REMARK INTER:                 -10.063
REMARK INTRA:                  -0.692
REMARK UNBOUND:                -1.087
REMARK  Name = 
REMARK  8 active torsions:
REMARK  status: ('A' for Active; 'I' for Inactive)
REMARK    1  A    between atoms: C_1  and  O_2
REMARK    2  A    between atoms: O_2  and  C_3
REMARK    3  A    between atoms: C_10  and  C_11
REMARK    4  A    between atoms: N_13  and  C_14
REMARK    5  A    between atoms: C_14  and  C_15
REMARK    6  A    between atoms: C_18  and  N_19
REMARK    7  A    between atoms: N_19  and  C_20
REMARK    8  A    between atoms: C_20  and  C_21
REMARK                            x       y       z     vdW  Elec       q    Type
REMARK                         _______ _______ _______ _____ _____    ______ ____
ROOT
ATOM      1  C   UNL     1      47.012   4.541  14.569  0.00  0.00    +0.000 C 
ENDROOT
BRANCH   1   2
ATOM      2  C   UNL     1      46.327   4.652  13.231  0.00  0.00    +0.000 A 
ATOM      3  C   UNL     1      46.498   5.788  12.433  0.00  0.00    +0.000 A 
ATOM      4  C   UNL     1      45.930   5.856  11.152  0.00  0.00    +0.000 A 
ATOM      5  C   UNL     1      45.143   4.816  10.647  0.00  0.00    +0.000 A 
ATOM      6  C   UNL     1      44.941   3.702  11.475  0.00  0.00    +0.000 A 
ATOM      7  C   UNL     1      45.517   3.620  12.750  0.00  0.00    +0.000 A 
BRANCH   5   8
ATOM      8  N   UNL     1      44.660   4.764   9.337  0.00  0.00    +0.000 N 
ATOM      9  H   UNL     1      45.049   5.504   8.757  0.00  0.00    +0.000 HD
BRANCH   8  10
ATOM     10  C   UNL     1      44.545   3.488   8.629  0.00  0.00    +0.000 C 
BRANCH  10  11
ATOM     11  C   UNL     1      45.940   2.953   8.240  0.00  0.00    +0.000 C 
ATOM     12  C   UNL     1      46.267   3.199   6.774  0.00  0.00    +0.000 C 
ATOM     13  C   UNL     1      47.395   2.220   6.511  0.00  0.00    +0.000 C 
ATOM     14  C   UNL     1      47.110   1.051   7.444  0.00  0.00    +0.000 C 
ATOM     15  N   UNL     1      46.050   1.486   8.359  0.00  0.00    +0.000 NA
ATOM     16  H   UNL     1      46.282   1.228   9.317  0.00  0.00    +0.000 HD
ENDBRANCH  10  11
ENDBRANCH   8  10
ENDBRANCH   5   8
ENDBRANCH   1   2
BRANCH   1  19
ATOM     17  C   UNL     1      48.479   5.937  15.952  0.00  0.00    +0.000 C 
ATOM     18  O   UNL     1      49.062   4.940  16.383  0.00  0.00    +0.000 OA
ATOM     19  N   UNL     1      47.450   5.824  15.059  0.00  0.00    +0.000 N 
ATOM     20  H   UNL     1      46.949   6.643  14.749  0.00  0.00    +0.000 HD
BRANCH  17  28
ATOM     21  C   UNL     1      47.836   7.846  18.752  0.00  0.00    +0.000 A 
ATOM     22  N   UNL     1      47.690   8.822  19.672  0.00  0.00    +0.000 NA
ATOM     23  C   UNL     1      48.274  10.001  19.442  0.00  0.00    +0.000 A 
ATOM     24  N   UNL     1      49.008  10.335  18.387  0.00  0.00    +0.000 NA
ATOM     25  C   UNL     1      49.118   9.343  17.487  0.00  0.00    +0.000 A 
ATOM     26  S   UNL     1      50.033   9.596  16.079  0.00  0.00    +0.000 S 
ATOM     27  C   UNL     1      49.686   8.032  15.516  0.00  0.00    +0.000 A 
ATOM     28  C   UNL     1      48.877   7.291  16.370  0.00  0.00    +0.000 A 
ATOM     29  C   UNL     1      48.559   8.070  17.566  0.00  0.00    +0.000 A 
BRANCH  21  31
ATOM     30  C   UNL     1      47.467   6.170  20.359  0.00  0.00    +0.000 C 
ATOM     31  O   UNL     1      47.278   6.611  19.015  0.00  0.00    +0.000 OA
ENDBRANCH  21  31
ENDBRANCH  17  28
ENDBRANCH   1  19
TORSDOF 7
ENDMDL
MODEL 8
REMARK VINA RESULT:    -6.728      2.670      4.111
REMARK INTER + INTRA:         -10.568
REMARK INTER:                  -9.573
REMARK INTRA:                  -0.995
REMARK UNBOUND:                -1.087
REMARK  Name = 
REMARK  8 active torsions:
REMARK  status: ('A' for Active; 'I' for Inactive)
REMARK    1  A    between atoms: C_1  and  O_2
REMARK    2  A    between atoms: O_2  and  C_3
REMARK    3  A    between atoms: C_10  and  C_11
REMARK    4  A    between atoms: N_13  and  C_14
REMARK    5  A    between atoms: C_14  and  C_15
REMARK    6  A    between atoms: C_18  and  N_19
REMARK    7  A    between atoms: N_19  and  C_20
REMARK    8  A    between atoms: C_20  and  C_21
REMARK                            x       y       z     vdW  Elec       q    Type
REMARK                         _______ _______ _______ _____ _____    ______ ____
ROOT
ATOM      1  C   UNL     1      49.313   7.733  15.391  0.00  0.00    +0.000 C 
ENDROOT
BRANCH   1   2
ATOM      2  C   UNL     1      48.542   7.225  14.202  0.00  0.00    +0.000 A 
ATOM      3  C   UNL     1      47.679   6.130  14.324  0.00  0.00    +0.000 A 
ATOM      4  C   UNL     1      46.897   5.709  13.238  0.00  0.00    +0.000 A 
ATOM      5  C   UNL     1      46.981   6.338  11.991  0.00  0.00    +0.000 A 
ATOM      6  C   UNL     1      47.883   7.405  11.869  0.00  0.00    +0.000 A 
ATOM      7  C   UNL     1      48.658   7.841  12.953  0.00  0.00    +0.000 A 
BRANCH   5   8
ATOM      8  N   UNL     1      46.139   6.054  10.913  0.00  0.00    +0.000 N 
ATOM      9  H   UNL     1      46.650   5.677  10.118  0.00  0.00    +0.000 HD
BRANCH   8  10
ATOM     10  C   UNL     1      44.847   5.397  11.122  0.00  0.00    +0.000 C 
BRANCH  10  11
ATOM     11  C   UNL     1      44.484   4.510   9.912  0.00  0.00    +0.000 C 
ATOM     12  C   UNL     1      44.770   3.037  10.166  0.00  0.00    +0.000 C 
ATOM     13  C   UNL     1      44.803   2.454   8.766  0.00  0.00    +0.000 C 
ATOM     14  C   UNL     1      45.315   3.589   7.892  0.00  0.00    +0.000 C 
ATOM     15  N   UNL     1      45.298   4.803   8.717  0.00  0.00    +0.000 NA
ATOM     16  H   UNL     1      44.892   5.578   8.197  0.00  0.00    +0.000 HD
ENDBRANCH  10  11
ENDBRANCH   8  10
ENDBRANCH   5   8
ENDBRANCH   1   2
BRANCH   1  19
ATOM     17  C   UNL     1      50.157   6.112  17.028  0.00  0.00    +0.000 C 
ATOM     18  O   UNL     1      49.186   6.311  17.760  0.00  0.00    +0.000 OA
ATOM     19  N   UNL     1      50.297   6.781  15.843  0.00  0.00    +0.000 N 
ATOM     20  H   UNL     1      51.120   6.647  15.273  0.00  0.00    +0.000 HD
BRANCH  17  28
ATOM     21  C   UNL     1      50.282   2.665  17.038  0.00  0.00    +0.000 A 
ATOM     22  N   UNL     1      50.582   1.361  17.214  0.00  0.00    +0.000 NA
ATOM     23  C   UNL     1      51.780   1.049  17.712  0.00  0.00    +0.000 A 
ATOM     24  N   UNL     1      52.745   1.894  18.059  0.00  0.00    +0.000 NA
ATOM     25  C   UNL     1      52.405   3.182  17.883  0.00  0.00    +0.000 A 
ATOM     26  S   UNL     1      53.526   4.398  18.266  0.00  0.00    +0.000 S 
ATOM     27  C   UNL     1      52.426   5.616  17.828  0.00  0.00    +0.000 A 
ATOM     28  C   UNL     1      51.198   5.136  17.389  0.00  0.00    +0.000 A 
ATOM     29  C   UNL     1      51.196   3.673  17.396  0.00  0.00    +0.000 A 
BRANCH  21  31
ATOM     30  C   UNL     1      47.974   2.937  17.393  0.00  0.00    +0.000 C 
ATOM     31  O   UNL     1      49.064   2.986  16.473  0.00  0.00    +0.000 OA
ENDBRANCH  21  31
ENDBRANCH  17  28
ENDBRANCH   1  19
TORSDOF 7
ENDMDL
MODEL 9
REMARK VINA RESULT:    -6.501      2.106      2.944
REMARK INTER + INTRA:         -10.248
REMARK INTER:                  -9.221
REMARK INTRA:                  -1.027
REMARK UNBOUND:                -1.087
REMARK  Name = 
REMARK  8 active torsions:
REMARK  status: ('A' for Active; 'I' for Inactive)
REMARK    1  A    between atoms: C_1  and  O_2
REMARK    2  A    between atoms: O_2  and  C_3
REMARK    3  A    between atoms: C_10  and  C_11
REMARK    4  A    between atoms: N_13  and  C_14
REMARK    5  A    between atoms: C_14  and  C_15
REMARK    6  A    between atoms: C_18  and  N_19
REMARK    7  A    between atoms: N_19  and  C_20
REMARK    8  A    between atoms: C_20  and  C_21
REMARK                            x       y       z     vdW  Elec       q    Type
REMARK                         _______ _______ _______ _____ _____    ______ ____
ROOT
ATOM      1  C   UNL     1      47.680   7.672  13.675  0.00  0.00    +0.000 C 
ENDROOT
BRANCH   1   2
ATOM      2  C   UNL     1      46.713   6.565  13.346  0.00  0.00    +0.000 A 
ATOM      3  C   UNL     1      47.070   5.225  13.529  0.00  0.00    +0.000 A 
ATOM      4  C   UNL     1      46.141   4.198  13.304  0.00  0.00    +0.000 A 
ATOM      5  C   UNL     1      44.847   4.473  12.850  0.00  0.00    +0.000 A 
ATOM      6  C   UNL     1      44.515   5.817  12.627  0.00  0.00    +0.000 A 
ATOM      7  C   UNL     1      45.432   6.849  12.863  0.00  0.00    +0.000 A 
BRANCH   5   8
ATOM      8  N   UNL     1      43.838   3.512  12.733  0.00  0.00    +0.000 N 
ATOM      9  H   UNL     1      43.067   3.687  13.373  0.00  0.00    +0.000 HD
BRANCH   8  10
ATOM     10  C   UNL     1      43.392   3.050  11.417  0.00  0.00    +0.000 C 
BRANCH  10  11
ATOM     11  C   UNL     1      44.560   3.069  10.408  0.00  0.00    +0.000 C 
ATOM     12  C   UNL     1      44.332   4.060   9.276  0.00  0.00    +0.000 C 
ATOM     13  C   UNL     1      45.304   3.586   8.212  0.00  0.00    +0.000 C 
ATOM     14  C   UNL     1      45.393   2.081   8.420  0.00  0.00    +0.000 C 
ATOM     15  N   UNL     1      44.728   1.788   9.694  0.00  0.00    +0.000 NA
ATOM     16  H   UNL     1      45.294   1.148  10.249  0.00  0.00    +0.000 HD
ENDBRANCH  10  11
ENDBRANCH   8  10
ENDBRANCH   5   8
ENDBRANCH   1   2
BRANCH   1  19
ATOM     17  C   UNL     1      49.250   7.690  15.560  0.00  0.00    +0.000 C 
ATOM     18  O   UNL     1      48.624   8.602  16.103  0.00  0.00    +0.000 OA
ATOM     19  N   UNL     1      48.852   7.180  14.355  0.00  0.00    +0.000 N 
ATOM     20  H   UNL     1      49.399   6.466  13.895  0.00  0.00    +0.000 HD
BRANCH  17  28
ATOM     21  C   UNL     1      49.888   4.648  17.057  0.00  0.00    +0.000 A 
ATOM     22  N   UNL     1      50.387   3.603  17.749  0.00  0.00    +0.000 NA
ATOM     23  C   UNL     1      51.643   3.682  18.196  0.00  0.00    +0.000 A 
ATOM     24  N   UNL     1      52.486   4.695  18.031  0.00  0.00    +0.000 NA
ATOM     25  C   UNL     1      51.950   5.722  17.351  0.00  0.00    +0.000 A 
ATOM     26  S   UNL     1      52.894   7.097  17.039  0.00  0.00    +0.000 S 
ATOM     27  C   UNL     1      51.604   7.860  16.239  0.00  0.00    +0.000 A 
ATOM     28  C   UNL     1      50.441   7.101  16.192  0.00  0.00    +0.000 A 
ATOM     29  C   UNL     1      50.658   5.805  16.836  0.00  0.00    +0.000 A 
BRANCH  21  31
ATOM     30  C   UNL     1      48.053   3.235  16.656  0.00  0.00    +0.000 C 
ATOM     31  O   UNL     1      48.609   4.545  16.548  0.00  0.00    +0.000 OA
ENDBRANCH  21  31
ENDBRANCH  17  28
ENDBRANCH   1  19
TORSDOF 7
ENDMDL
