MODEL 1
REMARK VINA RESULT:    -7.931      0.000      0.000
REMARK INTER + INTRA:         -13.269
REMARK INTER:                 -11.640
REMARK INTRA:                  -1.629
REMARK UNBOUND:                -1.629
REMARK  Name = 
REMARK  9 active torsions:
REMARK  status: ('A' for Active; 'I' for Inactive)
REMARK    1  A    between atoms: C_1  and  C_2
REMARK    2  A    between atoms: C_2  and  N_3
REMARK    3  A    between atoms: C_2  and  C_16
REMARK    4  A    between atoms: C_4  and  C_6
REMARK    5  A    between atoms: C_19  and  C_20
REMARK    6  A    between atoms: C_20  and  O_21
REMARK    7  A    between atoms: O_21  and  C_22
REMARK    8  A    between atoms: C_22  and  C_23
REMARK    9  A    between atoms: C_28  and  C_29
REMARK                            x       y       z     vdW  Elec       q    Type
REMARK                         _______ _______ _______ _____ _____    ______ ____
ROOT
ATOM      1  C   UNL     1      48.126   7.775  13.708  0.00  0.00    +0.000 A 
ATOM      2  C   UNL     1      47.952   8.925  14.487  0.00  0.00    +0.000 A 
ATOM      3  C   UNL     1      48.255   8.908  15.852  0.00  0.00    +0.000 A 
ATOM      4  C   UNL     1      48.730   7.741  16.469  0.00  0.00    +0.000 A 
ATOM      5  C   UNL     1      48.926   6.598  15.688  0.00  0.00    +0.000 A 
ATOM      6  C   UNL     1      48.627   6.617  14.327  0.00  0.00    +0.000 A 
ENDROOT
BRANCH   1   8
ATOM      7  C   UNL     1      48.997   7.834  11.365  0.00  0.00    +0.000 C 
ATOM      8  C   UNL     1      47.737   7.757  12.235  0.00  0.00    +0.000 C 
BRANCH   8   9
ATOM      9  N   UNL     1      46.943   6.565  11.978  0.00  0.00    +0.000 N 
ATOM     10  C   UNL     1      45.573   6.547  11.974  0.00  0.00    +0.000 C 
ATOM     11  O   UNL     1      44.892   7.557  12.143  0.00  0.00    +0.000 OA
ATOM     12  H   UNL     1      47.420   5.682  12.148  0.00  0.00    +0.000 HD
BRANCH  10  13
ATOM     13  C   UNL     1      44.942   5.255  11.681  0.00  0.00    +0.000 A 
ATOM     14  C   UNL     1      44.204   4.611  12.665  0.00  0.00    +0.000 A 
ATOM     15  S   UNL     1      43.533   3.129  12.156  0.00  0.00    +0.000 S 
ATOM     16  C   UNL     1      44.239   3.275  10.615  0.00  0.00    +0.000 A 
ATOM     17  N   UNL     1      44.091   2.297   9.681  0.00  0.00    +0.000 NA
ATOM     18  C   UNL     1      44.701   2.529   8.566  0.00  0.00    +0.000 A 
ATOM     19  N   UNL     1      45.436   3.654   8.297  0.00  0.00    +0.000 N 
ATOM     20  C   UNL     1      45.588   4.681   9.198  0.00  0.00    +0.000 A 
ATOM     21  O   UNL     1      46.202   5.700   8.911  0.00  0.00    +0.000 OA
ATOM     22  C   UNL     1      44.947   4.456  10.478  0.00  0.00    +0.000 A 
ATOM     23  H   UNL     1      45.876   3.782   7.395  0.00  0.00    +0.000 HD
ENDBRANCH  10  13
ENDBRANCH   8   9
ENDBRANCH   1   8
BRANCH   4  24
ATOM     24  C   UNL     1      49.004   7.710  17.950  0.00  0.00    +0.000 C 
BRANCH  24  25
ATOM     25  O   UNL     1      49.966   6.689  18.198  0.00  0.00    +0.000 OA
BRANCH  25  26
ATOM     26  C   UNL     1      49.383   5.538  18.804  0.00  0.00    +0.000 C 
BRANCH  26  27
ATOM     27  C   UNL     1      49.896   4.259  18.164  0.00  0.00    +0.000 A 
ATOM     28  C   UNL     1      51.268   3.943  18.222  0.00  0.00    +0.000 A 
ATOM     29  C   UNL     1      51.762   2.745  17.705  0.00  0.00    +0.000 A 
ATOM     30  C   UNL     1      50.893   1.830  17.129  0.00  0.00    +0.000 A 
ATOM     31  C   UNL     1      49.537   2.132  17.032  0.00  0.00    +0.000 A 
ATOM     32  C   UNL     1      49.020   3.352  17.521  0.00  0.00    +0.000 A 
BRANCH  32  33
ATOM     33  C   UNL     1      47.544   3.611  17.299  0.00  0.00    +0.000 C 
ATOM     34  F   UNL     1      47.065   4.749  17.870  0.00  0.00    +0.000 F 
ATOM     35  F   UNL     1      47.240   3.716  15.973  0.00  0.00    +0.000 F 
ATOM     36  F   UNL     1      46.761   2.604  17.777  0.00  0.00    +0.000 F 
ENDBRANCH  32  33
ENDBRANCH  26  27
ENDBRANCH  25  26
ENDBRANCH  24  25
ENDBRANCH   4  24
TORSDOF 8
ENDMDL
MODEL 2
REMARK VINA RESULT:    -7.866      4.287      8.964
REMARK INTER + INTRA:         -13.174
REMARK INTER:                 -11.713
REMARK INTRA:                  -1.461
REMARK UNBOUND:                -1.629
REMARK  Name = 
REMARK  9 active torsions:
REMARK  status: ('A' for Active; 'I' for Inactive)
REMARK    1  A    between atoms: C_1  and  C_2
REMARK    2  A    between atoms: C_2  and  N_3
REMARK    3  A    between atoms: C_2  and  C_16
REMARK    4  A    between atoms: C_4  and  C_6
REMARK    5  A    between atoms: C_19  and  C_20
REMARK    6  A    between atoms: C_20  and  O_21
REMARK    7  A    between atoms: O_21  and  C_22
REMARK    8  A    between atoms: C_22  and  C_23
REMARK    9  A    between atoms: C_28  and  C_29
REMARK                            x       y       z     vdW  Elec       q    Type
REMARK                         _______ _______ _______ _____ _____    ______ ____
ROOT
ATOM      1  C   UNL     1      48.021   4.805  16.164  0.00  0.00    +0.000 A 
ATOM      2  C   UNL     1      47.091   4.219  15.296  0.00  0.00    +0.000 A 
ATOM      3  C   UNL     1      46.696   4.881  14.130  0.00  0.00    +0.000 A 
ATOM      4  C   UNL     1      47.214   6.145  13.811  0.00  0.00    +0.000 A 
ATOM      5  C   UNL     1      48.160   6.722  14.664  0.00  0.00    +0.000 A 
ATOM      6  C   UNL     1      48.556   6.059  15.825  0.00  0.00    +0.000 A 
ENDROOT
BRANCH   1   8
ATOM      7  C   UNL     1      47.557   2.870  17.679  0.00  0.00    +0.000 C 
ATOM      8  C   UNL     1      48.411   4.127  17.472  0.00  0.00    +0.000 C 
BRANCH   8   9
ATOM      9  N   UNL     1      49.839   3.844  17.442  0.00  0.00    +0.000 N 
ATOM     10  C   UNL     1      50.701   4.168  18.455  0.00  0.00    +0.000 C 
ATOM     11  O   UNL     1      50.331   4.689  19.505  0.00  0.00    +0.000 OA
ATOM     12  H   UNL     1      50.235   3.719  16.513  0.00  0.00    +0.000 HD
BRANCH  10  13
ATOM     13  C   UNL     1      52.106   3.792  18.256  0.00  0.00    +0.000 A 
ATOM     14  C   UNL     1      53.104   4.739  18.441  0.00  0.00    +0.000 A 
ATOM     15  S   UNL     1      54.677   4.135  18.178  0.00  0.00    +0.000 S 
ATOM     16  C   UNL     1      54.077   2.597  17.769  0.00  0.00    +0.000 A 
ATOM     17  N   UNL     1      54.916   1.596  17.388  0.00  0.00    +0.000 NA
ATOM     18  C   UNL     1      54.322   0.491  17.081  0.00  0.00    +0.000 A 
ATOM     19  N   UNL     1      52.966   0.292  17.131  0.00  0.00    +0.000 N 
ATOM     20  C   UNL     1      52.083   1.263  17.539  0.00  0.00    +0.000 A 
ATOM     21  O   UNL     1      50.883   1.041  17.629  0.00  0.00    +0.000 OA
ATOM     22  C   UNL     1      52.698   2.535  17.866  0.00  0.00    +0.000 A 
ATOM     23  H   UNL     1      52.565  -0.605  16.893  0.00  0.00    +0.000 HD
ENDBRANCH  10  13
ENDBRANCH   8   9
ENDBRANCH   1   8
BRANCH   4  24
ATOM     24  C   UNL     1      46.746   6.881  12.582  0.00  0.00    +0.000 C 
BRANCH  24  25
ATOM     25  O   UNL     1      46.667   5.944  11.512  0.00  0.00    +0.000 OA
BRANCH  25  26
ATOM     26  C   UNL     1      45.385   5.948  10.889  0.00  0.00    +0.000 C 
BRANCH  26  27
ATOM     27  C   UNL     1      45.236   4.781   9.928  0.00  0.00    +0.000 A 
ATOM     28  C   UNL     1      45.883   4.811   8.677  0.00  0.00    +0.000 A 
ATOM     29  C   UNL     1      45.823   3.728   7.799  0.00  0.00    +0.000 A 
ATOM     30  C   UNL     1      45.124   2.585   8.158  0.00  0.00    +0.000 A 
ATOM     31  C   UNL     1      44.451   2.541   9.376  0.00  0.00    +0.000 A 
ATOM     32  C   UNL     1      44.474   3.637  10.267  0.00  0.00    +0.000 A 
BRANCH  32  33
ATOM     33  C   UNL     1      43.648   3.513  11.530  0.00  0.00    +0.000 C 
ATOM     34  F   UNL     1      44.344   3.650  12.691  0.00  0.00    +0.000 F 
ATOM     35  F   UNL     1      42.660   4.452  11.588  0.00  0.00    +0.000 F 
ATOM     36  F   UNL     1      43.017   2.309  11.623  0.00  0.00    +0.000 F 
ENDBRANCH  32  33
ENDBRANCH  26  27
ENDBRANCH  25  26
ENDBRANCH  24  25
ENDBRANCH   4  24
TORSDOF 8
ENDMDL
MODEL 3
REMARK VINA RESULT:    -7.865      1.207      1.998
REMARK INTER + INTRA:         -13.172
REMARK INTER:                 -11.459
REMARK INTRA:                  -1.713
REMARK UNBOUND:                -1.629
REMARK  Name = 
REMARK  9 active torsions:
REMARK  status: ('A' for Active; 'I' for Inactive)
REMARK    1  A    between atoms: C_1  and  C_2
REMARK    2  A    between atoms: C_2  and  N_3
REMARK    3  A    between atoms: C_2  and  C_16
REMARK    4  A    between atoms: C_4  and  C_6
REMARK    5  A    between atoms: C_19  and  C_20
REMARK    6  A    between atoms: C_20  and  O_21
REMARK    7  A    between atoms: O_21  and  C_22
REMARK    8  A    between atoms: C_22  and  C_23
REMARK    9  A    between atoms: C_28  and  C_29
REMARK                            x       y       z     vdW  Elec       q    Type
REMARK                         _______ _______ _______ _____ _____    ______ ____
ROOT
ATOM      1  C   UNL     1      48.355   7.952  13.640  0.00  0.00    +0.000 A 
ATOM      2  C   UNL     1      48.748   6.734  14.208  0.00  0.00    +0.000 A 
ATOM      3  C   UNL     1      48.861   6.603  15.595  0.00  0.00    +0.000 A 
ATOM      4  C   UNL     1      48.591   7.687  16.444  0.00  0.00    +0.000 A 
ATOM      5  C   UNL     1      48.177   8.898  15.880  0.00  0.00    +0.000 A 
ATOM      6  C   UNL     1      48.062   9.026  14.497  0.00  0.00    +0.000 A 
ENDROOT
BRANCH   1   8
ATOM      7  C   UNL     1      49.713   8.267  11.564  0.00  0.00    +0.000 C 
ATOM      8  C   UNL     1      48.293   8.131  12.128  0.00  0.00    +0.000 C 
BRANCH   8   9
ATOM      9  N   UNL     1      47.561   7.011  11.557  0.00  0.00    +0.000 N 
ATOM     10  C   UNL     1      46.197   6.975  11.432  0.00  0.00    +0.000 C 
ATOM     11  O   UNL     1      45.473   7.915  11.753  0.00  0.00    +0.000 OA
ATOM     12  H   UNL     1      48.051   6.119  11.575  0.00  0.00    +0.000 HD
BRANCH  10  13
ATOM     13  C   UNL     1      45.633   5.767  10.818  0.00  0.00    +0.000 A 
ATOM     14  C   UNL     1      45.809   5.541   9.460  0.00  0.00    +0.000 A 
ATOM     15  S   UNL     1      45.100   4.091   8.911  0.00  0.00    +0.000 S 
ATOM     16  C   UNL     1      44.497   3.735  10.461  0.00  0.00    +0.000 A 
ATOM     17  N   UNL     1      43.739   2.626  10.681  0.00  0.00    +0.000 NA
ATOM     18  C   UNL     1      43.328   2.495  11.898  0.00  0.00    +0.000 A 
ATOM     19  N   UNL     1      43.614   3.366  12.918  0.00  0.00    +0.000 N 
ATOM     20  C   UNL     1      44.399   4.481  12.750  0.00  0.00    +0.000 A 
ATOM     21  O   UNL     1      44.685   5.210  13.690  0.00  0.00    +0.000 OA
ATOM     22  C   UNL     1      44.862   4.690  11.392  0.00  0.00    +0.000 A 
ATOM     23  H   UNL     1      43.273   3.196  13.855  0.00  0.00    +0.000 HD
ENDBRANCH  10  13
ENDBRANCH   8   9
ENDBRANCH   1   8
BRANCH   4  24
ATOM     24  C   UNL     1      48.766   7.560  17.935  0.00  0.00    +0.000 C 
BRANCH  24  25
ATOM     25  O   UNL     1      49.831   6.645  18.176  0.00  0.00    +0.000 OA
BRANCH  25  26
ATOM     26  C   UNL     1      49.392   5.481  18.871  0.00  0.00    +0.000 C 
BRANCH  26  27
ATOM     27  C   UNL     1      49.901   4.216  18.203  0.00  0.00    +0.000 A 
ATOM     28  C   UNL     1      51.274   3.900  18.244  0.00  0.00    +0.000 A 
ATOM     29  C   UNL     1      51.766   2.713  17.701  0.00  0.00    +0.000 A 
ATOM     30  C   UNL     1      50.895   1.808  17.113  0.00  0.00    +0.000 A 
ATOM     31  C   UNL     1      49.537   2.110  17.033  0.00  0.00    +0.000 A 
ATOM     32  C   UNL     1      49.022   3.319  17.550  0.00  0.00    +0.000 A 
BRANCH  32  33
ATOM     33  C   UNL     1      47.544   3.579  17.344  0.00  0.00    +0.000 C 
ATOM     34  F   UNL     1      47.052   4.664  18.002  0.00  0.00    +0.000 F 
ATOM     35  F   UNL     1      47.242   3.786  16.030  0.00  0.00    +0.000 F 
ATOM     36  F   UNL     1      46.771   2.530  17.740  0.00  0.00    +0.000 F 
ENDBRANCH  32  33
ENDBRANCH  26  27
ENDBRANCH  25  26
ENDBRANCH  24  25
ENDBRANCH   4  24
TORSDOF 8
ENDMDL
MODEL 4
REMARK VINA RESULT:    -7.643      1.677      2.159
REMARK INTER + INTRA:         -12.846
REMARK INTER:                 -10.670
REMARK INTRA:                  -2.177
REMARK UNBOUND:                -1.629
REMARK  Name = 
REMARK  9 active torsions:
REMARK  status: ('A' for Active; 'I' for Inactive)
REMARK    1  A    between atoms: C_1  and  C_2
REMARK    2  A    between atoms: C_2  and  N_3
REMARK    3  A    between atoms: C_2  and  C_16
REMARK    4  A    between atoms: C_4  and  C_6
REMARK    5  A    between atoms: C_19  and  C_20
REMARK    6  A    between atoms: C_20  and  O_21
REMARK    7  A    between atoms: O_21  and  C_22
REMARK    8  A    between atoms: C_22  and  C_23
REMARK    9  A    between atoms: C_28  and  C_29
REMARK                            x       y       z     vdW  Elec       q    Type
REMARK                         _______ _______ _______ _____ _____    ______ ____
ROOT
ATOM      1  C   UNL     1      48.347   7.917  13.756  0.00  0.00    +0.000 A 
ATOM      2  C   UNL     1      47.876   8.948  14.579  0.00  0.00    +0.000 A 
ATOM      3  C   UNL     1      48.228   8.990  15.931  0.00  0.00    +0.000 A 
ATOM      4  C   UNL     1      49.050   8.001  16.492  0.00  0.00    +0.000 A 
ATOM      5  C   UNL     1      49.540   6.984  15.667  0.00  0.00    +0.000 A 
ATOM      6  C   UNL     1      49.192   6.944  14.318  0.00  0.00    +0.000 A 
ENDROOT
BRANCH   1   8
ATOM      7  C   UNL     1      49.157   7.798  11.393  0.00  0.00    +0.000 C 
ATOM      8  C   UNL     1      47.919   7.818  12.297  0.00  0.00    +0.000 C 
BRANCH   8   9
ATOM      9  N   UNL     1      47.082   6.637  12.137  0.00  0.00    +0.000 N 
ATOM     10  C   UNL     1      45.777   6.678  11.722  0.00  0.00    +0.000 C 
ATOM     11  O   UNL     1      45.212   7.722  11.401  0.00  0.00    +0.000 OA
ATOM     12  H   UNL     1      47.375   5.823  12.672  0.00  0.00    +0.000 HD
BRANCH  10  13
ATOM     13  C   UNL     1      45.093   5.385  11.605  0.00  0.00    +0.000 A 
ATOM     14  C   UNL     1      44.420   4.862  12.700  0.00  0.00    +0.000 A 
ATOM     15  S   UNL     1      43.674   3.360  12.391  0.00  0.00    +0.000 S 
ATOM     16  C   UNL     1      44.259   3.337  10.794  0.00  0.00    +0.000 A 
ATOM     17  N   UNL     1      44.013   2.280   9.973  0.00  0.00    +0.000 NA
ATOM     18  C   UNL     1      44.538   2.385   8.798  0.00  0.00    +0.000 A 
ATOM     19  N   UNL     1      45.277   3.455   8.365  0.00  0.00    +0.000 N 
ATOM     20  C   UNL     1      45.525   4.558   9.147  0.00  0.00    +0.000 A 
ATOM     21  O   UNL     1      46.140   5.524   8.717  0.00  0.00    +0.000 OA
ATOM     22  C   UNL     1      44.982   4.476  10.489  0.00  0.00    +0.000 A 
ATOM     23  H   UNL     1      45.647   3.482   7.424  0.00  0.00    +0.000 HD
ENDBRANCH  10  13
ENDBRANCH   8   9
ENDBRANCH   1   8
BRANCH   4  24
ATOM     24  C   UNL     1      49.383   8.020  17.961  0.00  0.00    +0.000 C 
BRANCH  24  25
ATOM     25  O   UNL     1      48.270   7.485  18.671  0.00  0.00    +0.000 OA
BRANCH  25  26
ATOM     26  C   UNL     1      48.613   6.307  19.398  0.00  0.00    +0.000 C 
BRANCH  26  27
ATOM     27  C   UNL     1      48.506   5.070  18.523  0.00  0.00    +0.000 A 
ATOM     28  C   UNL     1      47.269   4.717  17.948  0.00  0.00    +0.000 A 
ATOM     29  C   UNL     1      47.150   3.627  17.086  0.00  0.00    +0.000 A 
ATOM     30  C   UNL     1      48.270   2.871  16.768  0.00  0.00    +0.000 A 
ATOM     31  C   UNL     1      49.498   3.181  17.346  0.00  0.00    +0.000 A 
ATOM     32  C   UNL     1      49.634   4.262  18.245  0.00  0.00    +0.000 A 
BRANCH  32  33
ATOM     33  C   UNL     1      50.999   4.465  18.872  0.00  0.00    +0.000 C 
ATOM     34  F   UNL     1      51.000   4.575  20.229  0.00  0.00    +0.000 F 
ATOM     35  F   UNL     1      51.847   3.434  18.593  0.00  0.00    +0.000 F 
ATOM     36  F   UNL     1      51.620   5.588  18.414  0.00  0.00    +0.000 F 
ENDBRANCH  32  33
ENDBRANCH  26  27
ENDBRANCH  25  26
ENDBRANCH  24  25
ENDBRANCH   4  24
TORSDOF 8
ENDMDL
MODEL 5
REMARK VINA RESULT:    -7.332      4.527      8.925
REMARK INTER + INTRA:         -12.389
REMARK INTER:                 -11.407
REMARK INTRA:                  -0.982
REMARK UNBOUND:                -1.629
REMARK  Name = 
REMARK  9 active torsions:
REMARK  status: ('A' for Active; 'I' for Inactive)
REMARK    1  A    between atoms: C_1  and  C_2
REMARK    2  A    between atoms: C_2  and  N_3
REMARK    3  A    between atoms: C_2  and  C_16
REMARK    4  A    between atoms: C_4  and  C_6
REMARK    5  A    between atoms: C_19  and  C_20
REMARK    6  A    between atoms: C_20  and  O_21
REMARK    7  A    between atoms: O_21  and  C_22
REMARK    8  A    between atoms: C_22  and  C_23
REMARK    9  A    between atoms: C_28  and  C_29
REMARK                            x       y       z     vdW  Elec       q    Type
REMARK                         _______ _______ _______ _____ _____    ______ ____
ROOT
ATOM      1  C   UNL     1      48.056   4.843  16.158  0.00  0.00    +0.000 A 
ATOM      2  C   UNL     1      48.599   6.100  15.861  0.00  0.00    +0.000 A 
ATOM      3  C   UNL     1      48.349   6.705  14.626  0.00  0.00    +0.000 A 
ATOM      4  C   UNL     1      47.558   6.066  13.660  0.00  0.00    +0.000 A 
ATOM      5  C   UNL     1      46.996   4.822  13.963  0.00  0.00    +0.000 A 
ATOM      6  C   UNL     1      47.243   4.221  15.196  0.00  0.00    +0.000 A 
ENDROOT
BRANCH   1   8
ATOM      7  C   UNL     1      47.471   2.912  17.636  0.00  0.00    +0.000 C 
ATOM      8  C   UNL     1      48.375   4.140  17.472  0.00  0.00    +0.000 C 
BRANCH   8   9
ATOM      9  N   UNL     1      49.792   3.806  17.489  0.00  0.00    +0.000 N 
ATOM     10  C   UNL     1      50.660   4.218  18.466  0.00  0.00    +0.000 C 
ATOM     11  O   UNL     1      50.302   4.870  19.444  0.00  0.00    +0.000 OA
ATOM     12  H   UNL     1      50.189   3.560  16.586  0.00  0.00    +0.000 HD
BRANCH  10  13
ATOM     13  C   UNL     1      52.051   3.773  18.326  0.00  0.00    +0.000 A 
ATOM     14  C   UNL     1      53.086   4.652  18.612  0.00  0.00    +0.000 A 
ATOM     15  S   UNL     1      54.637   3.974  18.406  0.00  0.00    +0.000 S 
ATOM     16  C   UNL     1      53.980   2.492  17.889  0.00  0.00    +0.000 A 
ATOM     17  N   UNL     1      54.785   1.464  17.506  0.00  0.00    +0.000 NA
ATOM     18  C   UNL     1      54.151   0.410  17.113  0.00  0.00    +0.000 A 
ATOM     19  N   UNL     1      52.786   0.285  17.079  0.00  0.00    +0.000 N 
ATOM     20  C   UNL     1      51.935   1.284  17.485  0.00  0.00    +0.000 A 
ATOM     21  O   UNL     1      50.721   1.126  17.498  0.00  0.00    +0.000 OA
ATOM     22  C   UNL     1      52.597   2.503  17.907  0.00  0.00    +0.000 A 
ATOM     23  H   UNL     1      52.352  -0.576  16.775  0.00  0.00    +0.000 HD
ENDBRANCH  10  13
ENDBRANCH   8   9
ENDBRANCH   1   8
BRANCH   4  24
ATOM     24  C   UNL     1      47.334   6.696  12.309  0.00  0.00    +0.000 C 
BRANCH  24  25
ATOM     25  O   UNL     1      45.949   7.005  12.193  0.00  0.00    +0.000 OA
BRANCH  25  26
ATOM     26  C   UNL     1      45.374   6.457  11.009  0.00  0.00    +0.000 C 
BRANCH  26  27
ATOM     27  C   UNL     1      44.711   5.119  11.288  0.00  0.00    +0.000 A 
ATOM     28  C   UNL     1      44.119   4.873  12.543  0.00  0.00    +0.000 A 
ATOM     29  C   UNL     1      43.443   3.682  12.809  0.00  0.00    +0.000 A 
ATOM     30  C   UNL     1      43.333   2.713  11.821  0.00  0.00    +0.000 A 
ATOM     31  C   UNL     1      43.935   2.919  10.582  0.00  0.00    +0.000 A 
ATOM     32  C   UNL     1      44.650   4.105  10.302  0.00  0.00    +0.000 A 
BRANCH  32  33
ATOM     33  C   UNL     1      45.327   4.194   8.950  0.00  0.00    +0.000 C 
ATOM     34  F   UNL     1      44.487   4.363   7.893  0.00  0.00    +0.000 F 
ATOM     35  F   UNL     1      46.201   5.240   8.886  0.00  0.00    +0.000 F 
ATOM     36  F   UNL     1      46.061   3.084   8.660  0.00  0.00    +0.000 F 
ENDBRANCH  32  33
ENDBRANCH  26  27
ENDBRANCH  25  26
ENDBRANCH  24  25
ENDBRANCH   4  24
TORSDOF 8
ENDMDL
MODEL 6
REMARK VINA RESULT:    -6.948      1.308      2.284
REMARK INTER + INTRA:         -11.826
REMARK INTER:                 -10.060
REMARK INTRA:                  -1.766
REMARK UNBOUND:                -1.629
REMARK  Name = 
REMARK  9 active torsions:
REMARK  status: ('A' for Active; 'I' for Inactive)
REMARK    1  A    between atoms: C_1  and  C_2
REMARK    2  A    between atoms: C_2  and  N_3
REMARK    3  A    between atoms: C_2  and  C_16
REMARK    4  A    between atoms: C_4  and  C_6
REMARK    5  A    between atoms: C_19  and  C_20
REMARK    6  A    between atoms: C_20  and  O_21
REMARK    7  A    between atoms: O_21  and  C_22
REMARK    8  A    between atoms: C_22  and  C_23
REMARK    9  A    between atoms: C_28  and  C_29
REMARK                            x       y       z     vdW  Elec       q    Type
REMARK                         _______ _______ _______ _____ _____    ______ ____
ROOT
ATOM      1  C   UNL     1      48.853   7.477  13.537  0.00  0.00    +0.000 A 
ATOM      2  C   UNL     1      48.304   6.775  14.617  0.00  0.00    +0.000 A 
ATOM      3  C   UNL     1      49.072   6.515  15.756  0.00  0.00    +0.000 A 
ATOM      4  C   UNL     1      50.406   6.944  15.837  0.00  0.00    +0.000 A 
ATOM      5  C   UNL     1      50.948   7.665  14.769  0.00  0.00    +0.000 A 
ATOM      6  C   UNL     1      50.181   7.926  13.635  0.00  0.00    +0.000 A 
ENDROOT
BRANCH   1   8
ATOM      7  C   UNL     1      49.006   7.952  11.086  0.00  0.00    +0.000 C 
ATOM      8  C   UNL     1      48.051   7.709  12.262  0.00  0.00    +0.000 C 
BRANCH   8   9
ATOM      9  N   UNL     1      47.172   6.568  12.051  0.00  0.00    +0.000 N 
ATOM     10  C   UNL     1      45.815   6.671  11.897  0.00  0.00    +0.000 C 
ATOM     11  O   UNL     1      45.225   7.749  11.876  0.00  0.00    +0.000 OA
ATOM     12  H   UNL     1      47.539   5.674  12.370  0.00  0.00    +0.000 HD
BRANCH  10  13
ATOM     13  C   UNL     1      45.090   5.413  11.679  0.00  0.00    +0.000 A 
ATOM     14  C   UNL     1      44.340   4.865  12.711  0.00  0.00    +0.000 A 
ATOM     15  S   UNL     1      43.556   3.411  12.289  0.00  0.00    +0.000 S 
ATOM     16  C   UNL     1      44.225   3.440  10.724  0.00  0.00    +0.000 A 
ATOM     17  N   UNL     1      43.985   2.435   9.840  0.00  0.00    +0.000 NA
ATOM     18  C   UNL     1      44.577   2.575   8.701  0.00  0.00    +0.000 A 
ATOM     19  N   UNL     1      45.378   3.634   8.361  0.00  0.00    +0.000 N 
ATOM     20  C   UNL     1      45.624   4.687   9.210  0.00  0.00    +0.000 A 
ATOM     21  O   UNL     1      46.297   5.648   8.860  0.00  0.00    +0.000 OA
ATOM     22  C   UNL     1      45.006   4.563  10.515  0.00  0.00    +0.000 A 
ATOM     23  H   UNL     1      45.799   3.692   7.444  0.00  0.00    +0.000 HD
ENDBRANCH  10  13
ENDBRANCH   8   9
ENDBRANCH   1   8
BRANCH   4  24
ATOM     24  C   UNL     1      51.248   6.615  17.043  0.00  0.00    +0.000 C 
BRANCH  24  25
ATOM     25  O   UNL     1      51.227   5.203  17.222  0.00  0.00    +0.000 OA
BRANCH  25  26
ATOM     26  C   UNL     1      50.943   4.837  18.570  0.00  0.00    +0.000 C 
BRANCH  26  27
ATOM     27  C   UNL     1      49.546   5.275  18.977  0.00  0.00    +0.000 A 
ATOM     28  C   UNL     1      49.373   6.415  19.787  0.00  0.00    +0.000 A 
ATOM     29  C   UNL     1      48.102   6.884  20.123  0.00  0.00    +0.000 A 
ATOM     30  C   UNL     1      46.975   6.232  19.645  0.00  0.00    +0.000 A 
ATOM     31  C   UNL     1      47.120   5.086  18.867  0.00  0.00    +0.000 A 
ATOM     32  C   UNL     1      48.395   4.576  18.540  0.00  0.00    +0.000 A 
BRANCH  32  33
ATOM     33  C   UNL     1      48.437   3.284  17.751  0.00  0.00    +0.000 C 
ATOM     34  F   UNL     1      49.399   2.402  18.137  0.00  0.00    +0.000 F 
ATOM     35  F   UNL     1      47.262   2.596  17.836  0.00  0.00    +0.000 F 
ATOM     36  F   UNL     1      48.646   3.492  16.421  0.00  0.00    +0.000 F 
ENDBRANCH  32  33
ENDBRANCH  26  27
ENDBRANCH  25  26
ENDBRANCH  24  25
ENDBRANCH   4  24
TORSDOF 8
ENDMDL
MODEL 7
REMARK VINA RESULT:    -6.941      4.523      8.899
REMARK INTER + INTRA:         -11.815
REMARK INTER:                 -11.494
REMARK INTRA:                  -0.321
REMARK UNBOUND:                -1.629
REMARK  Name = 
REMARK  9 active torsions:
REMARK  status: ('A' for Active; 'I' for Inactive)
REMARK    1  A    between atoms: C_1  and  C_2
REMARK    2  A    between atoms: C_2  and  N_3
REMARK    3  A    between atoms: C_2  and  C_16
REMARK    4  A    between atoms: C_4  and  C_6
REMARK    5  A    between atoms: C_19  and  C_20
REMARK    6  A    between atoms: C_20  and  O_21
REMARK    7  A    between atoms: O_21  and  C_22
REMARK    8  A    between atoms: C_22  and  C_23
REMARK    9  A    between atoms: C_28  and  C_29
REMARK                            x       y       z     vdW  Elec       q    Type
REMARK                         _______ _______ _______ _____ _____    ______ ____
ROOT
ATOM      1  C   UNL     1      47.885   4.605  16.373  0.00  0.00    +0.000 A 
ATOM      2  C   UNL     1      48.500   5.840  16.135  0.00  0.00    +0.000 A 
ATOM      3  C   UNL     1      48.388   6.457  14.886  0.00  0.00    +0.000 A 
ATOM      4  C   UNL     1      47.665   5.852  13.847  0.00  0.00    +0.000 A 
ATOM      5  C   UNL     1      47.030   4.630  14.090  0.00  0.00    +0.000 A 
ATOM      6  C   UNL     1      47.140   4.017  15.337  0.00  0.00    +0.000 A 
ENDROOT
BRANCH   1   8
ATOM      7  C   UNL     1      47.119   2.672  17.764  0.00  0.00    +0.000 C 
ATOM      8  C   UNL     1      48.054   3.886  17.706  0.00  0.00    +0.000 C 
BRANCH   8   9
ATOM      9  N   UNL     1      49.456   3.529  17.868  0.00  0.00    +0.000 N 
ATOM     10  C   UNL     1      50.071   2.520  17.174  0.00  0.00    +0.000 C 
ATOM     11  O   UNL     1      49.496   1.855  16.315  0.00  0.00    +0.000 OA
ATOM     12  H   UNL     1      49.875   3.810  18.751  0.00  0.00    +0.000 HD
BRANCH  10  13
ATOM     13  C   UNL     1      51.496   2.313  17.457  0.00  0.00    +0.000 A 
ATOM     14  C   UNL     1      51.992   1.022  17.579  0.00  0.00    +0.000 A 
ATOM     15  S   UNL     1      53.665   0.960  17.899  0.00  0.00    +0.000 S 
ATOM     16  C   UNL     1      53.779   2.657  17.928  0.00  0.00    +0.000 A 
ATOM     17  N   UNL     1      54.959   3.277  18.201  0.00  0.00    +0.000 NA
ATOM     18  C   UNL     1      54.892   4.566  18.215  0.00  0.00    +0.000 A 
ATOM     19  N   UNL     1      53.756   5.294  17.970  0.00  0.00    +0.000 N 
ATOM     20  C   UNL     1      52.550   4.713  17.659  0.00  0.00    +0.000 A 
ATOM     21  O   UNL     1      51.565   5.387  17.389  0.00  0.00    +0.000 OA
ATOM     22  C   UNL     1      52.564   3.263  17.661  0.00  0.00    +0.000 A 
ATOM     23  H   UNL     1      53.776   6.305  17.980  0.00  0.00    +0.000 HD
ENDBRANCH  10  13
ENDBRANCH   8   9
ENDBRANCH   1   8
BRANCH   4  24
ATOM     24  C   UNL     1      47.591   6.494  12.486  0.00  0.00    +0.000 C 
BRANCH  24  25
ATOM     25  O   UNL     1      46.230   6.830  12.233  0.00  0.00    +0.000 OA
BRANCH  25  26
ATOM     26  C   UNL     1      45.762   6.281  11.003  0.00  0.00    +0.000 C 
BRANCH  26  27
ATOM     27  C   UNL     1      44.949   5.019  11.238  0.00  0.00    +0.000 A 
ATOM     28  C   UNL     1      44.350   4.789  12.493  0.00  0.00    +0.000 A 
ATOM     29  C   UNL     1      43.541   3.676  12.721  0.00  0.00    +0.000 A 
ATOM     30  C   UNL     1      43.303   2.772  11.696  0.00  0.00    +0.000 A 
ATOM     31  C   UNL     1      43.907   2.960  10.455  0.00  0.00    +0.000 A 
ATOM     32  C   UNL     1      44.753   4.064  10.212  0.00  0.00    +0.000 A 
BRANCH  32  33
ATOM     33  C   UNL     1      45.417   4.133   8.851  0.00  0.00    +0.000 C 
ATOM     34  F   UNL     1      44.565   4.271   7.799  0.00  0.00    +0.000 F 
ATOM     35  F   UNL     1      46.279   5.187   8.758  0.00  0.00    +0.000 F 
ATOM     36  F   UNL     1      46.160   3.025   8.578  0.00  0.00    +0.000 F 
ENDBRANCH  32  33
ENDBRANCH  26  27
ENDBRANCH  25  26
ENDBRANCH  24  25
ENDBRANCH   4  24
TORSDOF 8
ENDMDL
MODEL 8
REMARK VINA RESULT:    -6.823      4.024      8.273
REMARK INTER + INTRA:         -11.643
REMARK INTER:                 -10.290
REMARK INTRA:                  -1.352
REMARK UNBOUND:                -1.629
REMARK  Name = 
REMARK  9 active torsions:
REMARK  status: ('A' for Active; 'I' for Inactive)
REMARK    1  A    between atoms: C_1  and  C_2
REMARK    2  A    between atoms: C_2  and  N_3
REMARK    3  A    between atoms: C_2  and  C_16
REMARK    4  A    between atoms: C_4  and  C_6
REMARK    5  A    between atoms: C_19  and  C_20
REMARK    6  A    between atoms: C_20  and  O_21
REMARK    7  A    between atoms: O_21  and  C_22
REMARK    8  A    between atoms: C_22  and  C_23
REMARK    9  A    between atoms: C_28  and  C_29
REMARK                            x       y       z     vdW  Elec       q    Type
REMARK                         _______ _______ _______ _____ _____    ______ ____
ROOT
ATOM      1  C   UNL     1      48.380   8.530  13.410  0.00  0.00    +0.000 A 
ATOM      2  C   UNL     1      48.770   7.660  12.384  0.00  0.00    +0.000 A 
ATOM      3  C   UNL     1      47.808   7.009  11.606  0.00  0.00    +0.000 A 
ATOM      4  C   UNL     1      46.439   7.207  11.840  0.00  0.00    +0.000 A 
ATOM      5  C   UNL     1      46.048   8.093  12.849  0.00  0.00    +0.000 A 
ATOM      6  C   UNL     1      47.008   8.744  13.622  0.00  0.00    +0.000 A 
ENDROOT
BRANCH   1   8
ATOM      7  C   UNL     1      48.998  10.643  14.598  0.00  0.00    +0.000 C 
ATOM      8  C   UNL     1      49.414   9.195  14.312  0.00  0.00    +0.000 C 
BRANCH   8   9
ATOM      9  N   UNL     1      49.557   8.397  15.521  0.00  0.00    +0.000 N 
ATOM     10  C   UNL     1      50.657   7.630  15.802  0.00  0.00    +0.000 C 
ATOM     11  O   UNL     1      51.644   7.586  15.071  0.00  0.00    +0.000 OA
ATOM     12  H   UNL     1      48.685   8.148  15.981  0.00  0.00    +0.000 HD
BRANCH  10  13
ATOM     13  C   UNL     1      50.632   6.904  17.077  0.00  0.00    +0.000 A 
ATOM     14  C   UNL     1      51.540   7.234  18.074  0.00  0.00    +0.000 A 
ATOM     15  S   UNL     1      51.369   6.302  19.491  0.00  0.00    +0.000 S 
ATOM     16  C   UNL     1      50.102   5.395  18.808  0.00  0.00    +0.000 A 
ATOM     17  N   UNL     1      49.521   4.375  19.495  0.00  0.00    +0.000 NA
ATOM     18  C   UNL     1      48.591   3.758  18.845  0.00  0.00    +0.000 A 
ATOM     19  N   UNL     1      48.182   4.074  17.575  0.00  0.00    +0.000 N 
ATOM     20  C   UNL     1      48.719   5.115  16.855  0.00  0.00    +0.000 A 
ATOM     21  O   UNL     1      48.296   5.411  15.745  0.00  0.00    +0.000 OA
ATOM     22  C   UNL     1      49.790   5.822  17.529  0.00  0.00    +0.000 A 
ATOM     23  H   UNL     1      47.435   3.560  17.128  0.00  0.00    +0.000 HD
ENDBRANCH  10  13
ENDBRANCH   8   9
ENDBRANCH   1   8
BRANCH   4  24
ATOM     24  C   UNL     1      45.405   6.462  11.035  0.00  0.00    +0.000 C 
BRANCH  24  25
ATOM     25  O   UNL     1      46.073   5.445  10.295  0.00  0.00    +0.000 OA
BRANCH  25  26
ATOM     26  C   UNL     1      45.543   5.303   8.980  0.00  0.00    +0.000 C 
BRANCH  26  27
ATOM     27  C   UNL     1      45.937   3.969   8.368  0.00  0.00    +0.000 A 
ATOM     28  C   UNL     1      46.799   3.932   7.254  0.00  0.00    +0.000 A 
ATOM     29  C   UNL     1      47.235   2.724   6.710  0.00  0.00    +0.000 A 
ATOM     30  C   UNL     1      46.829   1.524   7.276  0.00  0.00    +0.000 A 
ATOM     31  C   UNL     1      45.954   1.533   8.359  0.00  0.00    +0.000 A 
ATOM     32  C   UNL     1      45.476   2.744   8.906  0.00  0.00    +0.000 A 
BRANCH  32  33
ATOM     33  C   UNL     1      44.471   2.638  10.035  0.00  0.00    +0.000 C 
ATOM     34  F   UNL     1      43.480   3.570  10.015  0.00  0.00    +0.000 F 
ATOM     35  F   UNL     1      43.833   1.433  10.037  0.00  0.00    +0.000 F 
ATOM     36  F   UNL     1      45.053   2.750  11.262  0.00  0.00    +0.000 F 
ENDBRANCH  32  33
ENDBRANCH  26  27
ENDBRANCH  25  26
ENDBRANCH  24  25
ENDBRANCH   4  24
TORSDOF 8
ENDMDL
MODEL 9
REMARK VINA RESULT:    -6.792      3.342      5.337
REMARK INTER + INTRA:         -11.597
REMARK INTER:                  -9.022
REMARK INTRA:                  -2.576
REMARK UNBOUND:                -1.629
REMARK  Name = 
REMARK  9 active torsions:
REMARK  status: ('A' for Active; 'I' for Inactive)
REMARK    1  A    between atoms: C_1  and  C_2
REMARK    2  A    between atoms: C_2  and  N_3
REMARK    3  A    between atoms: C_2  and  C_16
REMARK    4  A    between atoms: C_4  and  C_6
REMARK    5  A    between atoms: C_19  and  C_20
REMARK    6  A    between atoms: C_20  and  O_21
REMARK    7  A    between atoms: O_21  and  C_22
REMARK    8  A    between atoms: C_22  and  C_23
REMARK    9  A    between atoms: C_28  and  C_29
REMARK                            x       y       z     vdW  Elec       q    Type
REMARK                         _______ _______ _______ _____ _____    ______ ____
ROOT
ATOM      1  C   UNL     1      48.599   4.738  17.633  0.00  0.00    +0.000 A 
ATOM      2  C   UNL     1      49.997   4.809  17.597  0.00  0.00    +0.000 A 
ATOM      3  C   UNL     1      50.687   5.646  18.479  0.00  0.00    +0.000 A 
ATOM      4  C   UNL     1      49.995   6.436  19.410  0.00  0.00    +0.000 A 
ATOM      5  C   UNL     1      48.600   6.350  19.463  0.00  0.00    +0.000 A 
ATOM      6  C   UNL     1      47.914   5.512  18.585  0.00  0.00    +0.000 A 
ENDROOT
BRANCH   1   8
ATOM      7  C   UNL     1      46.821   2.997  17.378  0.00  0.00    +0.000 C 
ATOM      8  C   UNL     1      47.829   3.883  16.634  0.00  0.00    +0.000 C 
BRANCH   8   9
ATOM      9  N   UNL     1      47.201   4.760  15.657  0.00  0.00    +0.000 N 
ATOM     10  C   UNL     1      46.970   4.408  14.354  0.00  0.00    +0.000 C 
ATOM     11  O   UNL     1      47.234   3.294  13.907  0.00  0.00    +0.000 OA
ATOM     12  H   UNL     1      47.257   5.754  15.869  0.00  0.00    +0.000 HD
BRANCH  10  13
ATOM     13  C   UNL     1      46.312   5.418  13.516  0.00  0.00    +0.000 A 
ATOM     14  C   UNL     1      46.923   6.648  13.315  0.00  0.00    +0.000 A 
ATOM     15  S   UNL     1      46.030   7.699  12.312  0.00  0.00    +0.000 S 
ATOM     16  C   UNL     1      44.776   6.561  12.144  0.00  0.00    +0.000 A 
ATOM     17  N   UNL     1      43.657   6.853  11.427  0.00  0.00    +0.000 NA
ATOM     18  C   UNL     1      42.778   5.907  11.405  0.00  0.00    +0.000 A 
ATOM     19  N   UNL     1      42.920   4.693  12.025  0.00  0.00    +0.000 N 
ATOM     20  C   UNL     1      44.044   4.342  12.733  0.00  0.00    +0.000 A 
ATOM     21  O   UNL     1      44.169   3.231  13.229  0.00  0.00    +0.000 OA
ATOM     22  C   UNL     1      45.051   5.382  12.814  0.00  0.00    +0.000 A 
ATOM     23  H   UNL     1      42.198   3.988  11.955  0.00  0.00    +0.000 HD
ENDBRANCH  10  13
ENDBRANCH   8   9
ENDBRANCH   1   8
BRANCH   4  24
ATOM     24  C   UNL     1      50.736   7.378  20.322  0.00  0.00    +0.000 C 
BRANCH  24  25
ATOM     25  O   UNL     1      51.601   8.177  19.520  0.00  0.00    +0.000 OA
BRANCH  25  26
ATOM     26  C   UNL     1      51.026   9.442  19.207  0.00  0.00    +0.000 C 
BRANCH  26  27
ATOM     27  C   UNL     1      50.113   9.348  17.997  0.00  0.00    +0.000 A 
ATOM     28  C   UNL     1      50.617   8.877  16.768  0.00  0.00    +0.000 A 
ATOM     29  C   UNL     1      49.791   8.713  15.656  0.00  0.00    +0.000 A 
ATOM     30  C   UNL     1      48.438   9.005  15.749  0.00  0.00    +0.000 A 
ATOM     31  C   UNL     1      47.921   9.501  16.944  0.00  0.00    +0.000 A 
ATOM     32  C   UNL     1      48.745   9.703  18.073  0.00  0.00    +0.000 A 
BRANCH  32  33
ATOM     33  C   UNL     1      48.094  10.315  19.297  0.00  0.00    +0.000 C 
ATOM     34  F   UNL     1      46.769  10.596  19.167  0.00  0.00    +0.000 F 
ATOM     35  F   UNL     1      48.185   9.497  20.385  0.00  0.00    +0.000 F 
ATOM     36  F   UNL     1      48.682  11.487  19.667  0.00  0.00    +0.000 F 
ENDBRANCH  32  33
ENDBRANCH  26  27
ENDBRANCH  25  26
ENDBRANCH  24  25
ENDBRANCH   4  24
TORSDOF 8
ENDMDL
