MODEL 1
REMARK VINA RESULT:    -9.077      0.000      0.000
REMARK INTER + INTRA:         -13.298
REMARK INTER:                 -12.261
REMARK INTRA:                  -1.037
REMARK UNBOUND:                -1.037
REMARK  Name = 
REMARK  6 active torsions:
REMARK  status: ('A' for Active; 'I' for Inactive)
REMARK    1  A    between atoms: C_2  and  C_4
REMARK    2  A    between atoms: C_7  and  N_8
REMARK    3  A    between atoms: N_8  and  C_9
REMARK    4  A    between atoms: C_9  and  C_10
REMARK    5  A    between atoms: C_10  and  C_13
REMARK    6  A    between atoms: C_17  and  N_18
REMARK                            x       y       z     vdW  Elec       q    Type
REMARK                         _______ _______ _______ _____ _____    ______ ____
ROOT
ATOM      1  C   UNL     1      43.478   4.565  11.105  0.00  0.00    +0.000 C 
ENDROOT
BRANCH   1   2
ATOM      2  C   UNL     1      43.807   4.652  12.617  0.00  0.00    +0.000 C 
ATOM      3  F   UNL     1      42.897   5.483  13.212  0.00  0.00    +0.000 F 
ATOM      4  F   UNL     1      43.596   3.426  13.182  0.00  0.00    +0.000 F 
BRANCH   2   5
ATOM      5  C   UNL     1      45.232   5.133  12.785  0.00  0.00    +0.000 A 
ATOM      6  C   UNL     1      45.816   5.978  11.836  0.00  0.00    +0.000 A 
ATOM      7  C   UNL     1      47.088   6.495  12.053  0.00  0.00    +0.000 A 
ATOM      8  C   UNL     1      47.770   6.201  13.237  0.00  0.00    +0.000 A 
ATOM      9  C   UNL     1      47.211   5.383  14.227  0.00  0.00    +0.000 A 
ATOM     10  C   UNL     1      45.955   4.820  13.950  0.00  0.00    +0.000 A 
BRANCH   9  11
ATOM     11  N   UNL     1      47.825   5.185  15.443  0.00  0.00    +0.000 N 
ATOM     12  C   UNL     1      47.512   4.035  16.304  0.00  0.00    +0.000 C 
ATOM     13  C   UNL     1      47.225   4.527  17.733  0.00  0.00    +0.000 C 
ATOM     14  O   UNL     1      48.302   5.325  18.251  0.00  0.00    +0.000 OA
ATOM     15  C   UNL     1      48.523   6.472  17.409  0.00  0.00    +0.000 C 
ATOM     16  C   UNL     1      48.879   6.058  15.974  0.00  0.00    +0.000 C 
ENDBRANCH   9  11
ENDBRANCH   2   5
ENDBRANCH   1   2
BRANCH   1  17
ATOM     17  N   UNL     1      43.721   3.244  10.507  0.00  0.00    +0.000 N 
ATOM     18  H   UNL     1      43.148   2.470  10.828  0.00  0.00    +0.000 HD
BRANCH  17  22
ATOM     19  C   UNL     1      46.442   2.721   7.328  0.00  0.00    +0.000 A 
ATOM     20  C   UNL     1      45.945   3.991   7.645  0.00  0.00    +0.000 A 
ATOM     21  C   UNL     1      45.041   4.149   8.706  0.00  0.00    +0.000 A 
ATOM     22  C   UNL     1      44.620   3.057   9.477  0.00  0.00    +0.000 A 
ATOM     23  C   UNL     1      45.120   1.798   9.135  0.00  0.00    +0.000 A 
ATOM     24  C   UNL     1      46.011   1.634   8.083  0.00  0.00    +0.000 A 
ATOM     25  F   UNL     1      46.444   0.387   7.829  0.00  0.00    +0.000 F 
BRANCH  19  27
ATOM     26  N   UNL     1      48.667   2.108   6.535  0.00  0.00    +0.000 N 
ATOM     27  C   UNL     1      47.420   2.573   6.220  0.00  0.00    +0.000 C 
ATOM     28  O   UNL     1      47.134   2.870   5.069  0.00  0.00    +0.000 OA
ATOM     29  H   UNL     1      49.357   2.049   5.799  0.00  0.00    +0.000 HD
ATOM     30  H   UNL     1      48.943   1.871   7.478  0.00  0.00    +0.000 HD
ENDBRANCH  19  27
ENDBRANCH  17  22
ENDBRANCH   1  17
TORSDOF 6
ENDMDL
MODEL 2
REMARK VINA RESULT:    -8.694      2.503      3.297
REMARK INTER + INTRA:         -12.781
REMARK INTER:                 -11.833
REMARK INTRA:                  -0.948
REMARK UNBOUND:                -1.037
REMARK  Name = 
REMARK  6 active torsions:
REMARK  status: ('A' for Active; 'I' for Inactive)
REMARK    1  A    between atoms: C_2  and  C_4
REMARK    2  A    between atoms: C_7  and  N_8
REMARK    3  A    between atoms: N_8  and  C_9
REMARK    4  A    between atoms: C_9  and  C_10
REMARK    5  A    between atoms: C_10  and  C_13
REMARK    6  A    between atoms: C_17  and  N_18
REMARK                            x       y       z     vdW  Elec       q    Type
REMARK                         _______ _______ _______ _____ _____    ______ ____
ROOT
ATOM      1  C   UNL     1      43.303   3.663  11.424  0.00  0.00    +0.000 C 
ENDROOT
BRANCH   1   2
ATOM      2  C   UNL     1      43.332   4.452  12.757  0.00  0.00    +0.000 C 
ATOM      3  F   UNL     1      42.443   5.489  12.668  0.00  0.00    +0.000 F 
ATOM      4  F   UNL     1      42.847   3.650  13.752  0.00  0.00    +0.000 F 
BRANCH   2   5
ATOM      5  C   UNL     1      44.747   4.919  13.025  0.00  0.00    +0.000 A 
ATOM      6  C   UNL     1      45.788   3.994  13.158  0.00  0.00    +0.000 A 
ATOM      7  C   UNL     1      47.098   4.437  13.302  0.00  0.00    +0.000 A 
ATOM      8  C   UNL     1      47.380   5.806  13.275  0.00  0.00    +0.000 A 
ATOM      9  C   UNL     1      46.371   6.765  13.115  0.00  0.00    +0.000 A 
ATOM     10  C   UNL     1      45.052   6.291  13.042  0.00  0.00    +0.000 A 
BRANCH   9  11
ATOM     11  N   UNL     1      46.654   8.104  12.970  0.00  0.00    +0.000 N 
ATOM     12  C   UNL     1      45.600   9.123  12.862  0.00  0.00    +0.000 C 
ATOM     13  C   UNL     1      45.880  10.025  11.649  0.00  0.00    +0.000 C 
ATOM     14  O   UNL     1      47.197  10.600  11.701  0.00  0.00    +0.000 OA
ATOM     15  C   UNL     1      48.194   9.561  11.739  0.00  0.00    +0.000 C 
ATOM     16  C   UNL     1      48.016   8.653  12.963  0.00  0.00    +0.000 C 
ENDBRANCH   9  11
ENDBRANCH   2   5
ENDBRANCH   1   2
BRANCH   1  17
ATOM     17  N   UNL     1      43.831   4.404  10.269  0.00  0.00    +0.000 N 
ATOM     18  H   UNL     1      43.560   5.377  10.170  0.00  0.00    +0.000 HD
BRANCH  17  22
ATOM     19  C   UNL     1      46.604   2.755   7.553  0.00  0.00    +0.000 A 
ATOM     20  C   UNL     1      46.444   4.142   7.662  0.00  0.00    +0.000 A 
ATOM     21  C   UNL     1      45.518   4.675   8.570  0.00  0.00    +0.000 A 
ATOM     22  C   UNL     1      44.741   3.848   9.393  0.00  0.00    +0.000 A 
ATOM     23  C   UNL     1      44.909   2.468   9.260  0.00  0.00    +0.000 A 
ATOM     24  C   UNL     1      45.821   1.933   8.358  0.00  0.00    +0.000 A 
ATOM     25  F   UNL     1      45.919   0.594   8.301  0.00  0.00    +0.000 F 
BRANCH  19  27
ATOM     26  N   UNL     1      47.802   2.876   5.431  0.00  0.00    +0.000 N 
ATOM     27  C   UNL     1      47.608   2.206   6.607  0.00  0.00    +0.000 C 
ATOM     28  O   UNL     1      48.231   1.183   6.855  0.00  0.00    +0.000 OA
ATOM     29  H   UNL     1      48.447   2.487   4.757  0.00  0.00    +0.000 HD
ATOM     30  H   UNL     1      47.292   3.714   5.186  0.00  0.00    +0.000 HD
ENDBRANCH  19  27
ENDBRANCH  17  22
ENDBRANCH   1  17
TORSDOF 6
ENDMDL
MODEL 3
REMARK VINA RESULT:    -8.505      1.542      1.982
REMARK INTER + INTRA:         -12.525
REMARK INTER:                 -11.593
REMARK INTRA:                  -0.932
REMARK UNBOUND:                -1.037
REMARK  Name = 
REMARK  6 active torsions:
REMARK  status: ('A' for Active; 'I' for Inactive)
REMARK    1  A    between atoms: C_2  and  C_4
REMARK    2  A    between atoms: C_7  and  N_8
REMARK    3  A    between atoms: N_8  and  C_9
REMARK    4  A    between atoms: C_9  and  C_10
REMARK    5  A    between atoms: C_10  and  C_13
REMARK    6  A    between atoms: C_17  and  N_18
REMARK                            x       y       z     vdW  Elec       q    Type
REMARK                         _______ _______ _______ _____ _____    ______ ____
ROOT
ATOM      1  C   UNL     1      44.092   3.318  11.852  0.00  0.00    +0.000 C 
ENDROOT
BRANCH   1   2
ATOM      2  C   UNL     1      43.431   4.665  12.237  0.00  0.00    +0.000 C 
ATOM      3  F   UNL     1      42.361   4.876  11.410  0.00  0.00    +0.000 F 
ATOM      4  F   UNL     1      42.896   4.548  13.490  0.00  0.00    +0.000 F 
BRANCH   2   5
ATOM      5  C   UNL     1      44.464   5.767  12.147  0.00  0.00    +0.000 A 
ATOM      6  C   UNL     1      44.120   7.027  11.644  0.00  0.00    +0.000 A 
ATOM      7  C   UNL     1      45.049   8.060  11.661  0.00  0.00    +0.000 A 
ATOM      8  C   UNL     1      46.315   7.854  12.217  0.00  0.00    +0.000 A 
ATOM      9  C   UNL     1      46.691   6.617  12.757  0.00  0.00    +0.000 A 
ATOM     10  C   UNL     1      45.757   5.574  12.663  0.00  0.00    +0.000 A 
BRANCH   9  11
ATOM     11  N   UNL     1      47.890   6.441  13.409  0.00  0.00    +0.000 N 
ATOM     12  C   UNL     1      47.995   5.708  14.680  0.00  0.00    +0.000 C 
ATOM     13  C   UNL     1      48.787   6.549  15.694  0.00  0.00    +0.000 C 
ATOM     14  O   UNL     1      50.070   6.942  15.179  0.00  0.00    +0.000 OA
ATOM     15  C   UNL     1      49.910   7.712  13.973  0.00  0.00    +0.000 C 
ATOM     16  C   UNL     1      49.179   6.912  12.885  0.00  0.00    +0.000 C 
ENDBRANCH   9  11
ENDBRANCH   2   5
ENDBRANCH   1   2
BRANCH   1  17
ATOM     17  N   UNL     1      43.727   2.824  10.516  0.00  0.00    +0.000 N 
ATOM     18  H   UNL     1      42.746   2.644  10.332  0.00  0.00    +0.000 HD
BRANCH  17  22
ATOM     19  C   UNL     1      46.535   2.482   7.387  0.00  0.00    +0.000 A 
ATOM     20  C   UNL     1      46.029   3.732   7.763  0.00  0.00    +0.000 A 
ATOM     21  C   UNL     1      45.096   3.830   8.806  0.00  0.00    +0.000 A 
ATOM     22  C   UNL     1      44.654   2.696   9.501  0.00  0.00    +0.000 A 
ATOM     23  C   UNL     1      45.164   1.458   9.102  0.00  0.00    +0.000 A 
ATOM     24  C   UNL     1      46.084   1.354   8.066  0.00  0.00    +0.000 A 
ATOM     25  F   UNL     1      46.524   0.123   7.753  0.00  0.00    +0.000 F 
BRANCH  19  27
ATOM     26  N   UNL     1      47.424   3.273   5.257  0.00  0.00    +0.000 N 
ATOM     27  C   UNL     1      47.543   2.397   6.300  0.00  0.00    +0.000 C 
ATOM     28  O   UNL     1      48.439   1.566   6.321  0.00  0.00    +0.000 OA
ATOM     29  H   UNL     1      48.073   3.194   4.487  0.00  0.00    +0.000 HD
ATOM     30  H   UNL     1      46.684   3.960   5.199  0.00  0.00    +0.000 HD
ENDBRANCH  19  27
ENDBRANCH  17  22
ENDBRANCH   1  17
TORSDOF 6
ENDMDL
MODEL 4
REMARK VINA RESULT:    -7.401      2.850      3.465
REMARK INTER + INTRA:         -11.034
REMARK INTER:                 -10.108
REMARK INTRA:                  -0.926
REMARK UNBOUND:                -1.037
REMARK  Name = 
REMARK  6 active torsions:
REMARK  status: ('A' for Active; 'I' for Inactive)
REMARK    1  A    between atoms: C_2  and  C_4
REMARK    2  A    between atoms: C_7  and  N_8
REMARK    3  A    between atoms: N_8  and  C_9
REMARK    4  A    between atoms: C_9  and  C_10
REMARK    5  A    between atoms: C_10  and  C_13
REMARK    6  A    between atoms: C_17  and  N_18
REMARK                            x       y       z     vdW  Elec       q    Type
REMARK                         _______ _______ _______ _____ _____    ______ ____
ROOT
ATOM      1  C   UNL     1      44.124   5.454  11.163  0.00  0.00    +0.000 C 
ENDROOT
BRANCH   1   2
ATOM      2  C   UNL     1      45.114   5.859  12.284  0.00  0.00    +0.000 C 
ATOM      3  F   UNL     1      44.503   5.666  13.493  0.00  0.00    +0.000 F 
ATOM      4  F   UNL     1      46.168   4.989  12.272  0.00  0.00    +0.000 F 
BRANCH   2   5
ATOM      5  C   UNL     1      45.543   7.295  12.070  0.00  0.00    +0.000 A 
ATOM      6  C   UNL     1      44.591   8.314  11.961  0.00  0.00    +0.000 A 
ATOM      7  C   UNL     1      44.999   9.639  11.868  0.00  0.00    +0.000 A 
ATOM      8  C   UNL     1      46.359   9.959  11.921  0.00  0.00    +0.000 A 
ATOM      9  C   UNL     1      47.343   8.972  12.058  0.00  0.00    +0.000 A 
ATOM     10  C   UNL     1      46.906   7.638  12.080  0.00  0.00    +0.000 A 
BRANCH   9  11
ATOM     11  N   UNL     1      48.673   9.287  12.229  0.00  0.00    +0.000 N 
ATOM     12  C   UNL     1      49.754   8.470  11.658  0.00  0.00    +0.000 C 
ATOM     13  C   UNL     1      50.789   8.153  12.750  0.00  0.00    +0.000 C 
ATOM     14  O   UNL     1      51.279   9.346  13.386  0.00  0.00    +0.000 OA
ATOM     15  C   UNL     1      50.191  10.074  13.986  0.00  0.00    +0.000 C 
ATOM     16  C   UNL     1      49.142  10.482  12.942  0.00  0.00    +0.000 C 
ENDBRANCH   9  11
ENDBRANCH   2   5
ENDBRANCH   1   2
BRANCH   1  17
ATOM     17  N   UNL     1      44.226   4.049  10.742  0.00  0.00    +0.000 N 
ATOM     18  H   UNL     1      43.656   3.369  11.233  0.00  0.00    +0.000 HD
BRANCH  17  22
ATOM     19  C   UNL     1      46.531   2.910   7.399  0.00  0.00    +0.000 A 
ATOM     20  C   UNL     1      46.307   4.261   7.689  0.00  0.00    +0.000 A 
ATOM     21  C   UNL     1      45.539   4.625   8.805  0.00  0.00    +0.000 A 
ATOM     22  C   UNL     1      44.986   3.660   9.658  0.00  0.00    +0.000 A 
ATOM     23  C   UNL     1      45.213   2.318   9.343  0.00  0.00    +0.000 A 
ATOM     24  C   UNL     1      45.969   1.951   8.237  0.00  0.00    +0.000 A 
ATOM     25  F   UNL     1      46.140   0.637   8.014  0.00  0.00    +0.000 F 
BRANCH  19  27
ATOM     26  N   UNL     1      48.628   2.069   6.478  0.00  0.00    +0.000 N 
ATOM     27  C   UNL     1      47.369   2.541   6.230  0.00  0.00    +0.000 C 
ATOM     28  O   UNL     1      46.962   2.667   5.084  0.00  0.00    +0.000 OA
ATOM     29  H   UNL     1      49.227   1.860   5.691  0.00  0.00    +0.000 HD
ATOM     30  H   UNL     1      49.003   1.969   7.412  0.00  0.00    +0.000 HD
ENDBRANCH  19  27
ENDBRANCH  17  22
ENDBRANCH   1  17
TORSDOF 6
ENDMDL
MODEL 5
REMARK VINA RESULT:    -7.371      2.534      7.886
REMARK INTER + INTRA:         -10.993
REMARK INTER:                  -9.980
REMARK INTRA:                  -1.013
REMARK UNBOUND:                -1.037
REMARK  Name = 
REMARK  6 active torsions:
REMARK  status: ('A' for Active; 'I' for Inactive)
REMARK    1  A    between atoms: C_2  and  C_4
REMARK    2  A    between atoms: C_7  and  N_8
REMARK    3  A    between atoms: N_8  and  C_9
REMARK    4  A    between atoms: C_9  and  C_10
REMARK    5  A    between atoms: C_10  and  C_13
REMARK    6  A    between atoms: C_17  and  N_18
REMARK                            x       y       z     vdW  Elec       q    Type
REMARK                         _______ _______ _______ _____ _____    ______ ____
ROOT
ATOM      1  C   UNL     1      47.076   7.068  11.940  0.00  0.00    +0.000 C 
ENDROOT
BRANCH   1   2
ATOM      2  C   UNL     1      45.540   7.257  12.004  0.00  0.00    +0.000 C 
ATOM      3  F   UNL     1      45.216   7.762  13.234  0.00  0.00    +0.000 F 
ATOM      4  F   UNL     1      45.181   8.228  11.112  0.00  0.00    +0.000 F 
BRANCH   2   5
ATOM      5  C   UNL     1      44.866   5.931  11.723  0.00  0.00    +0.000 A 
ATOM      6  C   UNL     1      43.768   5.515  12.483  0.00  0.00    +0.000 A 
ATOM      7  C   UNL     1      43.094   4.346  12.150  0.00  0.00    +0.000 A 
ATOM      8  C   UNL     1      43.490   3.604  11.032  0.00  0.00    +0.000 A 
ATOM      9  C   UNL     1      44.566   4.000  10.228  0.00  0.00    +0.000 A 
ATOM     10  C   UNL     1      45.270   5.147  10.629  0.00  0.00    +0.000 A 
BRANCH   9  11
ATOM     11  N   UNL     1      44.887   3.341   9.063  0.00  0.00    +0.000 N 
ATOM     12  C   UNL     1      44.823   1.877   8.944  0.00  0.00    +0.000 C 
ATOM     13  C   UNL     1      46.139   1.351   8.349  0.00  0.00    +0.000 C 
ATOM     14  O   UNL     1      46.455   1.990   7.100  0.00  0.00    +0.000 OA
ATOM     15  C   UNL     1      46.572   3.413   7.284  0.00  0.00    +0.000 C 
ATOM     16  C   UNL     1      45.269   4.023   7.820  0.00  0.00    +0.000 C 
ENDBRANCH   9  11
ENDBRANCH   2   5
ENDBRANCH   1   2
BRANCH   1  17
ATOM     17  N   UNL     1      47.767   7.282  13.220  0.00  0.00    +0.000 N 
ATOM     18  H   UNL     1      48.143   8.207  13.403  0.00  0.00    +0.000 HD
BRANCH  17  22
ATOM     19  C   UNL     1      47.903   4.280  16.179  0.00  0.00    +0.000 A 
ATOM     20  C   UNL     1      47.239   4.063  14.966  0.00  0.00    +0.000 A 
ATOM     21  C   UNL     1      47.203   5.070  13.991  0.00  0.00    +0.000 A 
ATOM     22  C   UNL     1      47.830   6.307  14.195  0.00  0.00    +0.000 A 
ATOM     23  C   UNL     1      48.477   6.507  15.417  0.00  0.00    +0.000 A 
ATOM     24  C   UNL     1      48.512   5.514  16.388  0.00  0.00    +0.000 A 
ATOM     25  F   UNL     1      49.161   5.792  17.532  0.00  0.00    +0.000 F 
BRANCH  19  27
ATOM     26  N   UNL     1      46.775   2.788  17.745  0.00  0.00    +0.000 N 
ATOM     27  C   UNL     1      47.956   3.194  17.190  0.00  0.00    +0.000 C 
ATOM     28  O   UNL     1      49.016   2.687  17.532  0.00  0.00    +0.000 OA
ATOM     29  H   UNL     1      46.802   2.083  18.470  0.00  0.00    +0.000 HD
ATOM     30  H   UNL     1      45.883   3.197  17.500  0.00  0.00    +0.000 HD
ENDBRANCH  19  27
ENDBRANCH  17  22
ENDBRANCH   1  17
TORSDOF 6
ENDMDL
MODEL 6
REMARK VINA RESULT:    -6.898      3.246      4.927
REMARK INTER + INTRA:         -10.355
REMARK INTER:                  -9.173
REMARK INTRA:                  -1.182
REMARK UNBOUND:                -1.037
REMARK  Name = 
REMARK  6 active torsions:
REMARK  status: ('A' for Active; 'I' for Inactive)
REMARK    1  A    between atoms: C_2  and  C_4
REMARK    2  A    between atoms: C_7  and  N_8
REMARK    3  A    between atoms: N_8  and  C_9
REMARK    4  A    between atoms: C_9  and  C_10
REMARK    5  A    between atoms: C_10  and  C_13
REMARK    6  A    between atoms: C_17  and  N_18
REMARK                            x       y       z     vdW  Elec       q    Type
REMARK                         _______ _______ _______ _____ _____    ______ ____
ROOT
ATOM      1  C   UNL     1      46.956   8.444  12.540  0.00  0.00    +0.000 C 
ENDROOT
BRANCH   1   2
ATOM      2  C   UNL     1      48.424   8.050  12.841  0.00  0.00    +0.000 C 
ATOM      3  F   UNL     1      48.691   6.862  12.217  0.00  0.00    +0.000 F 
ATOM      4  F   UNL     1      49.252   8.960  12.246  0.00  0.00    +0.000 F 
BRANCH   2   5
ATOM      5  C   UNL     1      48.620   7.978  14.340  0.00  0.00    +0.000 A 
ATOM      6  C   UNL     1      48.604   9.141  15.116  0.00  0.00    +0.000 A 
ATOM      7  C   UNL     1      48.683   9.054  16.501  0.00  0.00    +0.000 A 
ATOM      8  C   UNL     1      48.738   7.803  17.122  0.00  0.00    +0.000 A 
ATOM      9  C   UNL     1      48.727   6.612  16.384  0.00  0.00    +0.000 A 
ATOM     10  C   UNL     1      48.717   6.733  14.985  0.00  0.00    +0.000 A 
BRANCH   9  11
ATOM     11  N   UNL     1      48.663   5.378  16.990  0.00  0.00    +0.000 N 
ATOM     12  C   UNL     1      49.711   4.894  17.901  0.00  0.00    +0.000 C 
ATOM     13  C   UNL     1      50.144   3.480  17.480  0.00  0.00    +0.000 C 
ATOM     14  O   UNL     1      49.026   2.579  17.401  0.00  0.00    +0.000 OA
ATOM     15  C   UNL     1      48.061   3.064  16.449  0.00  0.00    +0.000 C 
ATOM     16  C   UNL     1      47.533   4.452  16.837  0.00  0.00    +0.000 C 
ENDBRANCH   9  11
ENDBRANCH   2   5
ENDBRANCH   1   2
BRANCH   1  17
ATOM     17  N   UNL     1      45.954   7.634  13.247  0.00  0.00    +0.000 N 
ATOM     18  H   UNL     1      45.568   8.008  14.108  0.00  0.00    +0.000 HD
BRANCH  17  22
ATOM     19  C   UNL     1      44.406   4.045  11.661  0.00  0.00    +0.000 A 
ATOM     20  C   UNL     1      43.859   5.283  11.302  0.00  0.00    +0.000 A 
ATOM     21  C   UNL     1      44.385   6.468  11.837  0.00  0.00    +0.000 A 
ATOM     22  C   UNL     1      45.466   6.451  12.730  0.00  0.00    +0.000 A 
ATOM     23  C   UNL     1      45.989   5.205  13.082  0.00  0.00    +0.000 A 
ATOM     24  C   UNL     1      45.469   4.027  12.559  0.00  0.00    +0.000 A 
ATOM     25  F   UNL     1      46.038   2.874  12.951  0.00  0.00    +0.000 F 
BRANCH  19  27
ATOM     26  N   UNL     1      44.456   2.325   9.932  0.00  0.00    +0.000 N 
ATOM     27  C   UNL     1      43.857   2.801  11.065  0.00  0.00    +0.000 C 
ATOM     28  O   UNL     1      42.895   2.226  11.554  0.00  0.00    +0.000 OA
ATOM     29  H   UNL     1      44.063   1.507   9.488  0.00  0.00    +0.000 HD
ATOM     30  H   UNL     1      45.242   2.784   9.491  0.00  0.00    +0.000 HD
ENDBRANCH  19  27
ENDBRANCH  17  22
ENDBRANCH   1  17
TORSDOF 6
ENDMDL
MODEL 7
REMARK VINA RESULT:    -6.516      3.874      5.848
REMARK INTER + INTRA:          -9.838
REMARK INTER:                  -8.489
REMARK INTRA:                  -1.350
REMARK UNBOUND:                -1.037
REMARK  Name = 
REMARK  6 active torsions:
REMARK  status: ('A' for Active; 'I' for Inactive)
REMARK    1  A    between atoms: C_2  and  C_4
REMARK    2  A    between atoms: C_7  and  N_8
REMARK    3  A    between atoms: N_8  and  C_9
REMARK    4  A    between atoms: C_9  and  C_10
REMARK    5  A    between atoms: C_10  and  C_13
REMARK    6  A    between atoms: C_17  and  N_18
REMARK                            x       y       z     vdW  Elec       q    Type
REMARK                         _______ _______ _______ _____ _____    ______ ____
ROOT
ATOM      1  C   UNL     1      49.289   7.516  13.348  0.00  0.00    +0.000 C 
ENDROOT
BRANCH   1   2
ATOM      2  C   UNL     1      48.994   8.792  14.177  0.00  0.00    +0.000 C 
ATOM      3  F   UNL     1      50.029   9.670  14.005  0.00  0.00    +0.000 F 
ATOM      4  F   UNL     1      47.901   9.417  13.643  0.00  0.00    +0.000 F 
BRANCH   2   5
ATOM      5  C   UNL     1      48.792   8.404  15.626  0.00  0.00    +0.000 A 
ATOM      6  C   UNL     1      48.327   9.341  16.555  0.00  0.00    +0.000 A 
ATOM      7  C   UNL     1      48.048   8.948  17.859  0.00  0.00    +0.000 A 
ATOM      8  C   UNL     1      48.195   7.609  18.233  0.00  0.00    +0.000 A 
ATOM      9  C   UNL     1      48.630   6.634  17.326  0.00  0.00    +0.000 A 
ATOM     10  C   UNL     1      48.970   7.072  16.037  0.00  0.00    +0.000 A 
BRANCH   9  11
ATOM     11  N   UNL     1      48.665   5.297  17.654  0.00  0.00    +0.000 N 
ATOM     12  C   UNL     1      49.812   4.686  18.342  0.00  0.00    +0.000 C 
ATOM     13  C   UNL     1      50.246   3.418  17.589  0.00  0.00    +0.000 C 
ATOM     14  O   UNL     1      49.155   2.498  17.415  0.00  0.00    +0.000 OA
ATOM     15  C   UNL     1      48.088   3.123  16.679  0.00  0.00    +0.000 C 
ATOM     16  C   UNL     1      47.556   4.368  17.403  0.00  0.00    +0.000 C 
ENDBRANCH   9  11
ENDBRANCH   2   5
ENDBRANCH   1   2
BRANCH   1  17
ATOM     17  N   UNL     1      48.351   7.283  12.240  0.00  0.00    +0.000 N 
ATOM     18  H   UNL     1      48.593   7.659  11.330  0.00  0.00    +0.000 HD
BRANCH  17  22
ATOM     19  C   UNL     1      44.940   4.847  12.713  0.00  0.00    +0.000 A 
ATOM     20  C   UNL     1      45.959   4.847  13.672  0.00  0.00    +0.000 A 
ATOM     21  C   UNL     1      47.087   5.663  13.501  0.00  0.00    +0.000 A 
ATOM     22  C   UNL     1      47.223   6.499  12.385  0.00  0.00    +0.000 A 
ATOM     23  C   UNL     1      46.199   6.475  11.435  0.00  0.00    +0.000 A 
ATOM     24  C   UNL     1      45.082   5.665  11.595  0.00  0.00    +0.000 A 
ATOM     25  F   UNL     1      44.144   5.709  10.634  0.00  0.00    +0.000 F 
BRANCH  19  27
ATOM     26  N   UNL     1      43.845   2.668  12.625  0.00  0.00    +0.000 N 
ATOM     27  C   UNL     1      43.739   3.999  12.920  0.00  0.00    +0.000 C 
ATOM     28  O   UNL     1      42.685   4.468  13.326  0.00  0.00    +0.000 OA
ATOM     29  H   UNL     1      43.022   2.089  12.715  0.00  0.00    +0.000 HD
ATOM     30  H   UNL     1      44.695   2.250  12.271  0.00  0.00    +0.000 HD
ENDBRANCH  19  27
ENDBRANCH  17  22
ENDBRANCH   1  17
TORSDOF 6
ENDMDL
MODEL 8
REMARK VINA RESULT:    -6.463      3.399      5.407
REMARK INTER + INTRA:          -9.767
REMARK INTER:                  -9.208
REMARK INTRA:                  -0.559
REMARK UNBOUND:                -1.037
REMARK  Name = 
REMARK  6 active torsions:
REMARK  status: ('A' for Active; 'I' for Inactive)
REMARK    1  A    between atoms: C_2  and  C_4
REMARK    2  A    between atoms: C_7  and  N_8
REMARK    3  A    between atoms: N_8  and  C_9
REMARK    4  A    between atoms: C_9  and  C_10
REMARK    5  A    between atoms: C_10  and  C_13
REMARK    6  A    between atoms: C_17  and  N_18
REMARK                            x       y       z     vdW  Elec       q    Type
REMARK                         _______ _______ _______ _____ _____    ______ ____
ROOT
ATOM      1  C   UNL     1      47.434   3.659  15.366  0.00  0.00    +0.000 C 
ENDROOT
BRANCH   1   2
ATOM      2  C   UNL     1      47.587   3.733  16.905  0.00  0.00    +0.000 C 
ATOM      3  F   UNL     1      47.204   4.979  17.321  0.00  0.00    +0.000 F 
ATOM      4  F   UNL     1      46.690   2.874  17.476  0.00  0.00    +0.000 F 
BRANCH   2   5
ATOM      5  C   UNL     1      49.018   3.409  17.276  0.00  0.00    +0.000 A 
ATOM      6  C   UNL     1      49.563   2.154  16.984  0.00  0.00    +0.000 A 
ATOM      7  C   UNL     1      50.907   1.903  17.236  0.00  0.00    +0.000 A 
ATOM      8  C   UNL     1      51.724   2.916  17.746  0.00  0.00    +0.000 A 
ATOM      9  C   UNL     1      51.226   4.195  18.025  0.00  0.00    +0.000 A 
ATOM     10  C   UNL     1      49.852   4.398  17.826  0.00  0.00    +0.000 A 
BRANCH   9  11
ATOM     11  N   UNL     1      52.048   5.228  18.415  0.00  0.00    +0.000 N 
ATOM     12  C   UNL     1      51.660   6.192  19.456  0.00  0.00    +0.000 C 
ATOM     13  C   UNL     1      51.885   7.623  18.941  0.00  0.00    +0.000 C 
ATOM     14  O   UNL     1      53.233   7.822  18.483  0.00  0.00    +0.000 OA
ATOM     15  C   UNL     1      53.540   6.900  17.421  0.00  0.00    +0.000 C 
ATOM     16  C   UNL     1      53.398   5.442  17.880  0.00  0.00    +0.000 C 
ENDBRANCH   9  11
ENDBRANCH   2   5
ENDBRANCH   1   2
BRANCH   1  17
ATOM     17  N   UNL     1      46.439   4.589  14.810  0.00  0.00    +0.000 N 
ATOM     18  H   UNL     1      46.021   5.263  15.442  0.00  0.00    +0.000 HD
BRANCH  17  22
ATOM     19  C   UNL     1      45.514   4.770  10.699  0.00  0.00    +0.000 A 
ATOM     20  C   UNL     1      46.021   5.889  11.371  0.00  0.00    +0.000 A 
ATOM     21  C   UNL     1      46.324   5.813  12.738  0.00  0.00    +0.000 A 
ATOM     22  C   UNL     1      46.141   4.628  13.463  0.00  0.00    +0.000 A 
ATOM     23  C   UNL     1      45.624   3.527  12.776  0.00  0.00    +0.000 A 
ATOM     24  C   UNL     1      45.317   3.597  11.423  0.00  0.00    +0.000 A 
ATOM     25  F   UNL     1      44.829   2.488  10.842  0.00  0.00    +0.000 F 
BRANCH  19  27
ATOM     26  N   UNL     1      43.968   4.514   8.830  0.00  0.00    +0.000 N 
ATOM     27  C   UNL     1      45.224   4.857   9.246  0.00  0.00    +0.000 C 
ATOM     28  O   UNL     1      46.077   5.207   8.441  0.00  0.00    +0.000 OA
ATOM     29  H   UNL     1      43.771   4.522   7.839  0.00  0.00    +0.000 HD
ATOM     30  H   UNL     1      43.245   4.204   9.465  0.00  0.00    +0.000 HD
ENDBRANCH  19  27
ENDBRANCH  17  22
ENDBRANCH   1  17
TORSDOF 6
ENDMDL
MODEL 9
REMARK VINA RESULT:    -6.258      3.740      8.441
REMARK INTER + INTRA:          -9.490
REMARK INTER:                  -8.542
REMARK INTRA:                  -0.948
REMARK UNBOUND:                -1.037
REMARK  Name = 
REMARK  6 active torsions:
REMARK  status: ('A' for Active; 'I' for Inactive)
REMARK    1  A    between atoms: C_2  and  C_4
REMARK    2  A    between atoms: C_7  and  N_8
REMARK    3  A    between atoms: N_8  and  C_9
REMARK    4  A    between atoms: C_9  and  C_10
REMARK    5  A    between atoms: C_10  and  C_13
REMARK    6  A    between atoms: C_17  and  N_18
REMARK                            x       y       z     vdW  Elec       q    Type
REMARK                         _______ _______ _______ _____ _____    ______ ____
ROOT
ATOM      1  C   UNL     1      48.800   8.281  14.224  0.00  0.00    +0.000 C 
ENDROOT
BRANCH   1   2
ATOM      2  C   UNL     1      48.607   7.674  12.811  0.00  0.00    +0.000 C 
ATOM      3  F   UNL     1      49.448   8.318  11.944  0.00  0.00    +0.000 F 
ATOM      4  F   UNL     1      49.038   6.377  12.830  0.00  0.00    +0.000 F 
BRANCH   2   5
ATOM      5  C   UNL     1      47.152   7.798  12.414  0.00  0.00    +0.000 A 
ATOM      6  C   UNL     1      46.534   9.052  12.358  0.00  0.00    +0.000 A 
ATOM      7  C   UNL     1      45.229   9.163  11.893  0.00  0.00    +0.000 A 
ATOM      8  C   UNL     1      44.546   8.028  11.445  0.00  0.00    +0.000 A 
ATOM      9  C   UNL     1      45.138   6.759  11.457  0.00  0.00    +0.000 A 
ATOM     10  C   UNL     1      46.430   6.667  11.996  0.00  0.00    +0.000 A 
BRANCH   9  11
ATOM     11  N   UNL     1      44.516   5.659  10.911  0.00  0.00    +0.000 N 
ATOM     12  C   UNL     1      43.130   5.294  11.241  0.00  0.00    +0.000 C 
ATOM     13  C   UNL     1      43.069   3.807  11.627  0.00  0.00    +0.000 C 
ATOM     14  O   UNL     1      43.631   2.965  10.606  0.00  0.00    +0.000 OA
ATOM     15  C   UNL     1      45.006   3.319  10.368  0.00  0.00    +0.000 C 
ATOM     16  C   UNL     1      45.142   4.780   9.915  0.00  0.00    +0.000 C 
ENDBRANCH   9  11
ENDBRANCH   2   5
ENDBRANCH   1   2
BRANCH   1  17
ATOM     17  N   UNL     1      48.259   7.458  15.316  0.00  0.00    +0.000 N 
ATOM     18  H   UNL     1      47.265   7.523  15.506  0.00  0.00    +0.000 HD
BRANCH  17  22
ATOM     19  C   UNL     1      50.583   4.667  17.461  0.00  0.00    +0.000 A 
ATOM     20  C   UNL     1      49.201   4.494  17.321  0.00  0.00    +0.000 A 
ATOM     21  C   UNL     1      48.441   5.429  16.604  0.00  0.00    +0.000 A 
ATOM     22  C   UNL     1      49.035   6.549  16.006  0.00  0.00    +0.000 A 
ATOM     23  C   UNL     1      50.414   6.709  16.168  0.00  0.00    +0.000 A 
ATOM     24  C   UNL     1      51.171   5.788  16.881  0.00  0.00    +0.000 A 
ATOM     25  F   UNL     1      52.490   6.019  16.982  0.00  0.00    +0.000 F 
BRANCH  19  27
ATOM     26  N   UNL     1      51.786   3.969  19.465  0.00  0.00    +0.000 N 
ATOM     27  C   UNL     1      51.378   3.654  18.199  0.00  0.00    +0.000 C 
ATOM     28  O   UNL     1      51.674   2.580  17.694  0.00  0.00    +0.000 OA
ATOM     29  H   UNL     1      52.368   3.308  19.961  0.00  0.00    +0.000 HD
ATOM     30  H   UNL     1      51.574   4.854  19.906  0.00  0.00    +0.000 HD
ENDBRANCH  19  27
ENDBRANCH  17  22
ENDBRANCH   1  17
TORSDOF 6
ENDMDL
