MODEL 1
REMARK VINA RESULT:    -7.232      0.000      0.000
REMARK INTER + INTRA:          -9.786
REMARK INTER:                  -9.134
REMARK INTRA:                  -0.652
REMARK UNBOUND:                -0.652
REMARK  Name = 
REMARK  5 active torsions:
REMARK  status: ('A' for Active; 'I' for Inactive)
REMARK    1  A    between atoms: N_1  and  C_2
REMARK    2  A    between atoms: C_2  and  C_3
REMARK    3  A    between atoms: C_6  and  C_7
REMARK    4  A    between atoms: C_7  and  N_8
REMARK    5  A    between atoms: C_13  and  C_14
REMARK                            x       y       z     vdW  Elec       q    Type
REMARK                         _______ _______ _______ _____ _____    ______ ____
ROOT
ATOM      1  N   UNL     1      44.552   5.030  10.547  0.00  0.00    +0.000 N 
ATOM      2  C   UNL     1      43.799   4.079  11.201  0.00  0.00    +0.000 A 
ATOM      3  C   UNL     1      44.066   2.857  10.628  0.00  0.00    +0.000 A 
ATOM      4  C   UNL     1      44.943   3.080   9.537  0.00  0.00    +0.000 A 
ATOM      5  C   UNL     1      45.539   2.254   8.567  0.00  0.00    +0.000 A 
ATOM      6  C   UNL     1      46.334   2.860   7.591  0.00  0.00    +0.000 A 
ATOM      7  C   UNL     1      46.518   4.242   7.658  0.00  0.00    +0.000 A 
ATOM      8  N   UNL     1      45.994   5.082   8.594  0.00  0.00    +0.000 NA
ATOM      9  C   UNL     1      45.214   4.446   9.493  0.00  0.00    +0.000 A 
ENDROOT
BRANCH   6  10
ATOM     10  C   UNL     1      46.974   2.114   6.481  0.00  0.00    +0.000 C 
ATOM     11  N   UNL     1      47.390   2.806   5.375  0.00  0.00    +0.000 N 
ATOM     12  O   UNL     1      47.147   0.902   6.544  0.00  0.00    +0.000 OA
ATOM     13  H   UNL     1      47.319   3.803   5.247  0.00  0.00    +0.000 HD
ATOM     14  H   UNL     1      47.844   2.272   4.647  0.00  0.00    +0.000 HD
ENDBRANCH   6  10
BRANCH   1  15
ATOM     15  C   UNL     1      44.645   6.429  10.953  0.00  0.00    +0.000 C 
BRANCH  15  19
ATOM     16  C   UNL     1      47.703   8.461  12.227  0.00  0.00    +0.000 C 
ATOM     17  C   UNL     1      47.756   7.027  11.676  0.00  0.00    +0.000 C 
ATOM     18  C   UNL     1      46.765   6.089  12.364  0.00  0.00    +0.000 C 
ATOM     19  C   UNL     1      45.317   6.608  12.335  0.00  0.00    +0.000 C 
ATOM     20  C   UNL     1      45.245   8.063  12.827  0.00  0.00    +0.000 C 
ATOM     21  C   UNL     1      46.260   8.990  12.158  0.00  0.00    +0.000 C 
BRANCH  16  22
ATOM     22  C   UNL     1      48.279   8.593  13.653  0.00  0.00    +0.000 C 
BRANCH  22  23
ATOM     23  N   UNL     1      48.136   9.949  14.176  0.00  0.00    +0.000 NA
ATOM     24  H   UNL     1      49.054  10.386  14.246  0.00  0.00    +0.000 HD
ATOM     25  H   UNL     1      47.766   9.911  15.125  0.00  0.00    +0.000 HD
ENDBRANCH  22  23
ENDBRANCH  16  22
ENDBRANCH  15  19
ENDBRANCH   1  15
TORSDOF 5
ENDMDL
MODEL 2
REMARK VINA RESULT:    -6.771      2.600      6.861
REMARK INTER + INTRA:          -9.204
REMARK INTER:                  -8.597
REMARK INTRA:                  -0.606
REMARK UNBOUND:                -0.652
REMARK  Name = 
REMARK  5 active torsions:
REMARK  status: ('A' for Active; 'I' for Inactive)
REMARK    1  A    between atoms: N_1  and  C_2
REMARK    2  A    between atoms: C_2  and  C_3
REMARK    3  A    between atoms: C_6  and  C_7
REMARK    4  A    between atoms: C_7  and  N_8
REMARK    5  A    between atoms: C_13  and  C_14
REMARK                            x       y       z     vdW  Elec       q    Type
REMARK                         _______ _______ _______ _____ _____    ______ ____
ROOT
ATOM      1  N   UNL     1      44.338   4.192  10.958  0.00  0.00    +0.000 N 
ATOM      2  C   UNL     1      42.987   4.450  11.048  0.00  0.00    +0.000 A 
ATOM      3  C   UNL     1      42.829   5.748  11.480  0.00  0.00    +0.000 A 
ATOM      4  C   UNL     1      44.121   6.271  11.739  0.00  0.00    +0.000 A 
ATOM      5  C   UNL     1      44.608   7.499  12.217  0.00  0.00    +0.000 A 
ATOM      6  C   UNL     1      45.988   7.633  12.392  0.00  0.00    +0.000 A 
ATOM      7  C   UNL     1      46.802   6.553  12.046  0.00  0.00    +0.000 A 
ATOM      8  N   UNL     1      46.386   5.356  11.548  0.00  0.00    +0.000 NA
ATOM      9  C   UNL     1      45.045   5.274  11.427  0.00  0.00    +0.000 A 
ENDROOT
BRANCH   6  10
ATOM     10  C   UNL     1      46.627   8.854  12.940  0.00  0.00    +0.000 C 
ATOM     11  N   UNL     1      46.913   8.904  14.279  0.00  0.00    +0.000 N 
ATOM     12  O   UNL     1      46.913   9.802  12.218  0.00  0.00    +0.000 OA
ATOM     13  H   UNL     1      46.744   8.164  14.941  0.00  0.00    +0.000 HD
ATOM     14  H   UNL     1      47.370   9.740  14.616  0.00  0.00    +0.000 HD
ENDBRANCH   6  10
BRANCH   1  15
ATOM     15  C   UNL     1      44.907   2.966  10.407  0.00  0.00    +0.000 C 
BRANCH  15  19
ATOM     16  C   UNL     1      47.158   2.882   7.241  0.00  0.00    +0.000 C 
ATOM     17  C   UNL     1      46.551   4.148   7.866  0.00  0.00    +0.000 C 
ATOM     18  C   UNL     1      45.041   4.040   8.077  0.00  0.00    +0.000 C 
ATOM     19  C   UNL     1      44.629   2.803   8.894  0.00  0.00    +0.000 C 
ATOM     20  C   UNL     1      45.272   1.529   8.323  0.00  0.00    +0.000 C 
ATOM     21  C   UNL     1      46.776   1.653   8.084  0.00  0.00    +0.000 C 
BRANCH  16  22
ATOM     22  C   UNL     1      46.776   2.684   5.759  0.00  0.00    +0.000 C 
BRANCH  22  23
ATOM     23  N   UNL     1      47.952   2.532   4.907  0.00  0.00    +0.000 NA
ATOM     24  H   UNL     1      47.977   3.287   4.223  0.00  0.00    +0.000 HD
ATOM     25  H   UNL     1      47.878   1.666   4.373  0.00  0.00    +0.000 HD
ENDBRANCH  22  23
ENDBRANCH  16  22
ENDBRANCH  15  19
ENDBRANCH   1  15
TORSDOF 5
ENDMDL
MODEL 3
REMARK VINA RESULT:    -5.876      4.647      6.158
REMARK INTER + INTRA:          -8.073
REMARK INTER:                  -7.680
REMARK INTRA:                  -0.394
REMARK UNBOUND:                -0.652
REMARK  Name = 
REMARK  5 active torsions:
REMARK  status: ('A' for Active; 'I' for Inactive)
REMARK    1  A    between atoms: N_1  and  C_2
REMARK    2  A    between atoms: C_2  and  C_3
REMARK    3  A    between atoms: C_6  and  C_7
REMARK    4  A    between atoms: C_7  and  N_8
REMARK    5  A    between atoms: C_13  and  C_14
REMARK                            x       y       z     vdW  Elec       q    Type
REMARK                         _______ _______ _______ _____ _____    ______ ____
ROOT
ATOM      1  N   UNL     1      47.402   5.302  14.606  0.00  0.00    +0.000 N 
ATOM      2  C   UNL     1      47.983   6.482  14.195  0.00  0.00    +0.000 A 
ATOM      3  C   UNL     1      47.459   6.809  12.965  0.00  0.00    +0.000 A 
ATOM      4  C   UNL     1      46.594   5.755  12.577  0.00  0.00    +0.000 A 
ATOM      5  C   UNL     1      45.807   5.495  11.442  0.00  0.00    +0.000 A 
ATOM      6  C   UNL     1      45.102   4.289  11.396  0.00  0.00    +0.000 A 
ATOM      7  C   UNL     1      45.193   3.433  12.494  0.00  0.00    +0.000 A 
ATOM      8  N   UNL     1      45.913   3.651  13.630  0.00  0.00    +0.000 NA
ATOM      9  C   UNL     1      46.592   4.816  13.607  0.00  0.00    +0.000 A 
ENDROOT
BRANCH   6  10
ATOM     10  C   UNL     1      44.281   3.868  10.236  0.00  0.00    +0.000 C 
ATOM     11  N   UNL     1      44.199   4.699   9.149  0.00  0.00    +0.000 N 
ATOM     12  O   UNL     1      43.692   2.793  10.228  0.00  0.00    +0.000 OA
ATOM     13  H   UNL     1      44.671   5.583   9.052  0.00  0.00    +0.000 HD
ATOM     14  H   UNL     1      43.651   4.371   8.366  0.00  0.00    +0.000 HD
ENDBRANCH   6  10
BRANCH   1  15
ATOM     15  C   UNL     1      47.601   4.700  15.921  0.00  0.00    +0.000 C 
BRANCH  15  19
ATOM     16  C   UNL     1      48.645   4.736  19.664  0.00  0.00    +0.000 C 
ATOM     17  C   UNL     1      47.692   5.741  18.998  0.00  0.00    +0.000 C 
ATOM     18  C   UNL     1      48.285   6.379  17.742  0.00  0.00    +0.000 C 
ATOM     19  C   UNL     1      48.766   5.348  16.706  0.00  0.00    +0.000 C 
ATOM     20  C   UNL     1      49.676   4.296  17.361  0.00  0.00    +0.000 C 
ATOM     21  C   UNL     1      49.092   3.684  18.634  0.00  0.00    +0.000 C 
BRANCH  16  22
ATOM     22  C   UNL     1      49.859   5.401  20.347  0.00  0.00    +0.000 C 
BRANCH  22  23
ATOM     23  N   UNL     1      50.851   4.418  20.776  0.00  0.00    +0.000 NA
ATOM     24  H   UNL     1      51.748   4.629  20.342  0.00  0.00    +0.000 HD
ATOM     25  H   UNL     1      50.582   3.494  20.441  0.00  0.00    +0.000 HD
ENDBRANCH  22  23
ENDBRANCH  16  22
ENDBRANCH  15  19
ENDBRANCH   1  15
TORSDOF 5
ENDMDL
MODEL 4
REMARK VINA RESULT:    -5.875      4.894      8.350
REMARK INTER + INTRA:          -8.072
REMARK INTER:                  -7.583
REMARK INTRA:                  -0.489
REMARK UNBOUND:                -0.652
REMARK  Name = 
REMARK  5 active torsions:
REMARK  status: ('A' for Active; 'I' for Inactive)
REMARK    1  A    between atoms: N_1  and  C_2
REMARK    2  A    between atoms: C_2  and  C_3
REMARK    3  A    between atoms: C_6  and  C_7
REMARK    4  A    between atoms: C_7  and  N_8
REMARK    5  A    between atoms: C_13  and  C_14
REMARK                            x       y       z     vdW  Elec       q    Type
REMARK                         _______ _______ _______ _____ _____    ______ ____
ROOT
ATOM      1  N   UNL     1      48.130   6.566  14.262  0.00  0.00    +0.000 N 
ATOM      2  C   UNL     1      48.543   7.874  14.392  0.00  0.00    +0.000 A 
ATOM      3  C   UNL     1      49.100   8.022  15.642  0.00  0.00    +0.000 A 
ATOM      4  C   UNL     1      48.948   6.789  16.325  0.00  0.00    +0.000 A 
ATOM      5  C   UNL     1      49.277   6.329  17.612  0.00  0.00    +0.000 A 
ATOM      6  C   UNL     1      48.916   5.023  17.952  0.00  0.00    +0.000 A 
ATOM      7  C   UNL     1      48.284   4.242  16.984  0.00  0.00    +0.000 A 
ATOM      8  N   UNL     1      47.973   4.626  15.715  0.00  0.00    +0.000 NA
ATOM      9  C   UNL     1      48.319   5.903  15.452  0.00  0.00    +0.000 A 
ENDROOT
BRANCH   6  10
ATOM     10  C   UNL     1      49.154   4.434  19.292  0.00  0.00    +0.000 C 
ATOM     11  N   UNL     1      48.419   3.342  19.672  0.00  0.00    +0.000 N 
ATOM     12  O   UNL     1      50.000   4.895  20.050  0.00  0.00    +0.000 OA
ATOM     13  H   UNL     1      47.727   2.877  19.107  0.00  0.00    +0.000 HD
ATOM     14  H   UNL     1      48.622   2.951  20.581  0.00  0.00    +0.000 HD
ENDBRANCH   6  10
BRANCH   1  15
ATOM     15  C   UNL     1      47.610   5.985  13.028  0.00  0.00    +0.000 C 
BRANCH  15  19
ATOM     16  C   UNL     1      44.942   4.177  10.856  0.00  0.00    +0.000 C 
ATOM     17  C   UNL     1      45.670   5.475  10.471  0.00  0.00    +0.000 C 
ATOM     18  C   UNL     1      45.581   6.548  11.555  0.00  0.00    +0.000 C 
ATOM     19  C   UNL     1      46.068   6.064  12.932  0.00  0.00    +0.000 C 
ATOM     20  C   UNL     1      45.397   4.733  13.314  0.00  0.00    +0.000 C 
ATOM     21  C   UNL     1      45.461   3.674  12.214  0.00  0.00    +0.000 C 
BRANCH  16  22
ATOM     22  C   UNL     1      43.405   4.312  10.859  0.00  0.00    +0.000 C 
BRANCH  22  23
ATOM     23  N   UNL     1      42.757   3.159  11.478  0.00  0.00    +0.000 NA
ATOM     24  H   UNL     1      43.423   2.392  11.549  0.00  0.00    +0.000 HD
ATOM     25  H   UNL     1      42.004   2.826  10.877  0.00  0.00    +0.000 HD
ENDBRANCH  22  23
ENDBRANCH  16  22
ENDBRANCH  15  19
ENDBRANCH   1  15
TORSDOF 5
ENDMDL
MODEL 5
REMARK VINA RESULT:    -5.244      3.434      4.821
REMARK INTER + INTRA:          -7.275
REMARK INTER:                  -6.668
REMARK INTRA:                  -0.607
REMARK UNBOUND:                -0.652
REMARK  Name = 
REMARK  5 active torsions:
REMARK  status: ('A' for Active; 'I' for Inactive)
REMARK    1  A    between atoms: N_1  and  C_2
REMARK    2  A    between atoms: C_2  and  C_3
REMARK    3  A    between atoms: C_6  and  C_7
REMARK    4  A    between atoms: C_7  and  N_8
REMARK    5  A    between atoms: C_13  and  C_14
REMARK                            x       y       z     vdW  Elec       q    Type
REMARK                         _______ _______ _______ _____ _____    ______ ____
ROOT
ATOM      1  N   UNL     1      45.877   8.228  12.662  0.00  0.00    +0.000 N 
ATOM      2  C   UNL     1      45.118   8.988  11.800  0.00  0.00    +0.000 A 
ATOM      3  C   UNL     1      44.188   8.162  11.210  0.00  0.00    +0.000 A 
ATOM      4  C   UNL     1      44.441   6.843  11.664  0.00  0.00    +0.000 A 
ATOM      5  C   UNL     1      43.867   5.586  11.407  0.00  0.00    +0.000 A 
ATOM      6  C   UNL     1      44.434   4.469  12.024  0.00  0.00    +0.000 A 
ATOM      7  C   UNL     1      45.512   4.671  12.887  0.00  0.00    +0.000 A 
ATOM      8  N   UNL     1      46.084   5.868  13.197  0.00  0.00    +0.000 NA
ATOM      9  C   UNL     1      45.513   6.906  12.552  0.00  0.00    +0.000 A 
ENDROOT
BRANCH   6  10
ATOM     10  C   UNL     1      43.962   3.082  11.795  0.00  0.00    +0.000 C 
ATOM     11  N   UNL     1      44.188   2.501  10.575  0.00  0.00    +0.000 N 
ATOM     12  O   UNL     1      43.391   2.450  12.676  0.00  0.00    +0.000 OA
ATOM     13  H   UNL     1      44.675   2.930   9.804  0.00  0.00    +0.000 HD
ATOM     14  H   UNL     1      43.875   1.547  10.460  0.00  0.00    +0.000 HD
ENDBRANCH   6  10
BRANCH   1  15
ATOM     15  C   UNL     1      46.880   8.770  13.572  0.00  0.00    +0.000 C 
BRANCH  15  19
ATOM     16  C   UNL     1      50.704   8.088  13.428  0.00  0.00    +0.000 C 
ATOM     17  C   UNL     1      50.001   8.997  14.449  0.00  0.00    +0.000 C 
ATOM     18  C   UNL     1      49.102  10.043  13.792  0.00  0.00    +0.000 C 
ATOM     19  C   UNL     1      48.064   9.436  12.832  0.00  0.00    +0.000 C 
ATOM     20  C   UNL     1      48.736   8.475  11.836  0.00  0.00    +0.000 C 
ATOM     21  C   UNL     1      49.659   7.452  12.495  0.00  0.00    +0.000 C 
BRANCH  16  22
ATOM     22  C   UNL     1      51.808   8.807  12.624  0.00  0.00    +0.000 C 
BRANCH  22  23
ATOM     23  N   UNL     1      52.686   7.862  11.938  0.00  0.00    +0.000 NA
ATOM     24  H   UNL     1      52.130   7.257  11.336  0.00  0.00    +0.000 HD
ATOM     25  H   UNL     1      53.132   7.252  12.621  0.00  0.00    +0.000 HD
ENDBRANCH  22  23
ENDBRANCH  16  22
ENDBRANCH  15  19
ENDBRANCH   1  15
TORSDOF 5
ENDMDL
MODEL 6
REMARK VINA RESULT:    -5.223      2.933      4.567
REMARK INTER + INTRA:          -7.249
REMARK INTER:                  -6.755
REMARK INTRA:                  -0.495
REMARK UNBOUND:                -0.652
REMARK  Name = 
REMARK  5 active torsions:
REMARK  status: ('A' for Active; 'I' for Inactive)
REMARK    1  A    between atoms: N_1  and  C_2
REMARK    2  A    between atoms: C_2  and  C_3
REMARK    3  A    between atoms: C_6  and  C_7
REMARK    4  A    between atoms: C_7  and  N_8
REMARK    5  A    between atoms: C_13  and  C_14
REMARK                            x       y       z     vdW  Elec       q    Type
REMARK                         _______ _______ _______ _____ _____    ______ ____
ROOT
ATOM      1  N   UNL     1      47.162   6.813  13.394  0.00  0.00    +0.000 N 
ATOM      2  C   UNL     1      47.631   6.075  14.458  0.00  0.00    +0.000 A 
ATOM      3  C   UNL     1      47.181   4.782  14.310  0.00  0.00    +0.000 A 
ATOM      4  C   UNL     1      46.344   4.750  13.167  0.00  0.00    +0.000 A 
ATOM      5  C   UNL     1      45.583   3.754  12.531  0.00  0.00    +0.000 A 
ATOM      6  C   UNL     1      44.824   4.122  11.417  0.00  0.00    +0.000 A 
ATOM      7  C   UNL     1      44.895   5.446  10.981  0.00  0.00    +0.000 A 
ATOM      8  N   UNL     1      45.640   6.440  11.539  0.00  0.00    +0.000 NA
ATOM      9  C   UNL     1      46.329   6.034  12.625  0.00  0.00    +0.000 A 
ENDROOT
BRANCH   6  10
ATOM     10  C   UNL     1      43.936   3.183  10.689  0.00  0.00    +0.000 C 
ATOM     11  N   UNL     1      44.120   3.013   9.342  0.00  0.00    +0.000 N 
ATOM     12  O   UNL     1      43.060   2.554  11.270  0.00  0.00    +0.000 OA
ATOM     13  H   UNL     1      44.831   3.461   8.787  0.00  0.00    +0.000 HD
ATOM     14  H   UNL     1      43.514   2.349   8.880  0.00  0.00    +0.000 HD
ENDBRANCH   6  10
BRANCH   1  15
ATOM     15  C   UNL     1      47.536   8.198  13.124  0.00  0.00    +0.000 C 
BRANCH  15  19
ATOM     16  C   UNL     1      51.037   9.705  12.365  0.00  0.00    +0.000 C 
ATOM     17  C   UNL     1      49.712  10.483  12.345  0.00  0.00    +0.000 C 
ATOM     18  C   UNL     1      48.648   9.820  11.470  0.00  0.00    +0.000 C 
ATOM     19  C   UNL     1      48.387   8.349  11.841  0.00  0.00    +0.000 C 
ATOM     20  C   UNL     1      49.705   7.562  11.925  0.00  0.00    +0.000 C 
ATOM     21  C   UNL     1      50.776   8.245  12.775  0.00  0.00    +0.000 C 
BRANCH  16  22
ATOM     22  C   UNL     1      51.815   9.782  11.034  0.00  0.00    +0.000 C 
BRANCH  22  23
ATOM     23  N   UNL     1      52.999   8.926  11.043  0.00  0.00    +0.000 NA
ATOM     24  H   UNL     1      53.818   9.481  11.285  0.00  0.00    +0.000 HD
ATOM     25  H   UNL     1      53.166   8.564  10.105  0.00  0.00    +0.000 HD
ENDBRANCH  22  23
ENDBRANCH  16  22
ENDBRANCH  15  19
ENDBRANCH   1  15
TORSDOF 5
ENDMDL
MODEL 7
REMARK VINA RESULT:    -5.028      4.733      6.427
REMARK INTER + INTRA:          -7.003
REMARK INTER:                  -6.529
REMARK INTRA:                  -0.473
REMARK UNBOUND:                -0.652
REMARK  Name = 
REMARK  5 active torsions:
REMARK  status: ('A' for Active; 'I' for Inactive)
REMARK    1  A    between atoms: N_1  and  C_2
REMARK    2  A    between atoms: C_2  and  C_3
REMARK    3  A    between atoms: C_6  and  C_7
REMARK    4  A    between atoms: C_7  and  N_8
REMARK    5  A    between atoms: C_13  and  C_14
REMARK                            x       y       z     vdW  Elec       q    Type
REMARK                         _______ _______ _______ _____ _____    ______ ____
ROOT
ATOM      1  N   UNL     1      46.715   4.867  13.603  0.00  0.00    +0.000 N 
ATOM      2  C   UNL     1      46.025   3.783  13.105  0.00  0.00    +0.000 A 
ATOM      3  C   UNL     1      45.130   4.243  12.166  0.00  0.00    +0.000 A 
ATOM      4  C   UNL     1      45.218   5.658  12.150  0.00  0.00    +0.000 A 
ATOM      5  C   UNL     1      44.556   6.678  11.445  0.00  0.00    +0.000 A 
ATOM      6  C   UNL     1      44.891   8.002  11.741  0.00  0.00    +0.000 A 
ATOM      7  C   UNL     1      45.887   8.231  12.692  0.00  0.00    +0.000 A 
ATOM      8  N   UNL     1      46.581   7.281  13.378  0.00  0.00    +0.000 NA
ATOM      9  C   UNL     1      46.197   6.025  13.072  0.00  0.00    +0.000 A 
ENDROOT
BRANCH   6  10
ATOM     10  C   UNL     1      44.231   9.171  11.112  0.00  0.00    +0.000 C 
ATOM     11  N   UNL     1      42.934   9.046  10.687  0.00  0.00    +0.000 N 
ATOM     12  O   UNL     1      44.817  10.239  10.980  0.00  0.00    +0.000 OA
ATOM     13  H   UNL     1      42.364   8.221  10.782  0.00  0.00    +0.000 HD
ATOM     14  H   UNL     1      42.506   9.868  10.285  0.00  0.00    +0.000 HD
ENDBRANCH   6  10
BRANCH   1  15
ATOM     15  C   UNL     1      47.843   4.772  14.524  0.00  0.00    +0.000 C 
BRANCH  15  19
ATOM     16  C   UNL     1      49.322   3.611  17.925  0.00  0.00    +0.000 C 
ATOM     17  C   UNL     1      48.304   2.824  17.083  0.00  0.00    +0.000 C 
ATOM     18  C   UNL     1      47.078   3.654  16.707  0.00  0.00    +0.000 C 
ATOM     19  C   UNL     1      47.431   4.975  16.001  0.00  0.00    +0.000 C 
ATOM     20  C   UNL     1      48.492   5.755  16.795  0.00  0.00    +0.000 C 
ATOM     21  C   UNL     1      49.702   4.912  17.197  0.00  0.00    +0.000 C 
BRANCH  16  22
ATOM     22  C   UNL     1      48.839   3.896  19.363  0.00  0.00    +0.000 C 
BRANCH  22  23
ATOM     23  N   UNL     1      49.903   4.451  20.196  0.00  0.00    +0.000 NA
ATOM     24  H   UNL     1      49.520   4.726  21.099  0.00  0.00    +0.000 HD
ATOM     25  H   UNL     1      50.263   5.303  19.768  0.00  0.00    +0.000 HD
ENDBRANCH  22  23
ENDBRANCH  16  22
ENDBRANCH  15  19
ENDBRANCH   1  15
TORSDOF 5
ENDMDL
MODEL 8
REMARK VINA RESULT:    -4.980      3.551      7.248
REMARK INTER + INTRA:          -6.942
REMARK INTER:                  -6.494
REMARK INTRA:                  -0.447
REMARK UNBOUND:                -0.652
REMARK  Name = 
REMARK  5 active torsions:
REMARK  status: ('A' for Active; 'I' for Inactive)
REMARK    1  A    between atoms: N_1  and  C_2
REMARK    2  A    between atoms: C_2  and  C_3
REMARK    3  A    between atoms: C_6  and  C_7
REMARK    4  A    between atoms: C_7  and  N_8
REMARK    5  A    between atoms: C_13  and  C_14
REMARK                            x       y       z     vdW  Elec       q    Type
REMARK                         _______ _______ _______ _____ _____    ______ ____
ROOT
ATOM      1  N   UNL     1      45.757   7.271  12.898  0.00  0.00    +0.000 N 
ATOM      2  C   UNL     1      45.059   8.348  12.396  0.00  0.00    +0.000 A 
ATOM      3  C   UNL     1      45.946   9.384  12.217  0.00  0.00    +0.000 A 
ATOM      4  C   UNL     1      47.207   8.955  12.700  0.00  0.00    +0.000 A 
ATOM      5  C   UNL     1      48.474   9.554  12.816  0.00  0.00    +0.000 A 
ATOM      6  C   UNL     1      49.498   8.809  13.406  0.00  0.00    +0.000 A 
ATOM      7  C   UNL     1      49.213   7.504  13.811  0.00  0.00    +0.000 A 
ATOM      8  N   UNL     1      48.016   6.866  13.692  0.00  0.00    +0.000 NA
ATOM      9  C   UNL     1      47.059   7.641  13.141  0.00  0.00    +0.000 A 
ENDROOT
BRANCH   6  10
ATOM     10  C   UNL     1      50.863   9.340  13.639  0.00  0.00    +0.000 C 
ATOM     11  N   UNL     1      51.889   8.889  12.851  0.00  0.00    +0.000 N 
ATOM     12  O   UNL     1      51.082  10.178  14.506  0.00  0.00    +0.000 OA
ATOM     13  H   UNL     1      51.801   8.228  12.096  0.00  0.00    +0.000 HD
ATOM     14  H   UNL     1      52.802   9.289  13.019  0.00  0.00    +0.000 HD
ENDBRANCH   6  10
BRANCH   1  15
ATOM     15  C   UNL     1      45.190   5.941  13.096  0.00  0.00    +0.000 C 
BRANCH  15  19
ATOM     16  C   UNL     1      43.633   3.391  10.610  0.00  0.00    +0.000 C 
ATOM     17  C   UNL     1      43.924   3.120  12.095  0.00  0.00    +0.000 C 
ATOM     18  C   UNL     1      45.364   3.451  12.488  0.00  0.00    +0.000 C 
ATOM     19  C   UNL     1      45.777   4.889  12.127  0.00  0.00    +0.000 C 
ATOM     20  C   UNL     1      45.442   5.204  10.659  0.00  0.00    +0.000 C 
ATOM     21  C   UNL     1      44.011   4.841  10.264  0.00  0.00    +0.000 C 
BRANCH  16  22
ATOM     22  C   UNL     1      44.322   2.390   9.658  0.00  0.00    +0.000 C 
BRANCH  22  23
ATOM     23  N   UNL     1      44.373   2.890   8.286  0.00  0.00    +0.000 NA
ATOM     24  H   UNL     1      44.095   3.870   8.270  0.00  0.00    +0.000 HD
ATOM     25  H   UNL     1      43.692   2.391   7.715  0.00  0.00    +0.000 HD
ENDBRANCH  22  23
ENDBRANCH  16  22
ENDBRANCH  15  19
ENDBRANCH   1  15
TORSDOF 5
ENDMDL
MODEL 9
REMARK VINA RESULT:    -4.757      4.607      6.658
REMARK INTER + INTRA:          -6.660
REMARK INTER:                  -6.073
REMARK INTRA:                  -0.587
REMARK UNBOUND:                -0.652
REMARK  Name = 
REMARK  5 active torsions:
REMARK  status: ('A' for Active; 'I' for Inactive)
REMARK    1  A    between atoms: N_1  and  C_2
REMARK    2  A    between atoms: C_2  and  C_3
REMARK    3  A    between atoms: C_6  and  C_7
REMARK    4  A    between atoms: C_7  and  N_8
REMARK    5  A    between atoms: C_13  and  C_14
REMARK                            x       y       z     vdW  Elec       q    Type
REMARK                         _______ _______ _______ _____ _____    ______ ____
ROOT
ATOM      1  N   UNL     1      47.481   7.251  12.848  0.00  0.00    +0.000 N 
ATOM      2  C   UNL     1      46.675   6.694  11.879  0.00  0.00    +0.000 A 
ATOM      3  C   UNL     1      46.187   5.502  12.365  0.00  0.00    +0.000 A 
ATOM      4  C   UNL     1      46.777   5.286  13.635  0.00  0.00    +0.000 A 
ATOM      5  C   UNL     1      46.704   4.260  14.593  0.00  0.00    +0.000 A 
ATOM      6  C   UNL     1      47.492   4.379  15.741  0.00  0.00    +0.000 A 
ATOM      7  C   UNL     1      48.276   5.525  15.884  0.00  0.00    +0.000 A 
ATOM      8  N   UNL     1      48.358   6.561  15.005  0.00  0.00    +0.000 NA
ATOM      9  C   UNL     1      47.598   6.379  13.905  0.00  0.00    +0.000 A 
ENDROOT
BRANCH   6  10
ATOM     10  C   UNL     1      47.551   3.344  16.802  0.00  0.00    +0.000 C 
ATOM     11  N   UNL     1      48.762   2.781  17.107  0.00  0.00    +0.000 N 
ATOM     12  O   UNL     1      46.546   3.000  17.412  0.00  0.00    +0.000 OA
ATOM     13  H   UNL     1      49.644   3.022  16.683  0.00  0.00    +0.000 HD
ATOM     14  H   UNL     1      48.771   2.097  17.851  0.00  0.00    +0.000 HD
ENDBRANCH   6  10
BRANCH   1  15
ATOM     15  C   UNL     1      48.075   8.581  12.760  0.00  0.00    +0.000 C 
BRANCH  15  19
ATOM     16  C   UNL     1      51.684   9.883  12.141  0.00  0.00    +0.000 C 
ATOM     17  C   UNL     1      50.417  10.754  12.168  0.00  0.00    +0.000 C 
ATOM     18  C   UNL     1      49.321  10.235  11.238  0.00  0.00    +0.000 C 
ATOM     19  C   UNL     1      48.951   8.764  11.498  0.00  0.00    +0.000 C 
ATOM     20  C   UNL     1      50.208   7.879  11.535  0.00  0.00    +0.000 C 
ATOM     21  C   UNL     1      51.314   8.420  12.441  0.00  0.00    +0.000 C 
BRANCH  16  22
ATOM     22  C   UNL     1      52.482  10.000  10.826  0.00  0.00    +0.000 C 
BRANCH  22  23
ATOM     23  N   UNL     1      53.578   9.036  10.764  0.00  0.00    +0.000 NA
ATOM     24  H   UNL     1      54.463   9.517  10.915  0.00  0.00    +0.000 HD
ATOM     25  H   UNL     1      53.627   8.634   9.829  0.00  0.00    +0.000 HD
ENDBRANCH  22  23
ENDBRANCH  16  22
ENDBRANCH  15  19
ENDBRANCH   1  15
TORSDOF 5
ENDMDL
