MODEL 1
REMARK VINA RESULT:    -8.792      0.000      0.000
REMARK INTER + INTRA:         -12.716
REMARK INTER:                 -11.876
REMARK INTRA:                  -0.841
REMARK UNBOUND:                -0.841
REMARK  Name = 
REMARK  7 active torsions:
REMARK  status: ('A' for Active; 'I' for Inactive)
REMARK    1  A    between atoms: C_1  and  O_2
REMARK    2  A    between atoms: O_2  and  C_3
REMARK    3  A    between atoms: C_5  and  C_6
REMARK    4  A    between atoms: C_6  and  N_7
REMARK    5  A    between atoms: N_7  and  C_8
REMARK    6  A    between atoms: C_11  and  C_12
REMARK    7  A    between atoms: C_21  and  C_22
REMARK                            x       y       z     vdW  Elec       q    Type
REMARK                         _______ _______ _______ _____ _____    ______ ____
ROOT
ATOM      1  C   UNL     1      43.821   5.098  11.409  0.00  0.00    +0.000 C 
ATOM      2  C   UNL     1      42.581   5.499  12.184  0.00  0.00    +0.000 C 
ATOM      3  C   UNL     1      43.093   4.104  12.313  0.00  0.00    +0.000 C 
ENDROOT
BRANCH   1   6
ATOM      4  C   UNL     1      47.164   5.414  13.330  0.00  0.00    +0.000 A 
ATOM      5  C   UNL     1      45.886   4.993  12.920  0.00  0.00    +0.000 A 
ATOM      6  C   UNL     1      45.165   5.638  11.894  0.00  0.00    +0.000 A 
ATOM      7  C   UNL     1      45.756   6.769  11.317  0.00  0.00    +0.000 A 
ATOM      8  C   UNL     1      47.034   7.190  11.688  0.00  0.00    +0.000 A 
ATOM      9  C   UNL     1      47.762   6.506  12.675  0.00  0.00    +0.000 A 
BRANCH   9  10
ATOM     10  C   UNL     1      49.155   7.000  12.924  0.00  0.00    +0.000 C 
ATOM     11  N   UNL     1      49.604   7.059  14.210  0.00  0.00    +0.000 N 
ATOM     12  O   UNL     1      49.897   7.328  12.004  0.00  0.00    +0.000 OA
ATOM     13  H   UNL     1      49.014   6.781  14.987  0.00  0.00    +0.000 HD
ATOM     14  H   UNL     1      50.552   7.357  14.381  0.00  0.00    +0.000 HD
ENDBRANCH   9  10
BRANCH   4  16
ATOM     15  C   UNL     1      47.145   4.274  15.436  0.00  0.00    +0.000 C 
ATOM     16  O   UNL     1      47.873   4.791  14.327  0.00  0.00    +0.000 OA
ENDBRANCH   4  16
ENDBRANCH   1   6
BRANCH   1  17
ATOM     17  N   UNL     1      43.781   4.727   9.988  0.00  0.00    +0.000 N 
ATOM     18  H   UNL     1      42.858   4.703   9.570  0.00  0.00    +0.000 HD
BRANCH  17  19
ATOM     19  C   UNL     1      44.736   3.988   9.268  0.00  0.00    +0.000 A 
ATOM     20  C   UNL     1      45.630   4.533   8.344  0.00  0.00    +0.000 A 
ATOM     21  C   UNL     1      46.488   3.708   7.601  0.00  0.00    +0.000 A 
ATOM     22  C   UNL     1      46.452   2.315   7.754  0.00  0.00    +0.000 A 
ATOM     23  C   UNL     1      45.548   1.756   8.658  0.00  0.00    +0.000 A 
ATOM     24  C   UNL     1      44.703   2.590   9.399  0.00  0.00    +0.000 A 
BRANCH  22  25
ATOM     25  C   UNL     1      47.331   1.465   6.905  0.00  0.00    +0.000 C 
ATOM     26  N   UNL     1      48.386   2.073   6.281  0.00  0.00    +0.000 N 
ATOM     27  O   UNL     1      47.116   0.270   6.749  0.00  0.00    +0.000 OA
ATOM     28  H   UNL     1      48.484   3.075   6.206  0.00  0.00    +0.000 HD
ATOM     29  H   UNL     1      48.943   1.497   5.662  0.00  0.00    +0.000 HD
ENDBRANCH  22  25
ENDBRANCH  17  19
ENDBRANCH   1  17
TORSDOF 6
ENDMDL
MODEL 2
REMARK VINA RESULT:    -8.006      1.163      2.066
REMARK INTER + INTRA:         -11.655
REMARK INTER:                 -10.685
REMARK INTRA:                  -0.970
REMARK UNBOUND:                -0.841
REMARK  Name = 
REMARK  7 active torsions:
REMARK  status: ('A' for Active; 'I' for Inactive)
REMARK    1  A    between atoms: C_1  and  O_2
REMARK    2  A    between atoms: O_2  and  C_3
REMARK    3  A    between atoms: C_5  and  C_6
REMARK    4  A    between atoms: C_6  and  N_7
REMARK    5  A    between atoms: N_7  and  C_8
REMARK    6  A    between atoms: C_11  and  C_12
REMARK    7  A    between atoms: C_21  and  C_22
REMARK                            x       y       z     vdW  Elec       q    Type
REMARK                         _______ _______ _______ _____ _____    ______ ____
ROOT
ATOM      1  C   UNL     1      43.849   4.924  11.464  0.00  0.00    +0.000 C 
ATOM      2  C   UNL     1      42.581   5.187  12.253  0.00  0.00    +0.000 C 
ATOM      3  C   UNL     1      43.155   3.810  12.247  0.00  0.00    +0.000 C 
ENDROOT
BRANCH   1   6
ATOM      4  C   UNL     1      46.627   7.389  12.548  0.00  0.00    +0.000 A 
ATOM      5  C   UNL     1      45.471   6.843  11.963  0.00  0.00    +0.000 A 
ATOM      6  C   UNL     1      45.161   5.469  12.028  0.00  0.00    +0.000 A 
ATOM      7  C   UNL     1      46.089   4.637  12.667  0.00  0.00    +0.000 A 
ATOM      8  C   UNL     1      47.231   5.160  13.279  0.00  0.00    +0.000 A 
ATOM      9  C   UNL     1      47.500   6.537  13.250  0.00  0.00    +0.000 A 
BRANCH   9  10
ATOM     10  C   UNL     1      48.708   6.986  14.015  0.00  0.00    +0.000 C 
ATOM     11  N   UNL     1      49.680   7.673  13.351  0.00  0.00    +0.000 N 
ATOM     12  O   UNL     1      48.827   6.770  15.217  0.00  0.00    +0.000 OA
ATOM     13  H   UNL     1      49.599   7.876  12.361  0.00  0.00    +0.000 HD
ATOM     14  H   UNL     1      50.479   8.008  13.868  0.00  0.00    +0.000 HD
ENDBRANCH   9  10
BRANCH   4  16
ATOM     15  C   UNL     1      45.924   9.622  12.044  0.00  0.00    +0.000 C 
ATOM     16  O   UNL     1      46.936   8.725  12.489  0.00  0.00    +0.000 OA
ENDBRANCH   4  16
ENDBRANCH   1   6
BRANCH   1  17
ATOM     17  N   UNL     1      43.848   4.700  10.012  0.00  0.00    +0.000 N 
ATOM     18  H   UNL     1      42.931   4.654   9.580  0.00  0.00    +0.000 HD
BRANCH  17  19
ATOM     19  C   UNL     1      44.859   4.109   9.234  0.00  0.00    +0.000 A 
ATOM     20  C   UNL     1      45.745   4.814   8.416  0.00  0.00    +0.000 A 
ATOM     21  C   UNL     1      46.664   4.136   7.601  0.00  0.00    +0.000 A 
ATOM     22  C   UNL     1      46.701   2.735   7.575  0.00  0.00    +0.000 A 
ATOM     23  C   UNL     1      45.806   2.019   8.370  0.00  0.00    +0.000 A 
ATOM     24  C   UNL     1      44.899   2.706   9.185  0.00  0.00    +0.000 A 
BRANCH  22  25
ATOM     25  C   UNL     1      47.644   2.047   6.652  0.00  0.00    +0.000 C 
ATOM     26  N   UNL     1      48.088   2.750   5.564  0.00  0.00    +0.000 N 
ATOM     27  O   UNL     1      48.003   0.892   6.840  0.00  0.00    +0.000 OA
ATOM     28  H   UNL     1      47.669   3.613   5.252  0.00  0.00    +0.000 HD
ATOM     29  H   UNL     1      48.685   2.253   4.914  0.00  0.00    +0.000 HD
ENDBRANCH  22  25
ENDBRANCH  17  19
ENDBRANCH   1  17
TORSDOF 6
ENDMDL
MODEL 3
REMARK VINA RESULT:    -6.445      1.814      7.114
REMARK INTER + INTRA:          -9.547
REMARK INTER:                  -9.311
REMARK INTRA:                  -0.236
REMARK UNBOUND:                -0.841
REMARK  Name = 
REMARK  7 active torsions:
REMARK  status: ('A' for Active; 'I' for Inactive)
REMARK    1  A    between atoms: C_1  and  O_2
REMARK    2  A    between atoms: O_2  and  C_3
REMARK    3  A    between atoms: C_5  and  C_6
REMARK    4  A    between atoms: C_6  and  N_7
REMARK    5  A    between atoms: N_7  and  C_8
REMARK    6  A    between atoms: C_11  and  C_12
REMARK    7  A    between atoms: C_21  and  C_22
REMARK                            x       y       z     vdW  Elec       q    Type
REMARK                         _______ _______ _______ _____ _____    ______ ____
ROOT
ATOM      1  C   UNL     1      44.220   4.869  10.778  0.00  0.00    +0.000 C 
ATOM      2  C   UNL     1      43.660   4.250  12.044  0.00  0.00    +0.000 C 
ATOM      3  C   UNL     1      42.714   4.705  10.985  0.00  0.00    +0.000 C 
ENDROOT
BRANCH   1   6
ATOM      4  C   UNL     1      46.332   3.619   7.787  0.00  0.00    +0.000 A 
ATOM      5  C   UNL     1      45.625   4.446   8.679  0.00  0.00    +0.000 A 
ATOM      6  C   UNL     1      44.898   3.937   9.774  0.00  0.00    +0.000 A 
ATOM      7  C   UNL     1      44.860   2.545   9.921  0.00  0.00    +0.000 A 
ATOM      8  C   UNL     1      45.576   1.705   9.065  0.00  0.00    +0.000 A 
ATOM      9  C   UNL     1      46.338   2.230   8.009  0.00  0.00    +0.000 A 
BRANCH   9  10
ATOM     10  C   UNL     1      47.129   1.236   7.214  0.00  0.00    +0.000 C 
ATOM     11  N   UNL     1      48.353   1.608   6.742  0.00  0.00    +0.000 N 
ATOM     12  O   UNL     1      46.713   0.102   7.001  0.00  0.00    +0.000 OA
ATOM     13  H   UNL     1      48.725   2.535   6.916  0.00  0.00    +0.000 HD
ATOM     14  H   UNL     1      48.906   0.932   6.236  0.00  0.00    +0.000 HD
ENDBRANCH   9  10
BRANCH   4  16
ATOM     15  C   UNL     1      46.636   3.710   5.413  0.00  0.00    +0.000 C 
ATOM     16  O   UNL     1      47.043   4.107   6.718  0.00  0.00    +0.000 OA
ENDBRANCH   4  16
ENDBRANCH   1   6
BRANCH   1  17
ATOM     17  N   UNL     1      44.646   6.272  10.703  0.00  0.00    +0.000 N 
ATOM     18  H   UNL     1      44.531   6.715   9.798  0.00  0.00    +0.000 HD
BRANCH  17  19
ATOM     19  C   UNL     1      45.573   6.932  11.529  0.00  0.00    +0.000 A 
ATOM     20  C   UNL     1      46.846   6.449  11.838  0.00  0.00    +0.000 A 
ATOM     21  C   UNL     1      47.672   7.129  12.746  0.00  0.00    +0.000 A 
ATOM     22  C   UNL     1      47.229   8.298  13.380  0.00  0.00    +0.000 A 
ATOM     23  C   UNL     1      45.951   8.779  13.097  0.00  0.00    +0.000 A 
ATOM     24  C   UNL     1      45.139   8.097  12.184  0.00  0.00    +0.000 A 
BRANCH  22  25
ATOM     25  C   UNL     1      48.106   8.959  14.386  0.00  0.00    +0.000 C 
ATOM     26  N   UNL     1      47.579   9.187  15.628  0.00  0.00    +0.000 N 
ATOM     27  O   UNL     1      49.248   9.305  14.117  0.00  0.00    +0.000 OA
ATOM     28  H   UNL     1      46.595   9.115  15.836  0.00  0.00    +0.000 HD
ATOM     29  H   UNL     1      48.165   9.686  16.287  0.00  0.00    +0.000 HD
ENDBRANCH  22  25
ENDBRANCH  17  19
ENDBRANCH   1  17
TORSDOF 6
ENDMDL
MODEL 4
REMARK VINA RESULT:    -6.326      3.133      5.511
REMARK INTER + INTRA:          -9.386
REMARK INTER:                  -8.518
REMARK INTRA:                  -0.867
REMARK UNBOUND:                -0.841
REMARK  Name = 
REMARK  7 active torsions:
REMARK  status: ('A' for Active; 'I' for Inactive)
REMARK    1  A    between atoms: C_1  and  O_2
REMARK    2  A    between atoms: O_2  and  C_3
REMARK    3  A    between atoms: C_5  and  C_6
REMARK    4  A    between atoms: C_6  and  N_7
REMARK    5  A    between atoms: N_7  and  C_8
REMARK    6  A    between atoms: C_11  and  C_12
REMARK    7  A    between atoms: C_21  and  C_22
REMARK                            x       y       z     vdW  Elec       q    Type
REMARK                         _______ _______ _______ _____ _____    ______ ____
ROOT
ATOM      1  C   UNL     1      48.515   7.246  14.192  0.00  0.00    +0.000 C 
ATOM      2  C   UNL     1      49.479   7.547  13.060  0.00  0.00    +0.000 C 
ATOM      3  C   UNL     1      48.972   8.674  13.895  0.00  0.00    +0.000 C 
ENDROOT
BRANCH   1   6
ATOM      4  C   UNL     1      48.810   4.987  17.319  0.00  0.00    +0.000 A 
ATOM      5  C   UNL     1      48.296   5.690  16.214  0.00  0.00    +0.000 A 
ATOM      6  C   UNL     1      49.079   6.571  15.442  0.00  0.00    +0.000 A 
ATOM      7  C   UNL     1      50.405   6.767  15.849  0.00  0.00    +0.000 A 
ATOM      8  C   UNL     1      50.946   6.061  16.925  0.00  0.00    +0.000 A 
ATOM      9  C   UNL     1      50.168   5.147  17.654  0.00  0.00    +0.000 A 
BRANCH   9  10
ATOM     10  C   UNL     1      50.883   4.388  18.730  0.00  0.00    +0.000 C 
ATOM     11  N   UNL     1      50.404   4.459  20.004  0.00  0.00    +0.000 N 
ATOM     12  O   UNL     1      51.865   3.695  18.486  0.00  0.00    +0.000 OA
ATOM     13  H   UNL     1      49.586   5.014  20.229  0.00  0.00    +0.000 HD
ATOM     14  H   UNL     1      50.861   3.922  20.726  0.00  0.00    +0.000 HD
ENDBRANCH   9  10
BRANCH   4  16
ATOM     15  C   UNL     1      47.400   3.053  17.409  0.00  0.00    +0.000 C 
ATOM     16  O   UNL     1      48.055   4.127  18.077  0.00  0.00    +0.000 OA
ENDBRANCH   4  16
ENDBRANCH   1   6
BRANCH   1  17
ATOM     17  N   UNL     1      47.077   7.039  13.974  0.00  0.00    +0.000 N 
ATOM     18  H   UNL     1      46.489   7.178  14.789  0.00  0.00    +0.000 HD
BRANCH  17  19
ATOM     19  C   UNL     1      46.464   6.267  12.973  0.00  0.00    +0.000 A 
ATOM     20  C   UNL     1      46.291   6.676  11.648  0.00  0.00    +0.000 A 
ATOM     21  C   UNL     1      45.584   5.878  10.736  0.00  0.00    +0.000 A 
ATOM     22  C   UNL     1      45.017   4.661  11.138  0.00  0.00    +0.000 A 
ATOM     23  C   UNL     1      45.162   4.252  12.464  0.00  0.00    +0.000 A 
ATOM     24  C   UNL     1      45.877   5.052  13.363  0.00  0.00    +0.000 A 
BRANCH  22  25
ATOM     25  C   UNL     1      44.219   3.870  10.162  0.00  0.00    +0.000 C 
ATOM     26  N   UNL     1      44.085   4.378   8.898  0.00  0.00    +0.000 N 
ATOM     27  O   UNL     1      43.684   2.814  10.472  0.00  0.00    +0.000 OA
ATOM     28  H   UNL     1      44.322   5.327   8.653  0.00  0.00    +0.000 HD
ATOM     29  H   UNL     1      43.494   3.860   8.259  0.00  0.00    +0.000 HD
ENDBRANCH  22  25
ENDBRANCH  17  19
ENDBRANCH   1  17
TORSDOF 6
ENDMDL
MODEL 5
REMARK VINA RESULT:    -6.230      1.791      7.001
REMARK INTER + INTRA:          -9.256
REMARK INTER:                  -9.226
REMARK INTRA:                  -0.030
REMARK UNBOUND:                -0.841
REMARK  Name = 
REMARK  7 active torsions:
REMARK  status: ('A' for Active; 'I' for Inactive)
REMARK    1  A    between atoms: C_1  and  O_2
REMARK    2  A    between atoms: O_2  and  C_3
REMARK    3  A    between atoms: C_5  and  C_6
REMARK    4  A    between atoms: C_6  and  N_7
REMARK    5  A    between atoms: N_7  and  C_8
REMARK    6  A    between atoms: C_11  and  C_12
REMARK    7  A    between atoms: C_21  and  C_22
REMARK                            x       y       z     vdW  Elec       q    Type
REMARK                         _______ _______ _______ _____ _____    ______ ____
ROOT
ATOM      1  C   UNL     1      44.472   4.769  10.842  0.00  0.00    +0.000 C 
ATOM      2  C   UNL     1      44.071   3.820  11.956  0.00  0.00    +0.000 C 
ATOM      3  C   UNL     1      43.019   4.337  11.034  0.00  0.00    +0.000 C 
ENDROOT
BRANCH   1   6
ATOM      4  C   UNL     1      45.790   2.250   8.219  0.00  0.00    +0.000 A 
ATOM      5  C   UNL     1      45.176   2.806   9.355  0.00  0.00    +0.000 A 
ATOM      6  C   UNL     1      45.230   4.183   9.651  0.00  0.00    +0.000 A 
ATOM      7  C   UNL     1      45.975   4.992   8.784  0.00  0.00    +0.000 A 
ATOM      8  C   UNL     1      46.571   4.467   7.635  0.00  0.00    +0.000 A 
ATOM      9  C   UNL     1      46.465   3.101   7.325  0.00  0.00    +0.000 A 
BRANCH   9  10
ATOM     10  C   UNL     1      47.072   2.675   6.023  0.00  0.00    +0.000 C 
ATOM     11  N   UNL     1      48.421   2.491   5.964  0.00  0.00    +0.000 N 
ATOM     12  O   UNL     1      46.385   2.470   5.028  0.00  0.00    +0.000 OA
ATOM     13  H   UNL     1      49.009   2.641   6.776  0.00  0.00    +0.000 HD
ATOM     14  H   UNL     1      48.831   2.170   5.100  0.00  0.00    +0.000 HD
ENDBRANCH   9  10
BRANCH   4  16
ATOM     15  C   UNL     1      46.976   0.217   7.772  0.00  0.00    +0.000 C 
ATOM     16  O   UNL     1      45.741   0.910   7.922  0.00  0.00    +0.000 OA
ENDBRANCH   4  16
ENDBRANCH   1   6
BRANCH   1  17
ATOM     17  N   UNL     1      44.685   6.205  11.063  0.00  0.00    +0.000 N 
ATOM     18  H   UNL     1      44.320   6.816  10.341  0.00  0.00    +0.000 HD
BRANCH  17  19
ATOM     19  C   UNL     1      45.675   6.813  11.856  0.00  0.00    +0.000 A 
ATOM     20  C   UNL     1      46.840   6.181  12.295  0.00  0.00    +0.000 A 
ATOM     21  C   UNL     1      47.730   6.835  13.161  0.00  0.00    +0.000 A 
ATOM     22  C   UNL     1      47.459   8.131  13.621  0.00  0.00    +0.000 A 
ATOM     23  C   UNL     1      46.287   8.765  13.207  0.00  0.00    +0.000 A 
ATOM     24  C   UNL     1      45.411   8.106  12.337  0.00  0.00    +0.000 A 
BRANCH  22  25
ATOM     25  C   UNL     1      48.391   8.772  14.588  0.00  0.00    +0.000 C 
ATOM     26  N   UNL     1      48.306  10.129  14.743  0.00  0.00    +0.000 N 
ATOM     27  O   UNL     1      49.218   8.121  15.214  0.00  0.00    +0.000 OA
ATOM     28  H   UNL     1      47.798  10.729  14.111  0.00  0.00    +0.000 HD
ATOM     29  H   UNL     1      48.982  10.560  15.362  0.00  0.00    +0.000 HD
ENDBRANCH  22  25
ENDBRANCH  17  19
ENDBRANCH   1  17
TORSDOF 6
ENDMDL
MODEL 6
REMARK VINA RESULT:    -5.981      3.199      8.025
REMARK INTER + INTRA:          -8.920
REMARK INTER:                  -8.473
REMARK INTRA:                  -0.447
REMARK UNBOUND:                -0.841
REMARK  Name = 
REMARK  7 active torsions:
REMARK  status: ('A' for Active; 'I' for Inactive)
REMARK    1  A    between atoms: C_1  and  O_2
REMARK    2  A    between atoms: O_2  and  C_3
REMARK    3  A    between atoms: C_5  and  C_6
REMARK    4  A    between atoms: C_6  and  N_7
REMARK    5  A    between atoms: N_7  and  C_8
REMARK    6  A    between atoms: C_11  and  C_12
REMARK    7  A    between atoms: C_21  and  C_22
REMARK                            x       y       z     vdW  Elec       q    Type
REMARK                         _______ _______ _______ _____ _____    ______ ____
ROOT
ATOM      1  C   UNL     1      47.202   7.072  13.188  0.00  0.00    +0.000 C 
ATOM      2  C   UNL     1      46.653   8.468  13.415  0.00  0.00    +0.000 C 
ATOM      3  C   UNL     1      47.615   8.245  12.298  0.00  0.00    +0.000 C 
ENDROOT
BRANCH   1   6
ATOM      4  C   UNL     1      45.231   4.973  10.604  0.00  0.00    +0.000 A 
ATOM      5  C   UNL     1      46.023   5.972  11.198  0.00  0.00    +0.000 A 
ATOM      6  C   UNL     1      46.260   6.030  12.586  0.00  0.00    +0.000 A 
ATOM      7  C   UNL     1      45.626   5.066  13.381  0.00  0.00    +0.000 A 
ATOM      8  C   UNL     1      44.858   4.048  12.812  0.00  0.00    +0.000 A 
ATOM      9  C   UNL     1      44.672   3.974  11.422  0.00  0.00    +0.000 A 
BRANCH   9  10
ATOM     10  C   UNL     1      43.901   2.789  10.925  0.00  0.00    +0.000 C 
ATOM     11  N   UNL     1      44.394   2.090   9.864  0.00  0.00    +0.000 N 
ATOM     12  O   UNL     1      42.859   2.427  11.461  0.00  0.00    +0.000 OA
ATOM     13  H   UNL     1      45.261   2.361   9.412  0.00  0.00    +0.000 HD
ATOM     14  H   UNL     1      43.898   1.271   9.547  0.00  0.00    +0.000 HD
ENDBRANCH   9  10
BRANCH   4  16
ATOM     15  C   UNL     1      46.109   4.696   8.393  0.00  0.00    +0.000 C 
ATOM     16  O   UNL     1      44.995   4.910   9.253  0.00  0.00    +0.000 OA
ENDBRANCH   4  16
ENDBRANCH   1   6
BRANCH   1  17
ATOM     17  N   UNL     1      48.313   6.520  13.973  0.00  0.00    +0.000 N 
ATOM     18  H   UNL     1      48.998   5.990  13.446  0.00  0.00    +0.000 HD
BRANCH  17  19
ATOM     19  C   UNL     1      48.331   6.235  15.350  0.00  0.00    +0.000 A 
ATOM     20  C   UNL     1      48.919   7.049  16.321  0.00  0.00    +0.000 A 
ATOM     21  C   UNL     1      48.973   6.643  17.663  0.00  0.00    +0.000 A 
ATOM     22  C   UNL     1      48.456   5.401  18.056  0.00  0.00    +0.000 A 
ATOM     23  C   UNL     1      47.886   4.569  17.092  0.00  0.00    +0.000 A 
ATOM     24  C   UNL     1      47.831   4.988  15.758  0.00  0.00    +0.000 A 
BRANCH  22  25
ATOM     25  C   UNL     1      48.586   4.973  19.476  0.00  0.00    +0.000 C 
ATOM     26  N   UNL     1      48.502   3.633  19.742  0.00  0.00    +0.000 N 
ATOM     27  O   UNL     1      48.745   5.781  20.381  0.00  0.00    +0.000 OA
ATOM     28  H   UNL     1      48.167   2.954  19.074  0.00  0.00    +0.000 HD
ATOM     29  H   UNL     1      48.536   3.358  20.716  0.00  0.00    +0.000 HD
ENDBRANCH  22  25
ENDBRANCH  17  19
ENDBRANCH   1  17
TORSDOF 6
ENDMDL
