MODEL 1
REMARK VINA RESULT:    -7.529      0.000      0.000
REMARK INTER + INTRA:         -11.848
REMARK INTER:                 -10.611
REMARK INTRA:                  -1.237
REMARK UNBOUND:                -1.237
REMARK  Name = 
REMARK  7 active torsions:
REMARK  status: ('A' for Active; 'I' for Inactive)
REMARK    1  A    between atoms: C_2  and  C_3
REMARK    2  A    between atoms: C_8  and  C_9
REMARK    3  A    between atoms: N_11  and  C_12
REMARK    4  A    between atoms: C_12  and  C_13
REMARK    5  A    between atoms: C_16  and  C_17
REMARK    6  A    between atoms: C_17  and  N_18
REMARK    7  A    between atoms: C_19  and  C_21
REMARK                            x       y       z     vdW  Elec       q    Type
REMARK                         _______ _______ _______ _____ _____    ______ ____
ROOT
ATOM      1  C   UNL     1      50.082   7.069  15.677  0.00  0.00    +0.000 A 
ATOM      2  C   UNL     1      48.860   6.394  15.550  0.00  0.00    +0.000 A 
ATOM      3  C   UNL     1      48.067   6.556  14.409  0.00  0.00    +0.000 A 
ATOM      4  C   UNL     1      48.489   7.377  13.355  0.00  0.00    +0.000 A 
ATOM      5  C   UNL     1      49.709   8.056  13.483  0.00  0.00    +0.000 A 
ATOM      6  C   UNL     1      50.501   7.898  14.627  0.00  0.00    +0.000 A 
ENDROOT
BRANCH   1   7
ATOM      7  C   UNL     1      50.922   6.905  16.919  0.00  0.00    +0.000 C 
BRANCH   7  10
ATOM      8  C   UNL     1      51.135   4.683  17.965  0.00  0.00    +0.000 C 
ATOM      9  O   UNL     1      50.239   4.911  18.773  0.00  0.00    +0.000 OA
ATOM     10  N   UNL     1      51.524   5.589  17.005  0.00  0.00    +0.000 N 
ATOM     11  H   UNL     1      52.170   5.338  16.270  0.00  0.00    +0.000 HD
BRANCH   8  17
ATOM     12  C   UNL     1      51.317   2.177  17.412  0.00  0.00    +0.000 A 
ATOM     13  C   UNL     1      52.094   1.004  17.443  0.00  0.00    +0.000 A 
ATOM     14  C   UNL     1      53.344   0.991  18.061  0.00  0.00    +0.000 A 
ATOM     15  C   UNL     1      53.832   2.148  18.658  0.00  0.00    +0.000 A 
ATOM     16  C   UNL     1      53.073   3.320  18.624  0.00  0.00    +0.000 A 
ATOM     17  C   UNL     1      51.810   3.352  18.010  0.00  0.00    +0.000 A 
BRANCH  12  19
ATOM     18  N   UNL     1      49.052   2.063  16.161  0.00  0.00    +0.000 NA
ATOM     19  C   UNL     1      50.050   2.113  16.750  0.00  0.00    +0.000 C 
ENDBRANCH  12  19
ENDBRANCH   8  17
ENDBRANCH   7  10
ENDBRANCH   1   7
BRANCH   4  20
ATOM     20  C   UNL     1      47.639   7.549  12.120  0.00  0.00    +0.000 C 
BRANCH  20  21
ATOM     21  N   UNL     1      46.924   6.341  11.791  0.00  0.00    +0.000 N 
ATOM     22  C   UNL     1      45.553   6.291  11.826  0.00  0.00    +0.000 C 
ATOM     23  O   UNL     1      44.873   7.279  12.093  0.00  0.00    +0.000 OA
ATOM     24  H   UNL     1      47.456   5.476  11.790  0.00  0.00    +0.000 HD
BRANCH  22  25
ATOM     25  C   UNL     1      44.929   5.010  11.465  0.00  0.00    +0.000 A 
ATOM     26  C   UNL     1      44.177   4.320  12.406  0.00  0.00    +0.000 A 
ATOM     27  S   UNL     1      43.486   2.878  11.810  0.00  0.00    +0.000 S 
ATOM     28  C   UNL     1      44.211   3.098  10.286  0.00  0.00    +0.000 A 
ATOM     29  N   UNL     1      44.039   2.186   9.292  0.00  0.00    +0.000 NA
ATOM     30  C   UNL     1      44.668   2.462   8.199  0.00  0.00    +0.000 A 
ATOM     31  N   UNL     1      45.448   3.575   8.008  0.00  0.00    +0.000 N 
ATOM     32  C   UNL     1      45.626   4.535   8.972  0.00  0.00    +0.000 A 
ATOM     33  O   UNL     1      46.302   5.538   8.756  0.00  0.00    +0.000 OA
ATOM     34  C   UNL     1      44.952   4.267  10.228  0.00  0.00    +0.000 A 
ATOM     35  H   UNL     1      45.908   3.737   7.125  0.00  0.00    +0.000 HD
ENDBRANCH  22  25
ENDBRANCH  20  21
ENDBRANCH   4  20
TORSDOF 7
ENDMDL
MODEL 2
REMARK VINA RESULT:    -7.237      2.934      9.665
REMARK INTER + INTRA:         -11.436
REMARK INTER:                 -10.426
REMARK INTRA:                  -1.011
REMARK UNBOUND:                -1.237
REMARK  Name = 
REMARK  7 active torsions:
REMARK  status: ('A' for Active; 'I' for Inactive)
REMARK    1  A    between atoms: C_2  and  C_3
REMARK    2  A    between atoms: C_8  and  C_9
REMARK    3  A    between atoms: N_11  and  C_12
REMARK    4  A    between atoms: C_12  and  C_13
REMARK    5  A    between atoms: C_16  and  C_17
REMARK    6  A    between atoms: C_17  and  N_18
REMARK    7  A    between atoms: C_19  and  C_21
REMARK                            x       y       z     vdW  Elec       q    Type
REMARK                         _______ _______ _______ _____ _____    ______ ____
ROOT
ATOM      1  C   UNL     1      47.415   5.743  14.503  0.00  0.00    +0.000 A 
ATOM      2  C   UNL     1      48.295   6.250  15.468  0.00  0.00    +0.000 A 
ATOM      3  C   UNL     1      48.593   5.515  16.621  0.00  0.00    +0.000 A 
ATOM      4  C   UNL     1      48.040   4.244  16.823  0.00  0.00    +0.000 A 
ATOM      5  C   UNL     1      47.157   3.738  15.859  0.00  0.00    +0.000 A 
ATOM      6  C   UNL     1      46.853   4.475  14.708  0.00  0.00    +0.000 A 
ENDROOT
BRANCH   1   7
ATOM      7  C   UNL     1      47.082   6.550  13.272  0.00  0.00    +0.000 C 
BRANCH   7  10
ATOM      8  C   UNL     1      45.531   5.609  11.603  0.00  0.00    +0.000 C 
ATOM      9  O   UNL     1      44.577   6.244  12.044  0.00  0.00    +0.000 OA
ATOM     10  N   UNL     1      46.801   5.711  12.124  0.00  0.00    +0.000 N 
ATOM     11  H   UNL     1      47.596   5.284  11.670  0.00  0.00    +0.000 HD
BRANCH   8  17
ATOM     12  C   UNL     1      44.516   3.549  10.444  0.00  0.00    +0.000 A 
ATOM     13  C   UNL     1      44.305   2.839   9.247  0.00  0.00    +0.000 A 
ATOM     14  C   UNL     1      44.873   3.273   8.049  0.00  0.00    +0.000 A 
ATOM     15  C   UNL     1      45.660   4.419   8.033  0.00  0.00    +0.000 A 
ATOM     16  C   UNL     1      45.867   5.136   9.213  0.00  0.00    +0.000 A 
ATOM     17  C   UNL     1      45.307   4.712  10.430  0.00  0.00    +0.000 A 
BRANCH  12  19
ATOM     18  N   UNL     1      43.438   2.618  12.607  0.00  0.00    +0.000 NA
ATOM     19  C   UNL     1      43.892   3.046  11.630  0.00  0.00    +0.000 C 
ENDBRANCH  12  19
ENDBRANCH   8  17
ENDBRANCH   7  10
ENDBRANCH   1   7
BRANCH   4  20
ATOM     20  C   UNL     1      48.366   3.446  18.061  0.00  0.00    +0.000 C 
BRANCH  20  21
ATOM     21  N   UNL     1      49.784   3.217  18.193  0.00  0.00    +0.000 N 
ATOM     22  C   UNL     1      50.442   2.331  17.378  0.00  0.00    +0.000 C 
ATOM     23  O   UNL     1      49.868   1.729  16.474  0.00  0.00    +0.000 OA
ATOM     24  H   UNL     1      50.221   3.524  19.056  0.00  0.00    +0.000 HD
BRANCH  22  25
ATOM     25  C   UNL     1      51.888   2.182  17.597  0.00  0.00    +0.000 A 
ATOM     26  C   UNL     1      52.439   0.914  17.721  0.00  0.00    +0.000 A 
ATOM     27  S   UNL     1      54.133   0.919  17.923  0.00  0.00    +0.000 S 
ATOM     28  C   UNL     1      54.185   2.619  17.902  0.00  0.00    +0.000 A 
ATOM     29  N   UNL     1      55.361   3.285  18.056  0.00  0.00    +0.000 NA
ATOM     30  C   UNL     1      55.251   4.572  18.050  0.00  0.00    +0.000 A 
ATOM     31  N   UNL     1      54.069   5.252  17.896  0.00  0.00    +0.000 N 
ATOM     32  C   UNL     1      52.864   4.623  17.711  0.00  0.00    +0.000 A 
ATOM     33  O   UNL     1      51.830   5.264  17.541  0.00  0.00    +0.000 OA
ATOM     34  C   UNL     1      52.928   3.174  17.723  0.00  0.00    +0.000 A 
ATOM     35  H   UNL     1      54.052   6.261  17.893  0.00  0.00    +0.000 HD
ENDBRANCH  22  25
ENDBRANCH  20  21
ENDBRANCH   4  20
TORSDOF 7
ENDMDL
MODEL 3
REMARK VINA RESULT:    -7.098      2.986      9.632
REMARK INTER + INTRA:         -11.239
REMARK INTER:                 -10.232
REMARK INTRA:                  -1.008
REMARK UNBOUND:                -1.237
REMARK  Name = 
REMARK  7 active torsions:
REMARK  status: ('A' for Active; 'I' for Inactive)
REMARK    1  A    between atoms: C_2  and  C_3
REMARK    2  A    between atoms: C_8  and  C_9
REMARK    3  A    between atoms: N_11  and  C_12
REMARK    4  A    between atoms: C_12  and  C_13
REMARK    5  A    between atoms: C_16  and  C_17
REMARK    6  A    between atoms: C_17  and  N_18
REMARK    7  A    between atoms: C_19  and  C_21
REMARK                            x       y       z     vdW  Elec       q    Type
REMARK                         _______ _______ _______ _____ _____    ______ ____
ROOT
ATOM      1  C   UNL     1      47.367   6.439  13.758  0.00  0.00    +0.000 A 
ATOM      2  C   UNL     1      48.293   7.157  14.527  0.00  0.00    +0.000 A 
ATOM      3  C   UNL     1      48.741   6.660  15.756  0.00  0.00    +0.000 A 
ATOM      4  C   UNL     1      48.296   5.421  16.233  0.00  0.00    +0.000 A 
ATOM      5  C   UNL     1      47.366   4.704  15.466  0.00  0.00    +0.000 A 
ATOM      6  C   UNL     1      46.912   5.203  14.239  0.00  0.00    +0.000 A 
ENDROOT
BRANCH   1   7
ATOM      7  C   UNL     1      46.872   6.991  12.443  0.00  0.00    +0.000 C 
BRANCH   7  10
ATOM      8  C   UNL     1      45.397   5.604  11.037  0.00  0.00    +0.000 C 
ATOM      9  O   UNL     1      44.384   6.171  11.436  0.00  0.00    +0.000 OA
ATOM     10  N   UNL     1      46.662   5.951  11.456  0.00  0.00    +0.000 N 
ATOM     11  H   UNL     1      47.488   5.563  11.023  0.00  0.00    +0.000 HD
BRANCH   8  17
ATOM     12  C   UNL     1      44.563   3.303  10.246  0.00  0.00    +0.000 A 
ATOM     13  C   UNL     1      44.412   2.391   9.184  0.00  0.00    +0.000 A 
ATOM     14  C   UNL     1      44.940   2.669   7.923  0.00  0.00    +0.000 A 
ATOM     15  C   UNL     1      45.625   3.859   7.708  0.00  0.00    +0.000 A 
ATOM     16  C   UNL     1      45.770   4.776   8.752  0.00  0.00    +0.000 A 
ATOM     17  C   UNL     1      45.250   4.511  10.030  0.00  0.00    +0.000 A 
BRANCH  12  19
ATOM     18  N   UNL     1      43.541   2.713  12.552  0.00  0.00    +0.000 NA
ATOM     19  C   UNL     1      43.985   2.950  11.507  0.00  0.00    +0.000 C 
ENDBRANCH  12  19
ENDBRANCH   8  17
ENDBRANCH   7  10
ENDBRANCH   1   7
BRANCH   4  20
ATOM     20  C   UNL     1      48.783   4.880  17.554  0.00  0.00    +0.000 C 
BRANCH  20  21
ATOM     21  N   UNL     1      50.126   4.363  17.458  0.00  0.00    +0.000 N 
ATOM     22  C   UNL     1      50.958   4.332  18.548  0.00  0.00    +0.000 C 
ATOM     23  O   UNL     1      50.587   4.698  19.661  0.00  0.00    +0.000 OA
ATOM     24  H   UNL     1      50.518   4.270  16.526  0.00  0.00    +0.000 HD
BRANCH  22  25
ATOM     25  C   UNL     1      52.303   3.778  18.336  0.00  0.00    +0.000 A 
ATOM     26  C   UNL     1      53.420   4.566  18.581  0.00  0.00    +0.000 A 
ATOM     27  S   UNL     1      54.900   3.755  18.331  0.00  0.00    +0.000 S 
ATOM     28  C   UNL     1      54.101   2.337  17.836  0.00  0.00    +0.000 A 
ATOM     29  N   UNL     1      54.803   1.237  17.450  0.00  0.00    +0.000 NA
ATOM     30  C   UNL     1      54.072   0.243  17.072  0.00  0.00    +0.000 A 
ATOM     31  N   UNL     1      52.700   0.246  17.052  0.00  0.00    +0.000 N 
ATOM     32  C   UNL     1      51.951   1.322  17.459  0.00  0.00    +0.000 A 
ATOM     33  O   UNL     1      50.723   1.278  17.463  0.00  0.00    +0.000 OA
ATOM     34  C   UNL     1      52.724   2.474  17.882  0.00  0.00    +0.000 A 
ATOM     35  H   UNL     1      52.187  -0.568  16.752  0.00  0.00    +0.000 HD
ENDBRANCH  22  25
ENDBRANCH  20  21
ENDBRANCH   4  20
TORSDOF 7
ENDMDL
MODEL 4
REMARK VINA RESULT:    -7.068      4.472     10.145
REMARK INTER + INTRA:         -11.198
REMARK INTER:                 -10.085
REMARK INTRA:                  -1.113
REMARK UNBOUND:                -1.237
REMARK  Name = 
REMARK  7 active torsions:
REMARK  status: ('A' for Active; 'I' for Inactive)
REMARK    1  A    between atoms: C_2  and  C_3
REMARK    2  A    between atoms: C_8  and  C_9
REMARK    3  A    between atoms: N_11  and  C_12
REMARK    4  A    between atoms: C_12  and  C_13
REMARK    5  A    between atoms: C_16  and  C_17
REMARK    6  A    between atoms: C_17  and  N_18
REMARK    7  A    between atoms: C_19  and  C_21
REMARK                            x       y       z     vdW  Elec       q    Type
REMARK                         _______ _______ _______ _____ _____    ______ ____
ROOT
ATOM      1  C   UNL     1      48.789   3.374  17.295  0.00  0.00    +0.000 A 
ATOM      2  C   UNL     1      49.356   2.144  16.935  0.00  0.00    +0.000 A 
ATOM      3  C   UNL     1      50.720   1.900  17.131  0.00  0.00    +0.000 A 
ATOM      4  C   UNL     1      51.544   2.869  17.717  0.00  0.00    +0.000 A 
ATOM      5  C   UNL     1      50.978   4.101  18.074  0.00  0.00    +0.000 A 
ATOM      6  C   UNL     1      49.615   4.349  17.873  0.00  0.00    +0.000 A 
ENDROOT
BRANCH   1   7
ATOM      7  C   UNL     1      47.322   3.638  17.062  0.00  0.00    +0.000 C 
BRANCH   7  10
ATOM      8  C   UNL     1      47.152   4.204  14.669  0.00  0.00    +0.000 C 
ATOM      9  O   UNL     1      47.349   3.044  14.319  0.00  0.00    +0.000 OA
ATOM     10  N   UNL     1      47.098   4.588  15.990  0.00  0.00    +0.000 N 
ATOM     11  H   UNL     1      46.808   5.516  16.261  0.00  0.00    +0.000 HD
BRANCH   8  17
ATOM     12  C   UNL     1      45.733   5.414  12.897  0.00  0.00    +0.000 A 
ATOM     13  C   UNL     1      45.617   6.487  11.993  0.00  0.00    +0.000 A 
ATOM     14  C   UNL     1      46.676   7.374  11.797  0.00  0.00    +0.000 A 
ATOM     15  C   UNL     1      47.862   7.198  12.500  0.00  0.00    +0.000 A 
ATOM     16  C   UNL     1      47.984   6.143  13.407  0.00  0.00    +0.000 A 
ATOM     17  C   UNL     1      46.930   5.237  13.614  0.00  0.00    +0.000 A 
BRANCH  12  19
ATOM     18  N   UNL     1      43.715   3.811  13.156  0.00  0.00    +0.000 NA
ATOM     19  C   UNL     1      44.599   4.554  13.050  0.00  0.00    +0.000 C 
ENDBRANCH  12  19
ENDBRANCH   8  17
ENDBRANCH   7  10
ENDBRANCH   1   7
BRANCH   4  20
ATOM     20  C   UNL     1      53.013   2.606  17.936  0.00  0.00    +0.000 C 
BRANCH  20  21
ATOM     21  N   UNL     1      53.339   1.212  17.759  0.00  0.00    +0.000 N 
ATOM     22  C   UNL     1      54.154   0.552  18.644  0.00  0.00    +0.000 C 
ATOM     23  O   UNL     1      54.605   1.101  19.646  0.00  0.00    +0.000 OA
ATOM     24  H   UNL     1      53.168   0.812  16.842  0.00  0.00    +0.000 HD
BRANCH  22  25
ATOM     25  C   UNL     1      54.413  -0.869  18.369  0.00  0.00    +0.000 A 
ATOM     26  C   UNL     1      54.191  -1.815  19.361  0.00  0.00    +0.000 A 
ATOM     27  S   UNL     1      54.496  -3.417  18.861  0.00  0.00    +0.000 S 
ATOM     28  C   UNL     1      54.985  -2.900  17.316  0.00  0.00    +0.000 A 
ATOM     29  N   UNL     1      55.406  -3.793  16.380  0.00  0.00    +0.000 NA
ATOM     30  C   UNL     1      55.775  -3.262  15.263  0.00  0.00    +0.000 A 
ATOM     31  N   UNL     1      55.754  -1.916  14.995  0.00  0.00    +0.000 N 
ATOM     32  C   UNL     1      55.311  -0.983  15.898  0.00  0.00    +0.000 A 
ATOM     33  O   UNL     1      55.271   0.212  15.612  0.00  0.00    +0.000 OA
ATOM     34  C   UNL     1      54.897  -1.525  17.178  0.00  0.00    +0.000 A 
ATOM     35  H   UNL     1      56.049  -1.565  14.097  0.00  0.00    +0.000 HD
ENDBRANCH  22  25
ENDBRANCH  20  21
ENDBRANCH   4  20
TORSDOF 7
ENDMDL
MODEL 5
REMARK VINA RESULT:    -6.955      3.357      5.284
REMARK INTER + INTRA:         -11.038
REMARK INTER:                 -10.264
REMARK INTRA:                  -0.774
REMARK UNBOUND:                -1.237
REMARK  Name = 
REMARK  7 active torsions:
REMARK  status: ('A' for Active; 'I' for Inactive)
REMARK    1  A    between atoms: C_2  and  C_3
REMARK    2  A    between atoms: C_8  and  C_9
REMARK    3  A    between atoms: N_11  and  C_12
REMARK    4  A    between atoms: C_12  and  C_13
REMARK    5  A    between atoms: C_16  and  C_17
REMARK    6  A    between atoms: C_17  and  N_18
REMARK    7  A    between atoms: C_19  and  C_21
REMARK                            x       y       z     vdW  Elec       q    Type
REMARK                         _______ _______ _______ _____ _____    ______ ____
ROOT
ATOM      1  C   UNL     1      51.568   2.850  17.762  0.00  0.00    +0.000 A 
ATOM      2  C   UNL     1      50.966   4.053  18.155  0.00  0.00    +0.000 A 
ATOM      3  C   UNL     1      49.605   4.282  17.924  0.00  0.00    +0.000 A 
ATOM      4  C   UNL     1      48.807   3.301  17.319  0.00  0.00    +0.000 A 
ATOM      5  C   UNL     1      49.410   2.100  16.923  0.00  0.00    +0.000 A 
ATOM      6  C   UNL     1      50.773   1.872  17.148  0.00  0.00    +0.000 A 
ENDROOT
BRANCH   1   7
ATOM      7  C   UNL     1      53.042   2.620  17.996  0.00  0.00    +0.000 C 
BRANCH   7  10
ATOM      8  C   UNL     1      54.290   0.503  18.190  0.00  0.00    +0.000 C 
ATOM      9  O   UNL     1      54.635   0.743  19.344  0.00  0.00    +0.000 OA
ATOM     10  N   UNL     1      53.491   1.351  17.457  0.00  0.00    +0.000 N 
ATOM     11  H   UNL     1      53.113   1.080  16.561  0.00  0.00    +0.000 HD
BRANCH   8  17
ATOM     12  C   UNL     1      54.504  -2.059  18.107  0.00  0.00    +0.000 A 
ATOM     13  C   UNL     1      54.888  -3.199  17.376  0.00  0.00    +0.000 A 
ATOM     14  C   UNL     1      55.496  -3.076  16.127  0.00  0.00    +0.000 A 
ATOM     15  C   UNL     1      55.729  -1.813  15.594  0.00  0.00    +0.000 A 
ATOM     16  C   UNL     1      55.342  -0.676  16.306  0.00  0.00    +0.000 A 
ATOM     17  C   UNL     1      54.733  -0.780  17.568  0.00  0.00    +0.000 A 
BRANCH  12  19
ATOM     18  N   UNL     1      53.366  -2.379  20.412  0.00  0.00    +0.000 NA
ATOM     19  C   UNL     1      53.877  -2.268  19.376  0.00  0.00    +0.000 C 
ENDBRANCH  12  19
ENDBRANCH   8  17
ENDBRANCH   7  10
ENDBRANCH   1   7
BRANCH   4  20
ATOM     20  C   UNL     1      47.338   3.542  17.076  0.00  0.00    +0.000 C 
BRANCH  20  21
ATOM     21  N   UNL     1      47.121   4.563  16.080  0.00  0.00    +0.000 N 
ATOM     22  C   UNL     1      47.153   4.270  14.740  0.00  0.00    +0.000 C 
ATOM     23  O   UNL     1      47.322   3.125  14.328  0.00  0.00    +0.000 OA
ATOM     24  H   UNL     1      47.204   5.527  16.384  0.00  0.00    +0.000 HD
BRANCH  22  25
ATOM     25  C   UNL     1      46.911   5.387  13.815  0.00  0.00    +0.000 A 
ATOM     26  C   UNL     1      47.917   6.315  13.577  0.00  0.00    +0.000 A 
ATOM     27  S   UNL     1      47.488   7.515  12.444  0.00  0.00    +0.000 S 
ATOM     28  C   UNL     1      45.924   6.869  12.269  0.00  0.00    +0.000 A 
ATOM     29  N   UNL     1      45.013   7.452  11.444  0.00  0.00    +0.000 NA
ATOM     30  C   UNL     1      43.859   6.875  11.430  0.00  0.00    +0.000 A 
ATOM     31  N   UNL     1      43.535   5.761  12.162  0.00  0.00    +0.000 N 
ATOM     32  C   UNL     1      44.428   5.124  12.985  0.00  0.00    +0.000 A 
ATOM     33  O   UNL     1      44.115   4.106  13.599  0.00  0.00    +0.000 OA
ATOM     34  C   UNL     1      45.739   5.739  13.050  0.00  0.00    +0.000 A 
ATOM     35  H   UNL     1      42.614   5.353  12.100  0.00  0.00    +0.000 HD
ENDBRANCH  22  25
ENDBRANCH  20  21
ENDBRANCH   4  20
TORSDOF 7
ENDMDL
MODEL 6
REMARK VINA RESULT:    -6.846      3.270      8.725
REMARK INTER + INTRA:         -10.885
REMARK INTER:                 -10.727
REMARK INTRA:                  -0.158
REMARK UNBOUND:                -1.237
REMARK  Name = 
REMARK  7 active torsions:
REMARK  status: ('A' for Active; 'I' for Inactive)
REMARK    1  A    between atoms: C_2  and  C_3
REMARK    2  A    between atoms: C_8  and  C_9
REMARK    3  A    between atoms: N_11  and  C_12
REMARK    4  A    between atoms: C_12  and  C_13
REMARK    5  A    between atoms: C_16  and  C_17
REMARK    6  A    between atoms: C_17  and  N_18
REMARK    7  A    between atoms: C_19  and  C_21
REMARK                            x       y       z     vdW  Elec       q    Type
REMARK                         _______ _______ _______ _____ _____    ______ ____
ROOT
ATOM      1  C   UNL     1      44.781   6.598  11.378  0.00  0.00    +0.000 A 
ATOM      2  C   UNL     1      45.664   5.844  12.163  0.00  0.00    +0.000 A 
ATOM      3  C   UNL     1      46.574   6.472  13.020  0.00  0.00    +0.000 A 
ATOM      4  C   UNL     1      46.605   7.868  13.133  0.00  0.00    +0.000 A 
ATOM      5  C   UNL     1      45.725   8.622  12.345  0.00  0.00    +0.000 A 
ATOM      6  C   UNL     1      44.817   7.995  11.482  0.00  0.00    +0.000 A 
ENDROOT
BRANCH   1   7
ATOM      7  C   UNL     1      43.816   5.914  10.440  0.00  0.00    +0.000 C 
BRANCH   7  10
ATOM      8  C   UNL     1      45.439   4.775   8.976  0.00  0.00    +0.000 C 
ATOM      9  O   UNL     1      45.994   5.828   8.672  0.00  0.00    +0.000 OA
ATOM     10  N   UNL     1      44.379   4.715   9.852  0.00  0.00    +0.000 N 
ATOM     11  H   UNL     1      44.019   3.833  10.188  0.00  0.00    +0.000 HD
BRANCH   8  17
ATOM     12  C   UNL     1      45.486   2.217   8.708  0.00  0.00    +0.000 A 
ATOM     13  C   UNL     1      45.993   1.101   8.016  0.00  0.00    +0.000 A 
ATOM     14  C   UNL     1      46.961   1.255   7.023  0.00  0.00    +0.000 A 
ATOM     15  C   UNL     1      47.434   2.524   6.711  0.00  0.00    +0.000 A 
ATOM     16  C   UNL     1      46.930   3.639   7.384  0.00  0.00    +0.000 A 
ATOM     17  C   UNL     1      45.959   3.503   8.391  0.00  0.00    +0.000 A 
BRANCH  12  19
ATOM     18  N   UNL     1      43.700   1.832  10.544  0.00  0.00    +0.000 NA
ATOM     19  C   UNL     1      44.488   1.978   9.705  0.00  0.00    +0.000 C 
ENDBRANCH  12  19
ENDBRANCH   8  17
ENDBRANCH   7  10
ENDBRANCH   1   7
BRANCH   4  20
ATOM     20  C   UNL     1      47.581   8.548  14.062  0.00  0.00    +0.000 C 
BRANCH  20  21
ATOM     21  N   UNL     1      47.897   7.723  15.202  0.00  0.00    +0.000 N 
ATOM     22  C   UNL     1      49.073   7.020  15.269  0.00  0.00    +0.000 C 
ATOM     23  O   UNL     1      49.927   7.094  14.389  0.00  0.00    +0.000 OA
ATOM     24  H   UNL     1      47.129   7.475  15.818  0.00  0.00    +0.000 HD
BRANCH  22  25
ATOM     25  C   UNL     1      49.294   6.217  16.481  0.00  0.00    +0.000 A 
ATOM     26  C   UNL     1      50.292   6.579  17.376  0.00  0.00    +0.000 A 
ATOM     27  S   UNL     1      50.381   5.571  18.749  0.00  0.00    +0.000 S 
ATOM     28  C   UNL     1      49.122   4.583  18.173  0.00  0.00    +0.000 A 
ATOM     29  N   UNL     1      48.709   3.495  18.876  0.00  0.00    +0.000 NA
ATOM     30  C   UNL     1      47.766   2.819  18.310  0.00  0.00    +0.000 A 
ATOM     31  N   UNL     1      47.195   3.138  17.104  0.00  0.00    +0.000 N 
ATOM     32  C   UNL     1      47.560   4.241  16.374  0.00  0.00    +0.000 A 
ATOM     33  O   UNL     1      47.002   4.517  15.314  0.00  0.00    +0.000 OA
ATOM     34  C   UNL     1      48.627   5.029  16.958  0.00  0.00    +0.000 A 
ATOM     35  H   UNL     1      46.455   2.571  16.718  0.00  0.00    +0.000 HD
ENDBRANCH  22  25
ENDBRANCH  20  21
ENDBRANCH   4  20
TORSDOF 7
ENDMDL
MODEL 7
REMARK VINA RESULT:    -6.688      3.351      5.733
REMARK INTER + INTRA:         -10.662
REMARK INTER:                  -9.427
REMARK INTRA:                  -1.235
REMARK UNBOUND:                -1.237
REMARK  Name = 
REMARK  7 active torsions:
REMARK  status: ('A' for Active; 'I' for Inactive)
REMARK    1  A    between atoms: C_2  and  C_3
REMARK    2  A    between atoms: C_8  and  C_9
REMARK    3  A    between atoms: N_11  and  C_12
REMARK    4  A    between atoms: C_12  and  C_13
REMARK    5  A    between atoms: C_16  and  C_17
REMARK    6  A    between atoms: C_17  and  N_18
REMARK    7  A    between atoms: C_19  and  C_21
REMARK                            x       y       z     vdW  Elec       q    Type
REMARK                         _______ _______ _______ _____ _____    ______ ____
ROOT
ATOM      1  C   UNL     1      51.379   2.806  17.756  0.00  0.00    +0.000 A 
ATOM      2  C   UNL     1      50.813   4.043  18.095  0.00  0.00    +0.000 A 
ATOM      3  C   UNL     1      49.477   4.326  17.792  0.00  0.00    +0.000 A 
ATOM      4  C   UNL     1      48.666   3.370  17.168  0.00  0.00    +0.000 A 
ATOM      5  C   UNL     1      49.232   2.134  16.825  0.00  0.00    +0.000 A 
ATOM      6  C   UNL     1      50.572   1.852  17.122  0.00  0.00    +0.000 A 
ENDROOT
BRANCH   1   7
ATOM      7  C   UNL     1      52.827   2.516  18.067  0.00  0.00    +0.000 C 
BRANCH   7  10
ATOM      8  C   UNL     1      54.492   0.723  17.770  0.00  0.00    +0.000 C 
ATOM      9  O   UNL     1      55.434   1.477  18.004  0.00  0.00    +0.000 OA
ATOM     10  N   UNL     1      53.180   1.135  17.801  0.00  0.00    +0.000 N 
ATOM     11  H   UNL     1      52.416   0.478  17.734  0.00  0.00    +0.000 HD
BRANCH   8  17
ATOM     12  C   UNL     1      54.894  -1.730  18.434  0.00  0.00    +0.000 A 
ATOM     13  C   UNL     1      55.080  -3.061  18.017  0.00  0.00    +0.000 A 
ATOM     14  C   UNL     1      55.165  -3.381  16.662  0.00  0.00    +0.000 A 
ATOM     15  C   UNL     1      55.066  -2.374  15.707  0.00  0.00    +0.000 A 
ATOM     16  C   UNL     1      54.870  -1.051  16.110  0.00  0.00    +0.000 A 
ATOM     17  C   UNL     1      54.787  -0.710  17.471  0.00  0.00    +0.000 A 
BRANCH  12  19
ATOM     18  N   UNL     1      54.740  -1.344  20.991  0.00  0.00    +0.000 NA
ATOM     19  C   UNL     1      54.806  -1.484  19.841  0.00  0.00    +0.000 C 
ENDBRANCH  12  19
ENDBRANCH   8  17
ENDBRANCH   7  10
ENDBRANCH   1   7
BRANCH   4  20
ATOM     20  C   UNL     1      47.223   3.670  16.846  0.00  0.00    +0.000 C 
BRANCH  20  21
ATOM     21  N   UNL     1      47.101   4.652  15.797  0.00  0.00    +0.000 N 
ATOM     22  C   UNL     1      47.111   4.287  14.474  0.00  0.00    +0.000 C 
ATOM     23  O   UNL     1      47.177   3.111  14.124  0.00  0.00    +0.000 OA
ATOM     24  H   UNL     1      47.270   5.620  16.051  0.00  0.00    +0.000 HD
BRANCH  22  25
ATOM     25  C   UNL     1      46.974   5.370  13.490  0.00  0.00    +0.000 A 
ATOM     26  C   UNL     1      45.973   5.307  12.529  0.00  0.00    +0.000 A 
ATOM     27  S   UNL     1      45.924   6.665  11.499  0.00  0.00    +0.000 S 
ATOM     28  C   UNL     1      47.272   7.364  12.267  0.00  0.00    +0.000 A 
ATOM     29  N   UNL     1      47.778   8.554  11.845  0.00  0.00    +0.000 NA
ATOM     30  C   UNL     1      48.818   8.954  12.497  0.00  0.00    +0.000 A 
ATOM     31  N   UNL     1      49.394   8.272  13.540  0.00  0.00    +0.000 N 
ATOM     32  C   UNL     1      48.901   7.083  14.016  0.00  0.00    +0.000 A 
ATOM     33  O   UNL     1      49.420   6.517  14.975  0.00  0.00    +0.000 OA
ATOM     34  C   UNL     1      47.739   6.580  13.309  0.00  0.00    +0.000 A 
ATOM     35  H   UNL     1      50.203   8.643  14.014  0.00  0.00    +0.000 HD
ENDBRANCH  22  25
ENDBRANCH  20  21
ENDBRANCH   4  20
TORSDOF 7
ENDMDL
MODEL 8
REMARK VINA RESULT:    -6.684      3.072      8.750
REMARK INTER + INTRA:         -10.657
REMARK INTER:                  -9.331
REMARK INTRA:                  -1.326
REMARK UNBOUND:                -1.237
REMARK  Name = 
REMARK  7 active torsions:
REMARK  status: ('A' for Active; 'I' for Inactive)
REMARK    1  A    between atoms: C_2  and  C_3
REMARK    2  A    between atoms: C_8  and  C_9
REMARK    3  A    between atoms: N_11  and  C_12
REMARK    4  A    between atoms: C_12  and  C_13
REMARK    5  A    between atoms: C_16  and  C_17
REMARK    6  A    between atoms: C_17  and  N_18
REMARK    7  A    between atoms: C_19  and  C_21
REMARK                            x       y       z     vdW  Elec       q    Type
REMARK                         _______ _______ _______ _____ _____    ______ ____
ROOT
ATOM      1  C   UNL     1      48.514   8.209  13.526  0.00  0.00    +0.000 A 
ATOM      2  C   UNL     1      48.450   9.348  14.340  0.00  0.00    +0.000 A 
ATOM      3  C   UNL     1      48.917   9.313  15.658  0.00  0.00    +0.000 A 
ATOM      4  C   UNL     1      49.486   8.146  16.186  0.00  0.00    +0.000 A 
ATOM      5  C   UNL     1      49.546   7.006  15.373  0.00  0.00    +0.000 A 
ATOM      6  C   UNL     1      49.073   7.038  14.055  0.00  0.00    +0.000 A 
ENDROOT
BRANCH   1   7
ATOM      7  C   UNL     1      47.988   8.248  12.111  0.00  0.00    +0.000 C 
BRANCH   7  10
ATOM      8  C   UNL     1      46.045   6.733  12.158  0.00  0.00    +0.000 C 
ATOM      9  O   UNL     1      45.377   7.513  12.833  0.00  0.00    +0.000 OA
ATOM     10  N   UNL     1      47.325   7.015  11.738  0.00  0.00    +0.000 N 
ATOM     11  H   UNL     1      47.809   6.421  11.079  0.00  0.00    +0.000 HD
BRANCH   8  17
ATOM     12  C   UNL     1      45.603   4.213  12.425  0.00  0.00    +0.000 A 
ATOM     13  C   UNL     1      44.888   3.077  11.999  0.00  0.00    +0.000 A 
ATOM     14  C   UNL     1      44.010   3.149  10.917  0.00  0.00    +0.000 A 
ATOM     15  C   UNL     1      43.838   4.355  10.247  0.00  0.00    +0.000 A 
ATOM     16  C   UNL     1      44.534   5.490  10.668  0.00  0.00    +0.000 A 
ATOM     17  C   UNL     1      45.426   5.436  11.753  0.00  0.00    +0.000 A 
BRANCH  12  19
ATOM     18  N   UNL     1      47.173   3.879  14.458  0.00  0.00    +0.000 NA
ATOM     19  C   UNL     1      46.476   4.061  13.549  0.00  0.00    +0.000 C 
ENDBRANCH  12  19
ENDBRANCH   8  17
ENDBRANCH   7  10
ENDBRANCH   1   7
BRANCH   4  20
ATOM     20  C   UNL     1      49.997   8.108  17.604  0.00  0.00    +0.000 C 
BRANCH  20  21
ATOM     21  N   UNL     1      50.892   6.998  17.821  0.00  0.00    +0.000 N 
ATOM     22  C   UNL     1      50.533   5.936  18.612  0.00  0.00    +0.000 C 
ATOM     23  O   UNL     1      49.424   5.860  19.133  0.00  0.00    +0.000 OA
ATOM     24  H   UNL     1      51.870   7.144  17.592  0.00  0.00    +0.000 HD
BRANCH  22  25
ATOM     25  C   UNL     1      51.521   4.858  18.757  0.00  0.00    +0.000 A 
ATOM     26  C   UNL     1      52.668   5.070  19.510  0.00  0.00    +0.000 A 
ATOM     27  S   UNL     1      53.683   3.702  19.615  0.00  0.00    +0.000 S 
ATOM     28  C   UNL     1      52.651   2.793  18.613  0.00  0.00    +0.000 A 
ATOM     29  N   UNL     1      52.956   1.511  18.276  0.00  0.00    +0.000 NA
ATOM     30  C   UNL     1      52.102   0.949  17.487  0.00  0.00    +0.000 A 
ATOM     31  N   UNL     1      50.965   1.553  17.012  0.00  0.00    +0.000 N 
ATOM     32  C   UNL     1      50.604   2.833  17.348  0.00  0.00    +0.000 A 
ATOM     33  O   UNL     1      49.560   3.330  16.933  0.00  0.00    +0.000 OA
ATOM     34  C   UNL     1      51.537   3.517  18.222  0.00  0.00    +0.000 A 
ATOM     35  H   UNL     1      50.333   1.055  16.404  0.00  0.00    +0.000 HD
ENDBRANCH  22  25
ENDBRANCH  20  21
ENDBRANCH   4  20
TORSDOF 7
ENDMDL
