MODEL 1
REMARK VINA RESULT:    -8.343      0.000      0.000
REMARK INTER + INTRA:         -12.143
REMARK INTER:                 -11.513
REMARK INTRA:                  -0.631
REMARK UNBOUND:                -0.631
REMARK  Name = 
REMARK  7 active torsions:
REMARK  status: ('A' for Active; 'I' for Inactive)
REMARK    1  A    between atoms: N_1  and  C_2
REMARK    2  A    between atoms: C_2  and  C_3
REMARK    3  A    between atoms: C_3  and  N_4
REMARK    4  A    between atoms: C_3  and  C_17
REMARK    5  A    between atoms: C_5  and  C_7
REMARK    6  A    between atoms: C_20  and  O_21
REMARK    7  A    between atoms: O_21  and  C_22
REMARK                            x       y       z     vdW  Elec       q    Type
REMARK                         _______ _______ _______ _____ _____    ______ ____
ROOT
ATOM      1  C   UNL     1      46.547   6.845  12.829  0.00  0.00    +0.000 C 
ENDROOT
BRANCH   1   2
ATOM      2  C   UNL     1      45.992   5.814  11.847  0.00  0.00    +0.000 A 
ATOM      3  C   UNL     1      45.542   4.574  12.318  0.00  0.00    +0.000 A 
ATOM      4  C   UNL     1      45.074   3.603  11.430  0.00  0.00    +0.000 A 
ATOM      5  C   UNL     1      44.997   3.872  10.062  0.00  0.00    +0.000 A 
ATOM      6  C   UNL     1      45.445   5.101   9.579  0.00  0.00    +0.000 A 
ATOM      7  C   UNL     1      45.931   6.070  10.465  0.00  0.00    +0.000 A 
BRANCH   5   8
ATOM      8  O   UNL     1      44.580   2.957   9.120  0.00  0.00    +0.000 OA
BRANCH   8   9
ATOM      9  C   UNL     1      45.516   2.446   8.229  0.00  0.00    +0.000 A 
ATOM     10  C   UNL     1      45.841   3.247   7.143  0.00  0.00    +0.000 A 
ATOM     11  C   UNL     1      46.784   2.775   6.234  0.00  0.00    +0.000 A 
ATOM     12  C   UNL     1      47.362   1.526   6.438  0.00  0.00    +0.000 A 
ATOM     13  C   UNL     1      46.953   0.787   7.534  0.00  0.00    +0.000 A 
ATOM     14  N   UNL     1      46.032   1.211   8.422  0.00  0.00    +0.000 NA
ENDBRANCH   8   9
ENDBRANCH   5   8
ENDBRANCH   1   2
BRANCH   1  15
ATOM     15  N   UNL     1      46.725   6.198  14.118  0.00  0.00    +0.000 N 
ATOM     16  C   UNL     1      47.955   5.943  14.671  0.00  0.00    +0.000 C 
ATOM     17  O   UNL     1      49.003   6.387  14.218  0.00  0.00    +0.000 OA
ATOM     18  H   UNL     1      45.970   5.572  14.374  0.00  0.00    +0.000 HD
BRANCH  16  19
ATOM     19  C   UNL     1      47.931   5.147  15.902  0.00  0.00    +0.000 A 
ATOM     20  C   UNL     1      47.510   3.825  15.880  0.00  0.00    +0.000 A 
ATOM     21  S   UNL     1      47.614   3.057  17.403  0.00  0.00    +0.000 S 
ATOM     22  C   UNL     1      48.169   4.484  18.150  0.00  0.00    +0.000 A 
ATOM     23  N   UNL     1      48.441   4.526  19.482  0.00  0.00    +0.000 NA
ATOM     24  C   UNL     1      48.824   5.684  19.910  0.00  0.00    +0.000 A 
ATOM     25  N   UNL     1      48.963   6.802  19.129  0.00  0.00    +0.000 N 
ATOM     26  C   UNL     1      48.731   6.797  17.778  0.00  0.00    +0.000 A 
ATOM     27  O   UNL     1      48.909   7.801  17.096  0.00  0.00    +0.000 OA
ATOM     28  C   UNL     1      48.289   5.524  17.246  0.00  0.00    +0.000 A 
ATOM     29  H   UNL     1      49.280   7.678  19.519  0.00  0.00    +0.000 HD
ENDBRANCH  16  19
ENDBRANCH   1  15
BRANCH   1  30
ATOM     30  C   UNL     1      45.629   8.101  12.903  0.00  0.00    +0.000 C 
BRANCH  30  31
ATOM     31  N   UNL     1      46.345   9.357  13.175  0.00  0.00    +0.000 NA
ATOM     32  H   UNL     1      47.324   9.237  12.922  0.00  0.00    +0.000 HD
ATOM     33  H   UNL     1      46.333   9.544  14.179  0.00  0.00    +0.000 HD
ENDBRANCH  30  31
ENDBRANCH   1  30
TORSDOF 7
ENDMDL
MODEL 2
REMARK VINA RESULT:    -8.109      3.108      4.328
REMARK INTER + INTRA:         -11.821
REMARK INTER:                 -10.593
REMARK INTRA:                  -1.228
REMARK UNBOUND:                -0.631
REMARK  Name = 
REMARK  7 active torsions:
REMARK  status: ('A' for Active; 'I' for Inactive)
REMARK    1  A    between atoms: N_1  and  C_2
REMARK    2  A    between atoms: C_2  and  C_3
REMARK    3  A    between atoms: C_3  and  N_4
REMARK    4  A    between atoms: C_3  and  C_17
REMARK    5  A    between atoms: C_5  and  C_7
REMARK    6  A    between atoms: C_20  and  O_21
REMARK    7  A    between atoms: O_21  and  C_22
REMARK                            x       y       z     vdW  Elec       q    Type
REMARK                         _______ _______ _______ _____ _____    ______ ____
ROOT
ATOM      1  C   UNL     1      46.294   5.736  13.626  0.00  0.00    +0.000 C 
ENDROOT
BRANCH   1   2
ATOM      2  C   UNL     1      45.806   5.085  12.333  0.00  0.00    +0.000 A 
ATOM      3  C   UNL     1      45.301   3.778  12.358  0.00  0.00    +0.000 A 
ATOM      4  C   UNL     1      44.894   3.151  11.178  0.00  0.00    +0.000 A 
ATOM      5  C   UNL     1      44.933   3.835   9.961  0.00  0.00    +0.000 A 
ATOM      6  C   UNL     1      45.436   5.135   9.923  0.00  0.00    +0.000 A 
ATOM      7  C   UNL     1      45.862   5.760  11.100  0.00  0.00    +0.000 A 
BRANCH   5   8
ATOM      8  O   UNL     1      44.580   3.276   8.753  0.00  0.00    +0.000 OA
BRANCH   8   9
ATOM      9  C   UNL     1      45.563   2.640   8.003  0.00  0.00    +0.000 A 
ATOM     10  C   UNL     1      46.020   3.314   6.879  0.00  0.00    +0.000 A 
ATOM     11  C   UNL     1      47.012   2.715   6.109  0.00  0.00    +0.000 A 
ATOM     12  C   UNL     1      47.508   1.471   6.483  0.00  0.00    +0.000 A 
ATOM     13  C   UNL     1      46.970   0.862   7.604  0.00  0.00    +0.000 A 
ATOM     14  N   UNL     1      45.998   1.411   8.360  0.00  0.00    +0.000 NA
ENDBRANCH   8   9
ENDBRANCH   5   8
ENDBRANCH   1   2
BRANCH   1  15
ATOM     15  N   UNL     1      47.376   6.650  13.297  0.00  0.00    +0.000 N 
ATOM     16  C   UNL     1      47.222   8.012  13.236  0.00  0.00    +0.000 C 
ATOM     17  O   UNL     1      46.213   8.594  13.619  0.00  0.00    +0.000 OA
ATOM     18  H   UNL     1      48.094   6.244  12.707  0.00  0.00    +0.000 HD
BRANCH  16  19
ATOM     19  C   UNL     1      48.387   8.749  12.738  0.00  0.00    +0.000 A 
ATOM     20  C   UNL     1      48.242   9.719  11.757  0.00  0.00    +0.000 A 
ATOM     21  S   UNL     1      49.708  10.502  11.359  0.00  0.00    +0.000 S 
ATOM     22  C   UNL     1      50.590   9.529  12.444  0.00  0.00    +0.000 A 
ATOM     23  N   UNL     1      51.935   9.668  12.585  0.00  0.00    +0.000 NA
ATOM     24  C   UNL     1      52.469   8.840  13.423  0.00  0.00    +0.000 A 
ATOM     25  N   UNL     1      51.783   7.889  14.132  0.00  0.00    +0.000 N 
ATOM     26  C   UNL     1      50.424   7.735  14.044  0.00  0.00    +0.000 A 
ATOM     27  O   UNL     1      49.830   6.907  14.726  0.00  0.00    +0.000 OA
ATOM     28  C   UNL     1      49.774   8.633  13.110  0.00  0.00    +0.000 A 
ATOM     29  H   UNL     1      52.255   7.278  14.783  0.00  0.00    +0.000 HD
ENDBRANCH  16  19
ENDBRANCH   1  15
BRANCH   1  30
ATOM     30  C   UNL     1      46.707   4.662  14.675  0.00  0.00    +0.000 C 
BRANCH  30  31
ATOM     31  N   UNL     1      47.581   5.167  15.745  0.00  0.00    +0.000 NA
ATOM     32  H   UNL     1      47.412   6.164  15.862  0.00  0.00    +0.000 HD
ATOM     33  H   UNL     1      48.557   5.077  15.456  0.00  0.00    +0.000 HD
ENDBRANCH  30  31
ENDBRANCH   1  30
TORSDOF 7
ENDMDL
MODEL 3
REMARK VINA RESULT:    -7.590      1.714      2.300
REMARK INTER + INTRA:         -11.105
REMARK INTER:                  -9.661
REMARK INTRA:                  -1.443
REMARK UNBOUND:                -0.631
REMARK  Name = 
REMARK  7 active torsions:
REMARK  status: ('A' for Active; 'I' for Inactive)
REMARK    1  A    between atoms: N_1  and  C_2
REMARK    2  A    between atoms: C_2  and  C_3
REMARK    3  A    between atoms: C_3  and  N_4
REMARK    4  A    between atoms: C_3  and  C_17
REMARK    5  A    between atoms: C_5  and  C_7
REMARK    6  A    between atoms: C_20  and  O_21
REMARK    7  A    between atoms: O_21  and  C_22
REMARK                            x       y       z     vdW  Elec       q    Type
REMARK                         _______ _______ _______ _____ _____    ______ ____
ROOT
ATOM      1  C   UNL     1      48.148   7.745  13.990  0.00  0.00    +0.000 C 
ENDROOT
BRANCH   1   2
ATOM      2  C   UNL     1      47.141   7.007  13.108  0.00  0.00    +0.000 A 
ATOM      3  C   UNL     1      47.001   5.618  13.222  0.00  0.00    +0.000 A 
ATOM      4  C   UNL     1      46.119   4.922  12.392  0.00  0.00    +0.000 A 
ATOM      5  C   UNL     1      45.322   5.607  11.471  0.00  0.00    +0.000 A 
ATOM      6  C   UNL     1      45.454   6.989  11.346  0.00  0.00    +0.000 A 
ATOM      7  C   UNL     1      46.350   7.687  12.163  0.00  0.00    +0.000 A 
BRANCH   5   8
ATOM      8  O   UNL     1      44.455   4.990  10.597  0.00  0.00    +0.000 OA
BRANCH   8   9
ATOM      9  C   UNL     1      44.979   4.143   9.627  0.00  0.00    +0.000 A 
ATOM     10  C   UNL     1      44.788   2.783   9.822  0.00  0.00    +0.000 A 
ATOM     11  C   UNL     1      45.289   1.903   8.867  0.00  0.00    +0.000 A 
ATOM     12  C   UNL     1      45.962   2.409   7.760  0.00  0.00    +0.000 A 
ATOM     13  C   UNL     1      46.129   3.780   7.666  0.00  0.00    +0.000 A 
ATOM     14  N   UNL     1      45.669   4.654   8.583  0.00  0.00    +0.000 NA
ENDBRANCH   8   9
ENDBRANCH   5   8
ENDBRANCH   1   2
BRANCH   1  15
ATOM     15  N   UNL     1      48.088   7.176  15.326  0.00  0.00    +0.000 N 
ATOM     16  C   UNL     1      49.159   6.577  15.940  0.00  0.00    +0.000 C 
ATOM     17  O   UNL     1      50.301   6.620  15.496  0.00  0.00    +0.000 OA
ATOM     18  H   UNL     1      47.166   6.851  15.596  0.00  0.00    +0.000 HD
BRANCH  16  19
ATOM     19  C   UNL     1      48.860   5.929  17.221  0.00  0.00    +0.000 A 
ATOM     20  C   UNL     1      49.036   4.562  17.377  0.00  0.00    +0.000 A 
ATOM     21  S   UNL     1      48.690   4.013  18.958  0.00  0.00    +0.000 S 
ATOM     22  C   UNL     1      48.240   5.575  19.465  0.00  0.00    +0.000 A 
ATOM     23  N   UNL     1      47.811   5.811  20.734  0.00  0.00    +0.000 NA
ATOM     24  C   UNL     1      47.476   7.039  20.962  0.00  0.00    +0.000 A 
ATOM     25  N   UNL     1      47.533   8.052  20.040  0.00  0.00    +0.000 N 
ATOM     26  C   UNL     1      47.987   7.865  18.760  0.00  0.00    +0.000 A 
ATOM     27  O   UNL     1      48.071   8.799  17.970  0.00  0.00    +0.000 OA
ATOM     28  C   UNL     1      48.368   6.502  18.447  0.00  0.00    +0.000 A 
ATOM     29  H   UNL     1      47.269   8.996  20.281  0.00  0.00    +0.000 HD
ENDBRANCH  16  19
ENDBRANCH   1  15
BRANCH   1  30
ATOM     30  C   UNL     1      47.889   9.281  13.973  0.00  0.00    +0.000 C 
BRANCH  30  31
ATOM     31  N   UNL     1      48.270   9.971  15.216  0.00  0.00    +0.000 NA
ATOM     32  H   UNL     1      47.433  10.117  15.778  0.00  0.00    +0.000 HD
ATOM     33  H   UNL     1      48.626  10.902  14.991  0.00  0.00    +0.000 HD
ENDBRANCH  30  31
ENDBRANCH   1  30
TORSDOF 7
ENDMDL
MODEL 4
REMARK VINA RESULT:    -7.418      2.639      3.825
REMARK INTER + INTRA:         -10.868
REMARK INTER:                 -10.413
REMARK INTRA:                  -0.455
REMARK UNBOUND:                -0.631
REMARK  Name = 
REMARK  7 active torsions:
REMARK  status: ('A' for Active; 'I' for Inactive)
REMARK    1  A    between atoms: N_1  and  C_2
REMARK    2  A    between atoms: C_2  and  C_3
REMARK    3  A    between atoms: C_3  and  N_4
REMARK    4  A    between atoms: C_3  and  C_17
REMARK    5  A    between atoms: C_5  and  C_7
REMARK    6  A    between atoms: C_20  and  O_21
REMARK    7  A    between atoms: O_21  and  C_22
REMARK                            x       y       z     vdW  Elec       q    Type
REMARK                         _______ _______ _______ _____ _____    ______ ____
ROOT
ATOM      1  C   UNL     1      45.907   5.315  13.756  0.00  0.00    +0.000 C 
ENDROOT
BRANCH   1   2
ATOM      2  C   UNL     1      45.620   4.761  12.360  0.00  0.00    +0.000 A 
ATOM      3  C   UNL     1      45.671   5.613  11.249  0.00  0.00    +0.000 A 
ATOM      4  C   UNL     1      45.366   5.134   9.972  0.00  0.00    +0.000 A 
ATOM      5  C   UNL     1      45.058   3.786   9.775  0.00  0.00    +0.000 A 
ATOM      6  C   UNL     1      45.002   2.929  10.874  0.00  0.00    +0.000 A 
ATOM      7  C   UNL     1      45.289   3.409  12.157  0.00  0.00    +0.000 A 
BRANCH   5   8
ATOM      8  O   UNL     1      44.716   3.246   8.556  0.00  0.00    +0.000 OA
BRANCH   8   9
ATOM      9  C   UNL     1      45.720   2.702   7.764  0.00  0.00    +0.000 A 
ATOM     10  C   UNL     1      46.078   3.422   6.633  0.00  0.00    +0.000 A 
ATOM     11  C   UNL     1      47.089   2.916   5.821  0.00  0.00    +0.000 A 
ATOM     12  C   UNL     1      47.699   1.714   6.162  0.00  0.00    +0.000 A 
ATOM     13  C   UNL     1      47.255   1.051   7.293  0.00  0.00    +0.000 A 
ATOM     14  N   UNL     1      46.268   1.510   8.089  0.00  0.00    +0.000 NA
ENDBRANCH   8   9
ENDBRANCH   5   8
ENDBRANCH   1   2
BRANCH   1  15
ATOM     15  N   UNL     1      46.483   6.642  13.611  0.00  0.00    +0.000 N 
ATOM     16  C   UNL     1      47.822   6.867  13.415  0.00  0.00    +0.000 C 
ATOM     17  O   UNL     1      48.626   5.975  13.170  0.00  0.00    +0.000 OA
ATOM     18  H   UNL     1      45.961   7.372  14.084  0.00  0.00    +0.000 HD
BRANCH  16  19
ATOM     19  C   UNL     1      48.229   8.275  13.448  0.00  0.00    +0.000 A 
ATOM     20  C   UNL     1      48.262   9.028  12.284  0.00  0.00    +0.000 A 
ATOM     21  S   UNL     1      48.704  10.657  12.545  0.00  0.00    +0.000 S 
ATOM     22  C   UNL     1      48.922  10.392  14.214  0.00  0.00    +0.000 A 
ATOM     23  N   UNL     1      49.325  11.391  15.043  0.00  0.00    +0.000 NA
ATOM     24  C   UNL     1      49.476  11.031  16.275  0.00  0.00    +0.000 A 
ATOM     25  N   UNL     1      49.258   9.766  16.755  0.00  0.00    +0.000 N 
ATOM     26  C   UNL     1      48.821   8.737  15.962  0.00  0.00    +0.000 A 
ATOM     27  O   UNL     1      48.589   7.626  16.427  0.00  0.00    +0.000 OA
ATOM     28  C   UNL     1      48.645   9.084  14.566  0.00  0.00    +0.000 A 
ATOM     29  H   UNL     1      49.380   9.547  17.734  0.00  0.00    +0.000 HD
ENDBRANCH  16  19
ENDBRANCH   1  15
BRANCH   1  30
ATOM     30  C   UNL     1      46.816   4.345  14.568  0.00  0.00    +0.000 C 
BRANCH  30  31
ATOM     31  N   UNL     1      47.186   4.840  15.903  0.00  0.00    +0.000 NA
ATOM     32  H   UNL     1      46.384   4.736  16.523  0.00  0.00    +0.000 HD
ATOM     33  H   UNL     1      47.377   5.842  15.852  0.00  0.00    +0.000 HD
ENDBRANCH  30  31
ENDBRANCH   1  30
TORSDOF 7
ENDMDL
MODEL 5
REMARK VINA RESULT:    -7.334      2.713      4.328
REMARK INTER + INTRA:         -10.752
REMARK INTER:                  -9.695
REMARK INTRA:                  -1.058
REMARK UNBOUND:                -0.631
REMARK  Name = 
REMARK  7 active torsions:
REMARK  status: ('A' for Active; 'I' for Inactive)
REMARK    1  A    between atoms: N_1  and  C_2
REMARK    2  A    between atoms: C_2  and  C_3
REMARK    3  A    between atoms: C_3  and  N_4
REMARK    4  A    between atoms: C_3  and  C_17
REMARK    5  A    between atoms: C_5  and  C_7
REMARK    6  A    between atoms: C_20  and  O_21
REMARK    7  A    between atoms: O_21  and  C_22
REMARK                            x       y       z     vdW  Elec       q    Type
REMARK                         _______ _______ _______ _____ _____    ______ ____
ROOT
ATOM      1  C   UNL     1      46.895   5.030  14.859  0.00  0.00    +0.000 C 
ENDROOT
BRANCH   1   2
ATOM      2  C   UNL     1      46.306   4.748  13.478  0.00  0.00    +0.000 A 
ATOM      3  C   UNL     1      46.272   5.763  12.513  0.00  0.00    +0.000 A 
ATOM      4  C   UNL     1      45.695   5.535  11.261  0.00  0.00    +0.000 A 
ATOM      5  C   UNL     1      45.190   4.275  10.932  0.00  0.00    +0.000 A 
ATOM      6  C   UNL     1      45.215   3.257  11.885  0.00  0.00    +0.000 A 
ATOM      7  C   UNL     1      45.775   3.487  13.146  0.00  0.00    +0.000 A 
BRANCH   5   8
ATOM      8  O   UNL     1      44.577   3.982   9.734  0.00  0.00    +0.000 OA
BRANCH   8   9
ATOM      9  C   UNL     1      45.342   3.423   8.716  0.00  0.00    +0.000 A 
ATOM     10  C   UNL     1      45.575   2.058   8.792  0.00  0.00    +0.000 A 
ATOM     11  C   UNL     1      46.327   1.460   7.785  0.00  0.00    +0.000 A 
ATOM     12  C   UNL     1      46.821   2.242   6.747  0.00  0.00    +0.000 A 
ATOM     13  C   UNL     1      46.562   3.602   6.772  0.00  0.00    +0.000 A 
ATOM     14  N   UNL     1      45.851   4.211   7.741  0.00  0.00    +0.000 NA
ENDBRANCH   8   9
ENDBRANCH   5   8
ENDBRANCH   1   2
BRANCH   1  15
ATOM     15  N   UNL     1      47.987   5.978  14.705  0.00  0.00    +0.000 N 
ATOM     16  C   UNL     1      48.647   6.548  15.763  0.00  0.00    +0.000 C 
ATOM     17  O   UNL     1      48.498   6.185  16.925  0.00  0.00    +0.000 OA
ATOM     18  H   UNL     1      47.947   6.517  13.847  0.00  0.00    +0.000 HD
BRANCH  16  19
ATOM     19  C   UNL     1      49.611   7.593  15.407  0.00  0.00    +0.000 A 
ATOM     20  C   UNL     1      50.938   7.492  15.798  0.00  0.00    +0.000 A 
ATOM     21  S   UNL     1      51.909   8.780  15.233  0.00  0.00    +0.000 S 
ATOM     22  C   UNL     1      50.574   9.541  14.498  0.00  0.00    +0.000 A 
ATOM     23  N   UNL     1      50.708  10.724  13.840  0.00  0.00    +0.000 NA
ATOM     24  C   UNL     1      49.603  11.193  13.361  0.00  0.00    +0.000 A 
ATOM     25  N   UNL     1      48.378  10.588  13.476  0.00  0.00    +0.000 N 
ATOM     26  C   UNL     1      48.203   9.382  14.103  0.00  0.00    +0.000 A 
ATOM     27  O   UNL     1      47.103   8.841  14.150  0.00  0.00    +0.000 OA
ATOM     28  C   UNL     1      49.411   8.814  14.668  0.00  0.00    +0.000 A 
ATOM     29  H   UNL     1      47.550  10.998  13.069  0.00  0.00    +0.000 HD
ENDBRANCH  16  19
ENDBRANCH   1  15
BRANCH   1  30
ATOM     30  C   UNL     1      47.333   3.712  15.563  0.00  0.00    +0.000 C 
BRANCH  30  31
ATOM     31  N   UNL     1      46.787   3.541  16.919  0.00  0.00    +0.000 NA
ATOM     32  H   UNL     1      45.857   3.955  16.951  0.00  0.00    +0.000 HD
ATOM     33  H   UNL     1      47.356   4.071  17.582  0.00  0.00    +0.000 HD
ENDBRANCH  30  31
ENDBRANCH   1  30
TORSDOF 7
ENDMDL
MODEL 6
REMARK VINA RESULT:    -7.298      3.266      8.058
REMARK INTER + INTRA:         -10.702
REMARK INTER:                  -9.625
REMARK INTRA:                  -1.077
REMARK UNBOUND:                -0.631
REMARK  Name = 
REMARK  7 active torsions:
REMARK  status: ('A' for Active; 'I' for Inactive)
REMARK    1  A    between atoms: N_1  and  C_2
REMARK    2  A    between atoms: C_2  and  C_3
REMARK    3  A    between atoms: C_3  and  N_4
REMARK    4  A    between atoms: C_3  and  C_17
REMARK    5  A    between atoms: C_5  and  C_7
REMARK    6  A    between atoms: C_20  and  O_21
REMARK    7  A    between atoms: O_21  and  C_22
REMARK                            x       y       z     vdW  Elec       q    Type
REMARK                         _______ _______ _______ _____ _____    ______ ____
ROOT
ATOM      1  C   UNL     1      48.076   7.560  13.002  0.00  0.00    +0.000 C 
ENDROOT
BRANCH   1   2
ATOM      2  C   UNL     1      48.395   6.851  14.318  0.00  0.00    +0.000 A 
ATOM      3  C   UNL     1      49.432   7.325  15.132  0.00  0.00    +0.000 A 
ATOM      4  C   UNL     1      49.768   6.661  16.314  0.00  0.00    +0.000 A 
ATOM      5  C   UNL     1      49.039   5.545  16.732  0.00  0.00    +0.000 A 
ATOM      6  C   UNL     1      48.007   5.062  15.930  0.00  0.00    +0.000 A 
ATOM      7  C   UNL     1      47.680   5.713  14.735  0.00  0.00    +0.000 A 
BRANCH   5   8
ATOM      8  O   UNL     1      49.329   4.819  17.866  0.00  0.00    +0.000 OA
BRANCH   8   9
ATOM      9  C   UNL     1      50.269   3.798  17.780  0.00  0.00    +0.000 A 
ATOM     10  C   UNL     1      51.531   4.072  18.287  0.00  0.00    +0.000 A 
ATOM     11  C   UNL     1      52.497   3.071  18.229  0.00  0.00    +0.000 A 
ATOM     12  C   UNL     1      52.171   1.842  17.665  0.00  0.00    +0.000 A 
ATOM     13  C   UNL     1      50.895   1.671  17.158  0.00  0.00    +0.000 A 
ATOM     14  N   UNL     1      49.945   2.627  17.187  0.00  0.00    +0.000 NA
ENDBRANCH   8   9
ENDBRANCH   5   8
ENDBRANCH   1   2
BRANCH   1  15
ATOM     15  N   UNL     1      47.406   6.615  12.124  0.00  0.00    +0.000 N 
ATOM     16  C   UNL     1      46.154   6.823  11.606  0.00  0.00    +0.000 C 
ATOM     17  O   UNL     1      45.558   7.891  11.690  0.00  0.00    +0.000 OA
ATOM     18  H   UNL     1      47.689   5.651  12.263  0.00  0.00    +0.000 HD
BRANCH  16  19
ATOM     19  C   UNL     1      45.587   5.689  10.870  0.00  0.00    +0.000 A 
ATOM     20  C   UNL     1      45.765   5.577   9.499  0.00  0.00    +0.000 A 
ATOM     21  S   UNL     1      45.080   4.156   8.842  0.00  0.00    +0.000 S 
ATOM     22  C   UNL     1      44.474   3.676  10.360  0.00  0.00    +0.000 A 
ATOM     23  N   UNL     1      43.755   2.531  10.505  0.00  0.00    +0.000 NA
ATOM     24  C   UNL     1      43.337   2.315  11.709  0.00  0.00    +0.000 A 
ATOM     25  N   UNL     1      43.574   3.137  12.781  0.00  0.00    +0.000 N 
ATOM     26  C   UNL     1      44.318   4.284  12.687  0.00  0.00    +0.000 A 
ATOM     27  O   UNL     1      44.553   4.975  13.672  0.00  0.00    +0.000 OA
ATOM     28  C   UNL     1      44.805   4.579  11.354  0.00  0.00    +0.000 A 
ATOM     29  H   UNL     1      43.231   2.908  13.703  0.00  0.00    +0.000 HD
ENDBRANCH  16  19
ENDBRANCH   1  15
BRANCH   1  30
ATOM     30  C   UNL     1      49.361   8.171  12.368  0.00  0.00    +0.000 C 
BRANCH  30  31
ATOM     31  N   UNL     1      50.280   7.178  11.789  0.00  0.00    +0.000 NA
ATOM     32  H   UNL     1      49.886   6.841  10.912  0.00  0.00    +0.000 HD
ATOM     33  H   UNL     1      50.333   6.366  12.406  0.00  0.00    +0.000 HD
ENDBRANCH  30  31
ENDBRANCH   1  30
TORSDOF 7
ENDMDL
MODEL 7
REMARK VINA RESULT:    -7.108      3.563      5.734
REMARK INTER + INTRA:         -10.439
REMARK INTER:                  -9.258
REMARK INTRA:                  -1.181
REMARK UNBOUND:                -0.631
REMARK  Name = 
REMARK  7 active torsions:
REMARK  status: ('A' for Active; 'I' for Inactive)
REMARK    1  A    between atoms: N_1  and  C_2
REMARK    2  A    between atoms: C_2  and  C_3
REMARK    3  A    between atoms: C_3  and  N_4
REMARK    4  A    between atoms: C_3  and  C_17
REMARK    5  A    between atoms: C_5  and  C_7
REMARK    6  A    between atoms: C_20  and  O_21
REMARK    7  A    between atoms: O_21  and  C_22
REMARK                            x       y       z     vdW  Elec       q    Type
REMARK                         _______ _______ _______ _____ _____    ______ ____
ROOT
ATOM      1  C   UNL     1      49.011   6.297  17.614  0.00  0.00    +0.000 C 
ENDROOT
BRANCH   1   2
ATOM      2  C   UNL     1      48.324   5.573  16.456  0.00  0.00    +0.000 A 
ATOM      3  C   UNL     1      48.267   6.176  15.193  0.00  0.00    +0.000 A 
ATOM      4  C   UNL     1      47.603   5.549  14.135  0.00  0.00    +0.000 A 
ATOM      5  C   UNL     1      47.031   4.286  14.307  0.00  0.00    +0.000 A 
ATOM      6  C   UNL     1      47.079   3.677  15.560  0.00  0.00    +0.000 A 
ATOM      7  C   UNL     1      47.727   4.311  16.626  0.00  0.00    +0.000 A 
BRANCH   5   8
ATOM      8  O   UNL     1      46.332   3.619  13.325  0.00  0.00    +0.000 OA
BRANCH   8   9
ATOM      9  C   UNL     1      45.206   4.226  12.781  0.00  0.00    +0.000 A 
ATOM     10  C   UNL     1      45.349   4.782  11.518  0.00  0.00    +0.000 A 
ATOM     11  C   UNL     1      44.240   5.389  10.935  0.00  0.00    +0.000 A 
ATOM     12  C   UNL     1      43.037   5.424  11.632  0.00  0.00    +0.000 A 
ATOM     13  C   UNL     1      42.999   4.870  12.900  0.00  0.00    +0.000 A 
ATOM     14  N   UNL     1      44.060   4.289  13.495  0.00  0.00    +0.000 NA
ENDBRANCH   8   9
ENDBRANCH   5   8
ENDBRANCH   1   2
BRANCH   1  15
ATOM     15  N   UNL     1      50.141   5.492  18.050  0.00  0.00    +0.000 N 
ATOM     16  C   UNL     1      51.336   5.443  17.378  0.00  0.00    +0.000 C 
ATOM     17  O   UNL     1      51.622   6.197  16.455  0.00  0.00    +0.000 OA
ATOM     18  H   UNL     1      49.880   4.669  18.581  0.00  0.00    +0.000 HD
BRANCH  16  19
ATOM     19  C   UNL     1      52.296   4.458  17.886  0.00  0.00    +0.000 A 
ATOM     20  C   UNL     1      53.467   4.869  18.505  0.00  0.00    +0.000 A 
ATOM     21  S   UNL     1      54.419   3.571  19.078  0.00  0.00    +0.000 S 
ATOM     22  C   UNL     1      53.324   2.419  18.465  0.00  0.00    +0.000 A 
ATOM     23  N   UNL     1      53.551   1.085  18.598  0.00  0.00    +0.000 NA
ATOM     24  C   UNL     1      52.648   0.336  18.056  0.00  0.00    +0.000 A 
ATOM     25  N   UNL     1      51.538   0.797  17.396  0.00  0.00    +0.000 N 
ATOM     26  C   UNL     1      51.254   2.132  17.265  0.00  0.00    +0.000 A 
ATOM     27  O   UNL     1      50.230   2.515  16.710  0.00  0.00    +0.000 OA
ATOM     28  C   UNL     1      52.241   3.019  17.848  0.00  0.00    +0.000 A 
ATOM     29  H   UNL     1      50.859   0.161  17.003  0.00  0.00    +0.000 HD
ENDBRANCH  16  19
ENDBRANCH   1  15
BRANCH   1  30
ATOM     30  C   UNL     1      48.004   6.600  18.763  0.00  0.00    +0.000 C 
BRANCH  30  31
ATOM     31  N   UNL     1      47.165   7.787  18.533  0.00  0.00    +0.000 NA
ATOM     32  H   UNL     1      46.317   7.700  19.091  0.00  0.00    +0.000 HD
ATOM     33  H   UNL     1      46.863   7.805  17.558  0.00  0.00    +0.000 HD
ENDBRANCH  30  31
ENDBRANCH   1  30
TORSDOF 7
ENDMDL
MODEL 8
REMARK VINA RESULT:    -6.702      3.401      4.360
REMARK INTER + INTRA:          -9.879
REMARK INTER:                  -8.806
REMARK INTRA:                  -1.073
REMARK UNBOUND:                -0.631
REMARK  Name = 
REMARK  7 active torsions:
REMARK  status: ('A' for Active; 'I' for Inactive)
REMARK    1  A    between atoms: N_1  and  C_2
REMARK    2  A    between atoms: C_2  and  C_3
REMARK    3  A    between atoms: C_3  and  N_4
REMARK    4  A    between atoms: C_3  and  C_17
REMARK    5  A    between atoms: C_5  and  C_7
REMARK    6  A    between atoms: C_20  and  O_21
REMARK    7  A    between atoms: O_21  and  C_22
REMARK                            x       y       z     vdW  Elec       q    Type
REMARK                         _______ _______ _______ _____ _____    ______ ____
ROOT
ATOM      1  C   UNL     1      47.249   5.662  14.855  0.00  0.00    +0.000 C 
ENDROOT
BRANCH   1   2
ATOM      2  C   UNL     1      46.560   5.247  13.556  0.00  0.00    +0.000 A 
ATOM      3  C   UNL     1      46.402   6.178  12.522  0.00  0.00    +0.000 A 
ATOM      4  C   UNL     1      45.733   5.829  11.346  0.00  0.00    +0.000 A 
ATOM      5  C   UNL     1      45.258   4.528  11.161  0.00  0.00    +0.000 A 
ATOM      6  C   UNL     1      45.406   3.593  12.184  0.00  0.00    +0.000 A 
ATOM      7  C   UNL     1      46.059   3.945  13.370  0.00  0.00    +0.000 A 
BRANCH   5   8
ATOM      8  O   UNL     1      44.561   4.116  10.046  0.00  0.00    +0.000 OA
BRANCH   8   9
ATOM      9  C   UNL     1      45.268   3.539   8.997  0.00  0.00    +0.000 A 
ATOM     10  C   UNL     1      45.450   2.165   9.052  0.00  0.00    +0.000 A 
ATOM     11  C   UNL     1      46.142   1.549   8.014  0.00  0.00    +0.000 A 
ATOM     12  C   UNL     1      46.630   2.322   6.966  0.00  0.00    +0.000 A 
ATOM     13  C   UNL     1      46.425   3.691   7.012  0.00  0.00    +0.000 A 
ATOM     14  N   UNL     1      45.772   4.316   8.012  0.00  0.00    +0.000 NA
ENDBRANCH   8   9
ENDBRANCH   5   8
ENDBRANCH   1   2
BRANCH   1  15
ATOM     15  N   UNL     1      48.490   6.341  14.517  0.00  0.00    +0.000 N 
ATOM     16  C   UNL     1      48.676   7.692  14.668  0.00  0.00    +0.000 C 
ATOM     17  O   UNL     1      47.886   8.420  15.259  0.00  0.00    +0.000 OA
ATOM     18  H   UNL     1      49.024   5.885  13.786  0.00  0.00    +0.000 HD
BRANCH  16  19
ATOM     19  C   UNL     1      49.937   8.211  14.129  0.00  0.00    +0.000 A 
ATOM     20  C   UNL     1      49.934   9.131  13.090  0.00  0.00    +0.000 A 
ATOM     21  S   UNL     1      51.500   9.655  12.649  0.00  0.00    +0.000 S 
ATOM     22  C   UNL     1      52.231   8.625  13.791  0.00  0.00    +0.000 A 
ATOM     23  N   UNL     1      53.583   8.564  13.927  0.00  0.00    +0.000 NA
ATOM     24  C   UNL     1      53.990   7.716  14.813  0.00  0.00    +0.000 A 
ATOM     25  N   UNL     1      53.172   6.925  15.577  0.00  0.00    +0.000 N 
ATOM     26  C   UNL     1      51.804   6.976  15.496  0.00  0.00    +0.000 A 
ATOM     27  O   UNL     1      51.095   6.291  16.225  0.00  0.00    +0.000 OA
ATOM     28  C   UNL     1      51.293   7.906  14.509  0.00  0.00    +0.000 A 
ATOM     29  H   UNL     1      53.549   6.288  16.265  0.00  0.00    +0.000 HD
ENDBRANCH  16  19
ENDBRANCH   1  15
BRANCH   1  30
ATOM     30  C   UNL     1      47.465   4.438  15.793  0.00  0.00    +0.000 C 
BRANCH  30  31
ATOM     31  N   UNL     1      46.762   4.532  17.081  0.00  0.00    +0.000 NA
ATOM     32  H   UNL     1      47.446   4.467  17.833  0.00  0.00    +0.000 HD
ATOM     33  H   UNL     1      46.145   3.725  17.190  0.00  0.00    +0.000 HD
ENDBRANCH  30  31
ENDBRANCH   1  30
TORSDOF 7
ENDMDL
MODEL 9
REMARK VINA RESULT:    -6.637      2.131      3.097
REMARK INTER + INTRA:          -9.790
REMARK INTER:                  -8.856
REMARK INTRA:                  -0.934
REMARK UNBOUND:                -0.631
REMARK  Name = 
REMARK  7 active torsions:
REMARK  status: ('A' for Active; 'I' for Inactive)
REMARK    1  A    between atoms: N_1  and  C_2
REMARK    2  A    between atoms: C_2  and  C_3
REMARK    3  A    between atoms: C_3  and  N_4
REMARK    4  A    between atoms: C_3  and  C_17
REMARK    5  A    between atoms: C_5  and  C_7
REMARK    6  A    between atoms: C_20  and  O_21
REMARK    7  A    between atoms: O_21  and  C_22
REMARK                            x       y       z     vdW  Elec       q    Type
REMARK                         _______ _______ _______ _____ _____    ______ ____
ROOT
ATOM      1  C   UNL     1      48.565   8.040  13.892  0.00  0.00    +0.000 C 
ENDROOT
BRANCH   1   2
ATOM      2  C   UNL     1      47.510   7.291  13.078  0.00  0.00    +0.000 A 
ATOM      3  C   UNL     1      46.706   7.989  12.168  0.00  0.00    +0.000 A 
ATOM      4  C   UNL     1      45.706   7.328  11.450  0.00  0.00    +0.000 A 
ATOM      5  C   UNL     1      45.526   5.950  11.589  0.00  0.00    +0.000 A 
ATOM      6  C   UNL     1      46.318   5.244  12.494  0.00  0.00    +0.000 A 
ATOM      7  C   UNL     1      47.308   5.906  13.228  0.00  0.00    +0.000 A 
BRANCH   5   8
ATOM      8  O   UNL     1      44.543   5.234  10.943  0.00  0.00    +0.000 OA
BRANCH   8   9
ATOM      9  C   UNL     1      44.915   4.361   9.928  0.00  0.00    +0.000 A 
ATOM     10  C   UNL     1      44.552   3.031  10.088  0.00  0.00    +0.000 A 
ATOM     11  C   UNL     1      44.898   2.128   9.086  0.00  0.00    +0.000 A 
ATOM     12  C   UNL     1      45.593   2.581   7.970  0.00  0.00    +0.000 A 
ATOM     13  C   UNL     1      45.938   3.920   7.913  0.00  0.00    +0.000 A 
ATOM     14  N   UNL     1      45.631   4.814   8.874  0.00  0.00    +0.000 NA
ENDBRANCH   8   9
ENDBRANCH   5   8
ENDBRANCH   1   2
BRANCH   1  15
ATOM     15  N   UNL     1      48.278   7.843  15.303  0.00  0.00    +0.000 N 
ATOM     16  C   UNL     1      49.221   7.972  16.291  0.00  0.00    +0.000 C 
ATOM     17  O   UNL     1      50.341   8.431  16.097  0.00  0.00    +0.000 OA
ATOM     18  H   UNL     1      47.512   7.203  15.484  0.00  0.00    +0.000 HD
BRANCH  16  19
ATOM     19  C   UNL     1      48.777   7.583  17.632  0.00  0.00    +0.000 A 
ATOM     20  C   UNL     1      48.230   8.522  18.494  0.00  0.00    +0.000 A 
ATOM     21  S   UNL     1      47.721   7.857  19.984  0.00  0.00    +0.000 S 
ATOM     22  C   UNL     1      48.269   6.305  19.545  0.00  0.00    +0.000 A 
ATOM     23  N   UNL     1      48.154   5.248  20.392  0.00  0.00    +0.000 NA
ATOM     24  C   UNL     1      48.642   4.143  19.932  0.00  0.00    +0.000 A 
ATOM     25  N   UNL     1      49.230   3.996  18.703  0.00  0.00    +0.000 N 
ATOM     26  C   UNL     1      49.339   5.026  17.805  0.00  0.00    +0.000 A 
ATOM     27  O   UNL     1      49.828   4.856  16.694  0.00  0.00    +0.000 OA
ATOM     28  C   UNL     1      48.816   6.294  18.275  0.00  0.00    +0.000 A 
ATOM     29  H   UNL     1      49.582   3.102  18.392  0.00  0.00    +0.000 HD
ENDBRANCH  16  19
ENDBRANCH   1  15
BRANCH   1  30
ATOM     30  C   UNL     1      48.621   9.543  13.489  0.00  0.00    +0.000 C 
BRANCH  30  31
ATOM     31  N   UNL     1      48.215  10.470  14.557  0.00  0.00    +0.000 NA
ATOM     32  H   UNL     1      48.547  11.404  14.322  0.00  0.00    +0.000 HD
ATOM     33  H   UNL     1      48.687  10.213  15.426  0.00  0.00    +0.000 HD
ENDBRANCH  30  31
ENDBRANCH   1  30
TORSDOF 7
ENDMDL
