MODEL 1
REMARK VINA RESULT:    -7.482      0.000      0.000
REMARK INTER + INTRA:         -10.201
REMARK INTER:                  -9.669
REMARK INTRA:                  -0.532
REMARK UNBOUND:                -0.532
REMARK  Name = 
REMARK  6 active torsions:
REMARK  status: ('A' for Active; 'I' for Inactive)
REMARK    1  A    between atoms: N_1  and  C_2
REMARK    2  A    between atoms: C_2  and  C_3
REMARK    3  A    between atoms: C_6  and  O_7
REMARK    4  A    between atoms: O_7  and  C_8
REMARK    5  A    between atoms: C_8  and  C_9
REMARK    6  A    between atoms: C_9  and  O_10
REMARK                            x       y       z     vdW  Elec       q    Type
REMARK                         _______ _______ _______ _____ _____    ______ ____
ROOT
ATOM      1  C   UNL     1      46.693   2.707   6.879  0.00  0.00    +0.000 A 
ATOM      2  C   UNL     1      46.554   1.465   7.510  0.00  0.00    +0.000 A 
ATOM      3  C   UNL     1      45.656   1.295   8.567  0.00  0.00    +0.000 A 
ATOM      4  C   UNL     1      44.889   2.369   9.020  0.00  0.00    +0.000 A 
ATOM      5  C   UNL     1      45.029   3.612   8.401  0.00  0.00    +0.000 A 
ATOM      6  C   UNL     1      45.923   3.783   7.339  0.00  0.00    +0.000 A 
ENDROOT
BRANCH   1   7
ATOM      7  C   UNL     1      47.664   2.875   5.738  0.00  0.00    +0.000 C 
BRANCH   7   8
ATOM      8  N   UNL     1      48.574   1.738   5.641  0.00  0.00    +0.000 NA
ATOM      9  H   UNL     1      49.072   1.632   6.523  0.00  0.00    +0.000 HD
ATOM     10  H   UNL     1      49.279   1.944   4.934  0.00  0.00    +0.000 HD
ENDBRANCH   7   8
ENDBRANCH   1   7
BRANCH   4  11
ATOM     11  O   UNL     1      43.976   2.325  10.042  0.00  0.00    +0.000 OA
BRANCH  11  12
ATOM     12  C   UNL     1      43.701   3.577  10.686  0.00  0.00    +0.000 C 
BRANCH  12  13
ATOM     13  C   UNL     1      43.966   3.451  12.205  0.00  0.00    +0.000 C 
ATOM     14  C   UNL     1      43.193   4.490  13.034  0.00  0.00    +0.000 C 
ATOM     15  C   UNL     1      43.686   5.914  12.784  0.00  0.00    +0.000 C 
ATOM     16  C   UNL     1      45.190   6.042  13.014  0.00  0.00    +0.000 C 
ATOM     17  C   UNL     1      46.005   4.983  12.273  0.00  0.00    +0.000 C 
ATOM     18  C   UNL     1      45.468   3.572  12.506  0.00  0.00    +0.000 C 
BRANCH  13  19
ATOM     19  O   UNL     1      43.541   2.147  12.627  0.00  0.00    +0.000 OA
ATOM     20  H   UNL     1      44.299   1.549  12.474  0.00  0.00    +0.000 HD
ENDBRANCH  13  19
ENDBRANCH  12  13
ENDBRANCH  11  12
ENDBRANCH   4  11
TORSDOF 6
ENDMDL
MODEL 2
REMARK VINA RESULT:    -7.434      1.529      2.264
REMARK INTER + INTRA:         -10.139
REMARK INTER:                  -9.633
REMARK INTRA:                  -0.506
REMARK UNBOUND:                -0.532
REMARK  Name = 
REMARK  6 active torsions:
REMARK  status: ('A' for Active; 'I' for Inactive)
REMARK    1  A    between atoms: N_1  and  C_2
REMARK    2  A    between atoms: C_2  and  C_3
REMARK    3  A    between atoms: C_6  and  O_7
REMARK    4  A    between atoms: O_7  and  C_8
REMARK    5  A    between atoms: C_8  and  C_9
REMARK    6  A    between atoms: C_9  and  O_10
REMARK                            x       y       z     vdW  Elec       q    Type
REMARK                         _______ _______ _______ _____ _____    ______ ____
ROOT
ATOM      1  C   UNL     1      46.581   2.091   7.666  0.00  0.00    +0.000 A 
ATOM      2  C   UNL     1      46.576   3.458   7.361  0.00  0.00    +0.000 A 
ATOM      3  C   UNL     1      45.638   4.318   7.939  0.00  0.00    +0.000 A 
ATOM      4  C   UNL     1      44.681   3.825   8.825  0.00  0.00    +0.000 A 
ATOM      5  C   UNL     1      44.674   2.462   9.128  0.00  0.00    +0.000 A 
ATOM      6  C   UNL     1      45.615   1.600   8.554  0.00  0.00    +0.000 A 
ENDROOT
BRANCH   1   7
ATOM      7  C   UNL     1      47.599   1.176   7.037  0.00  0.00    +0.000 C 
BRANCH   7   8
ATOM      8  N   UNL     1      48.354   1.857   5.990  0.00  0.00    +0.000 NA
ATOM      9  H   UNL     1      48.322   1.301   5.139  0.00  0.00    +0.000 HD
ATOM     10  H   UNL     1      49.332   1.903   6.271  0.00  0.00    +0.000 HD
ENDBRANCH   7   8
ENDBRANCH   1   7
BRANCH   4  11
ATOM     11  O   UNL     1      43.716   4.567   9.455  0.00  0.00    +0.000 OA
BRANCH  11  12
ATOM     12  C   UNL     1      43.517   4.280  10.846  0.00  0.00    +0.000 C 
BRANCH  12  13
ATOM     13  C   UNL     1      43.574   5.593  11.663  0.00  0.00    +0.000 C 
ATOM     14  C   UNL     1      44.619   6.585  11.127  0.00  0.00    +0.000 C 
ATOM     15  C   UNL     1      46.048   6.080  11.316  0.00  0.00    +0.000 C 
ATOM     16  C   UNL     1      46.334   5.719  12.772  0.00  0.00    +0.000 C 
ATOM     17  C   UNL     1      45.282   4.793  13.381  0.00  0.00    +0.000 C 
ATOM     18  C   UNL     1      43.860   5.298  13.144  0.00  0.00    +0.000 C 
BRANCH  13  19
ATOM     19  O   UNL     1      42.287   6.224  11.586  0.00  0.00    +0.000 OA
ATOM     20  H   UNL     1      42.440   7.177  11.734  0.00  0.00    +0.000 HD
ENDBRANCH  13  19
ENDBRANCH  12  13
ENDBRANCH  11  12
ENDBRANCH   4  11
TORSDOF 6
ENDMDL
MODEL 3
REMARK VINA RESULT:    -6.022      3.358      6.113
REMARK INTER + INTRA:          -8.315
REMARK INTER:                  -7.823
REMARK INTRA:                  -0.493
REMARK UNBOUND:                -0.532
REMARK  Name = 
REMARK  6 active torsions:
REMARK  status: ('A' for Active; 'I' for Inactive)
REMARK    1  A    between atoms: N_1  and  C_2
REMARK    2  A    between atoms: C_2  and  C_3
REMARK    3  A    between atoms: C_6  and  O_7
REMARK    4  A    between atoms: O_7  and  C_8
REMARK    5  A    between atoms: C_8  and  C_9
REMARK    6  A    between atoms: C_9  and  O_10
REMARK                            x       y       z     vdW  Elec       q    Type
REMARK                         _______ _______ _______ _____ _____    ______ ____
ROOT
ATOM      1  C   UNL     1      47.011   7.513  13.389  0.00  0.00    +0.000 A 
ATOM      2  C   UNL     1      47.588   6.264  13.650  0.00  0.00    +0.000 A 
ATOM      3  C   UNL     1      46.873   5.084  13.427  0.00  0.00    +0.000 A 
ATOM      4  C   UNL     1      45.564   5.133  12.950  0.00  0.00    +0.000 A 
ATOM      5  C   UNL     1      44.978   6.375  12.696  0.00  0.00    +0.000 A 
ATOM      6  C   UNL     1      45.695   7.557  12.913  0.00  0.00    +0.000 A 
ENDROOT
BRANCH   1   7
ATOM      7  C   UNL     1      47.795   8.777  13.632  0.00  0.00    +0.000 C 
BRANCH   7   8
ATOM      8  N   UNL     1      47.598   9.275  14.989  0.00  0.00    +0.000 NA
ATOM      9  H   UNL     1      46.882   9.998  14.981  0.00  0.00    +0.000 HD
ATOM     10  H   UNL     1      48.459   9.723  15.301  0.00  0.00    +0.000 HD
ENDBRANCH   7   8
ENDBRANCH   1   7
BRANCH   4  11
ATOM     11  O   UNL     1      44.766   4.049  12.692  0.00  0.00    +0.000 OA
BRANCH  11  12
ATOM     12  C   UNL     1      45.212   3.183  11.638  0.00  0.00    +0.000 C 
BRANCH  12  13
ATOM     13  C   UNL     1      44.145   3.129  10.520  0.00  0.00    +0.000 C 
ATOM     14  C   UNL     1      44.320   1.922   9.584  0.00  0.00    +0.000 C 
ATOM     15  C   UNL     1      45.594   2.019   8.747  0.00  0.00    +0.000 C 
ATOM     16  C   UNL     1      45.660   3.330   7.965  0.00  0.00    +0.000 C 
ATOM     17  C   UNL     1      45.416   4.562   8.835  0.00  0.00    +0.000 C 
ATOM     18  C   UNL     1      44.160   4.424   9.693  0.00  0.00    +0.000 C 
BRANCH  13  19
ATOM     19  O   UNL     1      42.853   3.022  11.138  0.00  0.00    +0.000 OA
ATOM     20  H   UNL     1      42.568   3.935  11.336  0.00  0.00    +0.000 HD
ENDBRANCH  13  19
ENDBRANCH  12  13
ENDBRANCH  11  12
ENDBRANCH   4  11
TORSDOF 6
ENDMDL
MODEL 4
REMARK VINA RESULT:    -5.545      1.474      2.150
REMARK INTER + INTRA:          -7.698
REMARK INTER:                  -7.879
REMARK INTRA:                   0.180
REMARK UNBOUND:                -0.532
REMARK  Name = 
REMARK  6 active torsions:
REMARK  status: ('A' for Active; 'I' for Inactive)
REMARK    1  A    between atoms: N_1  and  C_2
REMARK    2  A    between atoms: C_2  and  C_3
REMARK    3  A    between atoms: C_6  and  O_7
REMARK    4  A    between atoms: O_7  and  C_8
REMARK    5  A    between atoms: C_8  and  C_9
REMARK    6  A    between atoms: C_9  and  O_10
REMARK                            x       y       z     vdW  Elec       q    Type
REMARK                         _______ _______ _______ _____ _____    ______ ____
ROOT
ATOM      1  C   UNL     1      47.012   2.268   7.065  0.00  0.00    +0.000 A 
ATOM      2  C   UNL     1      46.683   3.624   7.185  0.00  0.00    +0.000 A 
ATOM      3  C   UNL     1      45.803   4.063   8.177  0.00  0.00    +0.000 A 
ATOM      4  C   UNL     1      45.225   3.152   9.061  0.00  0.00    +0.000 A 
ATOM      5  C   UNL     1      45.541   1.797   8.942  0.00  0.00    +0.000 A 
ATOM      6  C   UNL     1      46.427   1.356   7.953  0.00  0.00    +0.000 A 
ENDROOT
BRANCH   1   7
ATOM      7  C   UNL     1      47.965   1.810   5.992  0.00  0.00    +0.000 C 
BRANCH   7   8
ATOM      8  N   UNL     1      48.135   2.827   4.960  0.00  0.00    +0.000 NA
ATOM      9  H   UNL     1      47.229   3.044   4.549  0.00  0.00    +0.000 HD
ATOM     10  H   UNL     1      48.708   2.440   4.211  0.00  0.00    +0.000 HD
ENDBRANCH   7   8
ENDBRANCH   1   7
BRANCH   4  11
ATOM     11  O   UNL     1      44.353   3.460  10.073  0.00  0.00    +0.000 OA
BRANCH  11  12
ATOM     12  C   UNL     1      44.850   3.267  11.405  0.00  0.00    +0.000 C 
BRANCH  12  13
ATOM     13  C   UNL     1      45.076   4.639  12.082  0.00  0.00    +0.000 C 
ATOM     14  C   UNL     1      44.270   4.805  13.380  0.00  0.00    +0.000 C 
ATOM     15  C   UNL     1      42.765   4.866  13.125  0.00  0.00    +0.000 C 
ATOM     16  C   UNL     1      42.405   5.956  12.116  0.00  0.00    +0.000 C 
ATOM     17  C   UNL     1      43.232   5.885  10.833  0.00  0.00    +0.000 C 
ATOM     18  C   UNL     1      44.730   5.784  11.116  0.00  0.00    +0.000 C 
BRANCH  13  19
ATOM     19  O   UNL     1      46.468   4.754  12.410  0.00  0.00    +0.000 OA
ATOM     20  H   UNL     1      46.551   5.541  12.982  0.00  0.00    +0.000 HD
ENDBRANCH  13  19
ENDBRANCH  12  13
ENDBRANCH  11  12
ENDBRANCH   4  11
TORSDOF 6
ENDMDL
MODEL 5
REMARK VINA RESULT:    -5.510      4.689      6.189
REMARK INTER + INTRA:          -7.653
REMARK INTER:                  -7.322
REMARK INTRA:                  -0.331
REMARK UNBOUND:                -0.532
REMARK  Name = 
REMARK  6 active torsions:
REMARK  status: ('A' for Active; 'I' for Inactive)
REMARK    1  A    between atoms: N_1  and  C_2
REMARK    2  A    between atoms: C_2  and  C_3
REMARK    3  A    between atoms: C_6  and  O_7
REMARK    4  A    between atoms: O_7  and  C_8
REMARK    5  A    between atoms: C_8  and  C_9
REMARK    6  A    between atoms: C_9  and  O_10
REMARK                            x       y       z     vdW  Elec       q    Type
REMARK                         _______ _______ _______ _____ _____    ______ ____
ROOT
ATOM      1  C   UNL     1      45.665   5.255  11.530  0.00  0.00    +0.000 A 
ATOM      2  C   UNL     1      45.371   3.918  11.828  0.00  0.00    +0.000 A 
ATOM      3  C   UNL     1      45.903   3.303  12.964  0.00  0.00    +0.000 A 
ATOM      4  C   UNL     1      46.749   4.011  13.818  0.00  0.00    +0.000 A 
ATOM      5  C   UNL     1      47.054   5.341  13.523  0.00  0.00    +0.000 A 
ATOM      6  C   UNL     1      46.517   5.960  12.389  0.00  0.00    +0.000 A 
ENDROOT
BRANCH   1   7
ATOM      7  C   UNL     1      45.081   5.906  10.303  0.00  0.00    +0.000 C 
BRANCH   7   8
ATOM      8  N   UNL     1      45.643   5.340   9.081  0.00  0.00    +0.000 NA
ATOM      9  H   UNL     1      46.652   5.260   9.183  0.00  0.00    +0.000 HD
ATOM     10  H   UNL     1      45.480   5.992   8.315  0.00  0.00    +0.000 HD
ENDBRANCH   7   8
ENDBRANCH   1   7
BRANCH   4  11
ATOM     11  O   UNL     1      47.329   3.519  14.959  0.00  0.00    +0.000 OA
BRANCH  11  12
ATOM     12  C   UNL     1      47.661   4.492  15.959  0.00  0.00    +0.000 C 
BRANCH  12  13
ATOM     13  C   UNL     1      47.656   3.827  17.355  0.00  0.00    +0.000 C 
ATOM     14  C   UNL     1      47.674   4.849  18.504  0.00  0.00    +0.000 C 
ATOM     15  C   UNL     1      48.989   5.624  18.570  0.00  0.00    +0.000 C 
ATOM     16  C   UNL     1      50.194   4.689  18.653  0.00  0.00    +0.000 C 
ATOM     17  C   UNL     1      50.188   3.603  17.579  0.00  0.00    +0.000 C 
ATOM     18  C   UNL     1      48.850   2.870  17.505  0.00  0.00    +0.000 C 
BRANCH  13  19
ATOM     19  O   UNL     1      46.457   3.049  17.477  0.00  0.00    +0.000 OA
ATOM     20  H   UNL     1      46.333   2.601  16.618  0.00  0.00    +0.000 HD
ENDBRANCH  13  19
ENDBRANCH  12  13
ENDBRANCH  11  12
ENDBRANCH   4  11
TORSDOF 6
ENDMDL
MODEL 6
REMARK VINA RESULT:    -5.482      2.376      3.314
REMARK INTER + INTRA:          -7.617
REMARK INTER:                  -7.091
REMARK INTRA:                  -0.526
REMARK UNBOUND:                -0.532
REMARK  Name = 
REMARK  6 active torsions:
REMARK  status: ('A' for Active; 'I' for Inactive)
REMARK    1  A    between atoms: N_1  and  C_2
REMARK    2  A    between atoms: C_2  and  C_3
REMARK    3  A    between atoms: C_6  and  O_7
REMARK    4  A    between atoms: O_7  and  C_8
REMARK    5  A    between atoms: C_8  and  C_9
REMARK    6  A    between atoms: C_9  and  O_10
REMARK                            x       y       z     vdW  Elec       q    Type
REMARK                         _______ _______ _______ _____ _____    ______ ____
ROOT
ATOM      1  C   UNL     1      45.634   2.696   8.311  0.00  0.00    +0.000 A 
ATOM      2  C   UNL     1      46.046   4.030   8.201  0.00  0.00    +0.000 A 
ATOM      3  C   UNL     1      45.594   4.996   9.103  0.00  0.00    +0.000 A 
ATOM      4  C   UNL     1      44.712   4.648  10.126  0.00  0.00    +0.000 A 
ATOM      5  C   UNL     1      44.289   3.322  10.237  0.00  0.00    +0.000 A 
ATOM      6  C   UNL     1      44.746   2.352   9.337  0.00  0.00    +0.000 A 
ENDROOT
BRANCH   1   7
ATOM      7  C   UNL     1      46.132   1.664   7.332  0.00  0.00    +0.000 C 
BRANCH   7   8
ATOM      8  N   UNL     1      47.074   0.744   7.960  0.00  0.00    +0.000 NA
ATOM      9  H   UNL     1      47.484   0.145   7.247  0.00  0.00    +0.000 HD
ATOM     10  H   UNL     1      46.560   0.132   8.593  0.00  0.00    +0.000 HD
ENDBRANCH   7   8
ENDBRANCH   1   7
BRANCH   4  11
ATOM     11  O   UNL     1      44.203   5.502  11.069  0.00  0.00    +0.000 OA
BRANCH  11  12
ATOM     12  C   UNL     1      44.851   6.778  11.169  0.00  0.00    +0.000 C 
BRANCH  12  13
ATOM     13  C   UNL     1      45.523   6.914  12.556  0.00  0.00    +0.000 C 
ATOM     14  C   UNL     1      45.585   8.369  13.050  0.00  0.00    +0.000 C 
ATOM     15  C   UNL     1      46.520   9.229  12.203  0.00  0.00    +0.000 C 
ATOM     16  C   UNL     1      47.920   8.624  12.112  0.00  0.00    +0.000 C 
ATOM     17  C   UNL     1      47.914   7.153  11.698  0.00  0.00    +0.000 C 
ATOM     18  C   UNL     1      46.941   6.322  12.532  0.00  0.00    +0.000 C 
BRANCH  13  19
ATOM     19  O   UNL     1      44.753   6.160  13.503  0.00  0.00    +0.000 OA
ATOM     20  H   UNL     1      43.928   5.905  13.046  0.00  0.00    +0.000 HD
ENDBRANCH  13  19
ENDBRANCH  12  13
ENDBRANCH  11  12
ENDBRANCH   4  11
TORSDOF 6
ENDMDL
MODEL 7
REMARK VINA RESULT:    -5.269      3.632      5.876
REMARK INTER + INTRA:          -7.341
REMARK INTER:                  -6.710
REMARK INTRA:                  -0.631
REMARK UNBOUND:                -0.532
REMARK  Name = 
REMARK  6 active torsions:
REMARK  status: ('A' for Active; 'I' for Inactive)
REMARK    1  A    between atoms: N_1  and  C_2
REMARK    2  A    between atoms: C_2  and  C_3
REMARK    3  A    between atoms: C_6  and  O_7
REMARK    4  A    between atoms: O_7  and  C_8
REMARK    5  A    between atoms: C_8  and  C_9
REMARK    6  A    between atoms: C_9  and  O_10
REMARK                            x       y       z     vdW  Elec       q    Type
REMARK                         _______ _______ _______ _____ _____    ______ ____
ROOT
ATOM      1  C   UNL     1      48.881   8.364  11.969  0.00  0.00    +0.000 A 
ATOM      2  C   UNL     1      47.873   9.322  12.134  0.00  0.00    +0.000 A 
ATOM      3  C   UNL     1      46.563   8.941  12.435  0.00  0.00    +0.000 A 
ATOM      4  C   UNL     1      46.234   7.592  12.565  0.00  0.00    +0.000 A 
ATOM      5  C   UNL     1      47.231   6.629  12.393  0.00  0.00    +0.000 A 
ATOM      6  C   UNL     1      48.545   7.010  12.098  0.00  0.00    +0.000 A 
ENDROOT
BRANCH   1   7
ATOM      7  C   UNL     1      50.290   8.790  11.648  0.00  0.00    +0.000 C 
BRANCH   7   8
ATOM      8  N   UNL     1      51.154   7.639  11.407  0.00  0.00    +0.000 NA
ATOM      9  H   UNL     1      50.754   6.819  11.859  0.00  0.00    +0.000 HD
ATOM     10  H   UNL     1      52.054   7.807  11.854  0.00  0.00    +0.000 HD
ENDBRANCH   7   8
ENDBRANCH   1   7
BRANCH   4  11
ATOM     11  O   UNL     1      44.990   7.096  12.859  0.00  0.00    +0.000 OA
BRANCH  11  12
ATOM     12  C   UNL     1      44.943   5.713  13.237  0.00  0.00    +0.000 C 
BRANCH  12  13
ATOM     13  C   UNL     1      43.694   5.045  12.617  0.00  0.00    +0.000 C 
ATOM     14  C   UNL     1      43.732   3.510  12.702  0.00  0.00    +0.000 C 
ATOM     15  C   UNL     1      44.830   2.909  11.827  0.00  0.00    +0.000 C 
ATOM     16  C   UNL     1      44.717   3.373  10.376  0.00  0.00    +0.000 C 
ATOM     17  C   UNL     1      44.598   4.890  10.236  0.00  0.00    +0.000 C 
ATOM     18  C   UNL     1      43.522   5.472  11.150  0.00  0.00    +0.000 C 
BRANCH  13  19
ATOM     19  O   UNL     1      42.539   5.497  13.339  0.00  0.00    +0.000 OA
ATOM     20  H   UNL     1      41.922   5.857  12.673  0.00  0.00    +0.000 HD
ENDBRANCH  13  19
ENDBRANCH  12  13
ENDBRANCH  11  12
ENDBRANCH   4  11
TORSDOF 6
ENDMDL
MODEL 8
REMARK VINA RESULT:    -5.210      3.850      5.499
REMARK INTER + INTRA:          -7.265
REMARK INTER:                  -6.752
REMARK INTRA:                  -0.513
REMARK UNBOUND:                -0.532
REMARK  Name = 
REMARK  6 active torsions:
REMARK  status: ('A' for Active; 'I' for Inactive)
REMARK    1  A    between atoms: N_1  and  C_2
REMARK    2  A    between atoms: C_2  and  C_3
REMARK    3  A    between atoms: C_6  and  O_7
REMARK    4  A    between atoms: O_7  and  C_8
REMARK    5  A    between atoms: C_8  and  C_9
REMARK    6  A    between atoms: C_9  and  O_10
REMARK                            x       y       z     vdW  Elec       q    Type
REMARK                         _______ _______ _______ _____ _____    ______ ____
ROOT
ATOM      1  C   UNL     1      44.898   3.735  10.510  0.00  0.00    +0.000 A 
ATOM      2  C   UNL     1      45.216   5.029  10.078  0.00  0.00    +0.000 A 
ATOM      3  C   UNL     1      45.632   6.006  10.986  0.00  0.00    +0.000 A 
ATOM      4  C   UNL     1      45.727   5.710  12.345  0.00  0.00    +0.000 A 
ATOM      5  C   UNL     1      45.403   4.426  12.786  0.00  0.00    +0.000 A 
ATOM      6  C   UNL     1      44.992   3.444  11.877  0.00  0.00    +0.000 A 
ENDROOT
BRANCH   1   7
ATOM      7  C   UNL     1      44.453   2.691   9.520  0.00  0.00    +0.000 C 
BRANCH   7   8
ATOM      8  N   UNL     1      44.365   3.239   8.170  0.00  0.00    +0.000 NA
ATOM      9  H   UNL     1      43.563   2.831   7.694  0.00  0.00    +0.000 HD
ATOM     10  H   UNL     1      45.191   2.951   7.646  0.00  0.00    +0.000 HD
ENDBRANCH   7   8
ENDBRANCH   1   7
BRANCH   4  11
ATOM     11  O   UNL     1      46.124   6.581  13.328  0.00  0.00    +0.000 OA
BRANCH  11  12
ATOM     12  C   UNL     1      46.296   7.945  12.920  0.00  0.00    +0.000 C 
BRANCH  12  13
ATOM     13  C   UNL     1      47.524   8.553  13.637  0.00  0.00    +0.000 C 
ATOM     14  C   UNL     1      48.030   9.841  12.968  0.00  0.00    +0.000 C 
ATOM     15  C   UNL     1      48.620   9.580  11.583  0.00  0.00    +0.000 C 
ATOM     16  C   UNL     1      49.717   8.519  11.624  0.00  0.00    +0.000 C 
ATOM     17  C   UNL     1      49.292   7.242  12.348  0.00  0.00    +0.000 C 
ATOM     18  C   UNL     1      48.669   7.531  13.712  0.00  0.00    +0.000 C 
BRANCH  13  19
ATOM     19  O   UNL     1      47.142   8.877  14.983  0.00  0.00    +0.000 OA
ATOM     20  H   UNL     1      46.194   8.655  15.059  0.00  0.00    +0.000 HD
ENDBRANCH  13  19
ENDBRANCH  12  13
ENDBRANCH  11  12
ENDBRANCH   4  11
TORSDOF 6
ENDMDL
MODEL 9
REMARK VINA RESULT:    -5.155      4.777      7.372
REMARK INTER + INTRA:          -7.194
REMARK INTER:                  -6.795
REMARK INTRA:                  -0.399
REMARK UNBOUND:                -0.532
REMARK  Name = 
REMARK  6 active torsions:
REMARK  status: ('A' for Active; 'I' for Inactive)
REMARK    1  A    between atoms: N_1  and  C_2
REMARK    2  A    between atoms: C_2  and  C_3
REMARK    3  A    between atoms: C_6  and  O_7
REMARK    4  A    between atoms: O_7  and  C_8
REMARK    5  A    between atoms: C_8  and  C_9
REMARK    6  A    between atoms: C_9  and  O_10
REMARK                            x       y       z     vdW  Elec       q    Type
REMARK                         _______ _______ _______ _____ _____    ______ ____
ROOT
ATOM      1  C   UNL     1      48.454   4.710  17.101  0.00  0.00    +0.000 A 
ATOM      2  C   UNL     1      48.817   5.882  16.424  0.00  0.00    +0.000 A 
ATOM      3  C   UNL     1      48.277   6.182  15.171  0.00  0.00    +0.000 A 
ATOM      4  C   UNL     1      47.373   5.309  14.565  0.00  0.00    +0.000 A 
ATOM      5  C   UNL     1      47.013   4.135  15.229  0.00  0.00    +0.000 A 
ATOM      6  C   UNL     1      47.548   3.836  16.487  0.00  0.00    +0.000 A 
ENDROOT
BRANCH   1   7
ATOM      7  C   UNL     1      49.042   4.401  18.453  0.00  0.00    +0.000 C 
BRANCH   7   8
ATOM      8  N   UNL     1      48.359   3.278  19.087  0.00  0.00    +0.000 NA
ATOM      9  H   UNL     1      47.406   3.223  18.735  0.00  0.00    +0.000 HD
ATOM     10  H   UNL     1      48.289   3.462  20.087  0.00  0.00    +0.000 HD
ENDBRANCH   7   8
ENDBRANCH   1   7
BRANCH   4  11
ATOM     11  O   UNL     1      46.777   5.495  13.345  0.00  0.00    +0.000 OA
BRANCH  11  12
ATOM     12  C   UNL     1      45.804   4.509  12.970  0.00  0.00    +0.000 C 
BRANCH  12  13
ATOM     13  C   UNL     1      44.580   5.202  12.326  0.00  0.00    +0.000 C 
ATOM     14  C   UNL     1      43.456   4.217  11.966  0.00  0.00    +0.000 C 
ATOM     15  C   UNL     1      43.858   3.265  10.842  0.00  0.00    +0.000 C 
ATOM     16  C   UNL     1      44.339   4.020   9.604  0.00  0.00    +0.000 C 
ATOM     17  C   UNL     1      45.406   5.069   9.915  0.00  0.00    +0.000 C 
ATOM     18  C   UNL     1      44.998   5.983  11.069  0.00  0.00    +0.000 C 
BRANCH  13  19
ATOM     19  O   UNL     1      44.053   6.147  13.269  0.00  0.00    +0.000 OA
ATOM     20  H   UNL     1      44.157   5.740  14.151  0.00  0.00    +0.000 HD
ENDBRANCH  13  19
ENDBRANCH  12  13
ENDBRANCH  11  12
ENDBRANCH   4  11
TORSDOF 6
ENDMDL
