MODEL 1
REMARK VINA RESULT:    -7.855      0.000      0.000
REMARK INTER + INTRA:         -10.875
REMARK INTER:                 -10.151
REMARK INTRA:                  -0.725
REMARK UNBOUND:                -0.725
REMARK  Name = 
REMARK  5 active torsions:
REMARK  status: ('A' for Active; 'I' for Inactive)
REMARK    1  A    between atoms: C_2  and  C_3
REMARK    2  A    between atoms: N_7  and  C_8
REMARK    3  A    between atoms: C_8  and  C_9
REMARK    4  A    between atoms: C_9  and  C_12
REMARK    5  A    between atoms: C_16  and  C_17
REMARK                            x       y       z     vdW  Elec       q    Type
REMARK                         _______ _______ _______ _____ _____    ______ ____
ROOT
ATOM      1  C   UNL     1      43.390   4.554  10.655  0.00  0.00    +0.000 C 
ENDROOT
BRANCH   1   6
ATOM      2  C   UNL     1      46.686   2.451   7.358  0.00  0.00    +0.000 A 
ATOM      3  C   UNL     1      46.296   3.763   7.570  0.00  0.00    +0.000 A 
ATOM      4  C   UNL     1      45.360   4.040   8.566  0.00  0.00    +0.000 A 
ATOM      5  C   UNL     1      44.813   3.004   9.323  0.00  0.00    +0.000 A 
ATOM      6  N   UNL     1      43.872   3.220  10.301  0.00  0.00    +0.000 N 
ATOM      7  N   UNL     1      45.190   1.728   9.122  0.00  0.00    +0.000 NA
ATOM      8  C   UNL     1      46.115   1.475   8.159  0.00  0.00    +0.000 A 
ATOM      9  H   UNL     1      43.491   2.387  10.736  0.00  0.00    +0.000 HD
BRANCH   2  11
ATOM     10  N   UNL     1      48.418   1.829   5.538  0.00  0.00    +0.000 NA
ATOM     11  C   UNL     1      47.637   2.116   6.345  0.00  0.00    +0.000 C 
ENDBRANCH   2  11
ENDBRANCH   1   6
BRANCH   1  12
ATOM     12  C   UNL     1      43.457   4.925  12.157  0.00  0.00    +0.000 C 
ATOM     13  F   UNL     1      42.562   5.924  12.404  0.00  0.00    +0.000 F 
ATOM     14  F   UNL     1      43.022   3.857  12.891  0.00  0.00    +0.000 F 
BRANCH  12  15
ATOM     15  C   UNL     1      44.880   5.325  12.539  0.00  0.00    +0.000 A 
ATOM     16  C   UNL     1      45.575   6.266  11.762  0.00  0.00    +0.000 A 
ATOM     17  C   UNL     1      46.879   6.645  12.091  0.00  0.00    +0.000 A 
ATOM     18  C   UNL     1      47.505   6.096  13.209  0.00  0.00    +0.000 A 
ATOM     19  C   UNL     1      46.826   5.166  14.007  0.00  0.00    +0.000 A 
ATOM     20  C   UNL     1      45.519   4.785  13.670  0.00  0.00    +0.000 A 
BRANCH  19  21
ATOM     21  C   UNL     1      47.466   4.610  15.167  0.00  0.00    +0.000 C 
ATOM     22  N   UNL     1      47.983   4.152  16.096  0.00  0.00    +0.000 NA
ENDBRANCH  19  21
ENDBRANCH  12  15
ENDBRANCH   1  12
TORSDOF 5
ENDMDL
MODEL 2
REMARK VINA RESULT:    -7.793      1.844      2.426
REMARK INTER + INTRA:         -10.796
REMARK INTER:                 -10.333
REMARK INTRA:                  -0.463
REMARK UNBOUND:                -0.725
REMARK  Name = 
REMARK  5 active torsions:
REMARK  status: ('A' for Active; 'I' for Inactive)
REMARK    1  A    between atoms: C_2  and  C_3
REMARK    2  A    between atoms: N_7  and  C_8
REMARK    3  A    between atoms: C_8  and  C_9
REMARK    4  A    between atoms: C_9  and  C_12
REMARK    5  A    between atoms: C_16  and  C_17
REMARK                            x       y       z     vdW  Elec       q    Type
REMARK                         _______ _______ _______ _____ _____    ______ ____
ROOT
ATOM      1  C   UNL     1      43.181   4.140  11.192  0.00  0.00    +0.000 C 
ENDROOT
BRANCH   1   6
ATOM      2  C   UNL     1      46.570   2.673   7.653  0.00  0.00    +0.000 A 
ATOM      3  C   UNL     1      45.840   1.960   8.591  0.00  0.00    +0.000 A 
ATOM      4  C   UNL     1      44.972   2.646   9.438  0.00  0.00    +0.000 A 
ATOM      5  C   UNL     1      44.856   4.034   9.352  0.00  0.00    +0.000 A 
ATOM      6  N   UNL     1      44.031   4.760  10.177  0.00  0.00    +0.000 N 
ATOM      7  N   UNL     1      45.561   4.730   8.440  0.00  0.00    +0.000 NA
ATOM      8  C   UNL     1      46.390   4.046   7.610  0.00  0.00    +0.000 A 
ATOM      9  H   UNL     1      44.082   5.768  10.073  0.00  0.00    +0.000 HD
BRANCH   2  11
ATOM     10  N   UNL     1      48.229   1.497   6.052  0.00  0.00    +0.000 NA
ATOM     11  C   UNL     1      47.477   2.015   6.766  0.00  0.00    +0.000 C 
ENDBRANCH   2  11
ENDBRANCH   1   6
BRANCH   1  12
ATOM     12  C   UNL     1      43.356   4.666  12.638  0.00  0.00    +0.000 C 
ATOM     13  F   UNL     1      42.352   5.548  12.910  0.00  0.00    +0.000 F 
ATOM     14  F   UNL     1      43.172   3.627  13.507  0.00  0.00    +0.000 F 
BRANCH  12  15
ATOM     15  C   UNL     1      44.735   5.300  12.806  0.00  0.00    +0.000 A 
ATOM     16  C   UNL     1      45.827   4.508  13.198  0.00  0.00    +0.000 A 
ATOM     17  C   UNL     1      47.096   5.067  13.362  0.00  0.00    +0.000 A 
ATOM     18  C   UNL     1      47.296   6.427  13.126  0.00  0.00    +0.000 A 
ATOM     19  C   UNL     1      46.225   7.234  12.722  0.00  0.00    +0.000 A 
ATOM     20  C   UNL     1      44.952   6.669  12.563  0.00  0.00    +0.000 A 
BRANCH  19  21
ATOM     21  C   UNL     1      46.434   8.632  12.465  0.00  0.00    +0.000 C 
ATOM     22  N   UNL     1      46.603   9.756  12.245  0.00  0.00    +0.000 NA
ENDBRANCH  19  21
ENDBRANCH  12  15
ENDBRANCH   1  12
TORSDOF 5
ENDMDL
MODEL 3
REMARK VINA RESULT:    -7.255      2.592      6.198
REMARK INTER + INTRA:         -10.101
REMARK INTER:                  -9.321
REMARK INTRA:                  -0.780
REMARK UNBOUND:                -0.725
REMARK  Name = 
REMARK  5 active torsions:
REMARK  status: ('A' for Active; 'I' for Inactive)
REMARK    1  A    between atoms: C_2  and  C_3
REMARK    2  A    between atoms: N_7  and  C_8
REMARK    3  A    between atoms: C_8  and  C_9
REMARK    4  A    between atoms: C_9  and  C_12
REMARK    5  A    between atoms: C_16  and  C_17
REMARK                            x       y       z     vdW  Elec       q    Type
REMARK                         _______ _______ _______ _____ _____    ______ ____
ROOT
ATOM      1  C   UNL     1      44.673   4.148  12.278  0.00  0.00    +0.000 C 
ENDROOT
BRANCH   1   6
ATOM      2  C   UNL     1      47.485   8.419  12.208  0.00  0.00    +0.000 A 
ATOM      3  C   UNL     1      47.766   7.117  11.828  0.00  0.00    +0.000 A 
ATOM      4  C   UNL     1      46.778   6.143  11.961  0.00  0.00    +0.000 A 
ATOM      5  C   UNL     1      45.530   6.476  12.489  0.00  0.00    +0.000 A 
ATOM      6  N   UNL     1      44.529   5.552  12.662  0.00  0.00    +0.000 N 
ATOM      7  N   UNL     1      45.252   7.741  12.858  0.00  0.00    +0.000 NA
ATOM      8  C   UNL     1      46.219   8.683  12.706  0.00  0.00    +0.000 A 
ATOM      9  H   UNL     1      43.691   5.891  13.122  0.00  0.00    +0.000 HD
BRANCH   2  11
ATOM     10  N   UNL     1      49.280  10.273  12.003  0.00  0.00    +0.000 NA
ATOM     11  C   UNL     1      48.467   9.451  12.096  0.00  0.00    +0.000 C 
ENDBRANCH   2  11
ENDBRANCH   1   6
BRANCH   1  12
ATOM     12  C   UNL     1      43.837   3.688  11.058  0.00  0.00    +0.000 C 
ATOM     13  F   UNL     1      43.164   2.549  11.390  0.00  0.00    +0.000 F 
ATOM     14  F   UNL     1      42.870   4.623  10.814  0.00  0.00    +0.000 F 
BRANCH  12  15
ATOM     15  C   UNL     1      44.740   3.485   9.844  0.00  0.00    +0.000 A 
ATOM     16  C   UNL     1      45.187   4.597   9.110  0.00  0.00    +0.000 A 
ATOM     17  C   UNL     1      46.011   4.435   7.995  0.00  0.00    +0.000 A 
ATOM     18  C   UNL     1      46.410   3.159   7.600  0.00  0.00    +0.000 A 
ATOM     19  C   UNL     1      45.987   2.037   8.324  0.00  0.00    +0.000 A 
ATOM     20  C   UNL     1      45.156   2.203   9.441  0.00  0.00    +0.000 A 
BRANCH  19  21
ATOM     21  C   UNL     1      46.410   0.722   7.926  0.00  0.00    +0.000 C 
ATOM     22  N   UNL     1      46.760  -0.337   7.614  0.00  0.00    +0.000 NA
ENDBRANCH  19  21
ENDBRANCH  12  15
ENDBRANCH   1  12
TORSDOF 5
ENDMDL
MODEL 4
REMARK VINA RESULT:    -6.655      1.933      6.900
REMARK INTER + INTRA:          -9.325
REMARK INTER:                  -8.901
REMARK INTRA:                  -0.424
REMARK UNBOUND:                -0.725
REMARK  Name = 
REMARK  5 active torsions:
REMARK  status: ('A' for Active; 'I' for Inactive)
REMARK    1  A    between atoms: C_2  and  C_3
REMARK    2  A    between atoms: N_7  and  C_8
REMARK    3  A    between atoms: C_8  and  C_9
REMARK    4  A    between atoms: C_9  and  C_12
REMARK    5  A    between atoms: C_16  and  C_17
REMARK                            x       y       z     vdW  Elec       q    Type
REMARK                         _______ _______ _______ _____ _____    ______ ____
ROOT
ATOM      1  C   UNL     1      45.165   3.908  11.908  0.00  0.00    +0.000 C 
ENDROOT
BRANCH   1   6
ATOM      2  C   UNL     1      48.238   5.871  15.494  0.00  0.00    +0.000 A 
ATOM      3  C   UNL     1      47.520   4.688  15.434  0.00  0.00    +0.000 A 
ATOM      4  C   UNL     1      46.756   4.415  14.301  0.00  0.00    +0.000 A 
ATOM      5  C   UNL     1      46.703   5.334  13.251  0.00  0.00    +0.000 A 
ATOM      6  N   UNL     1      45.949   5.124  12.122  0.00  0.00    +0.000 N 
ATOM      7  N   UNL     1      47.400   6.484  13.305  0.00  0.00    +0.000 NA
ATOM      8  C   UNL     1      48.154   6.728  14.408  0.00  0.00    +0.000 A 
ATOM      9  H   UNL     1      45.927   5.891  11.459  0.00  0.00    +0.000 HD
BRANCH   2  11
ATOM     10  N   UNL     1      49.671   6.486  17.560  0.00  0.00    +0.000 NA
ATOM     11  C   UNL     1      49.031   6.198  16.637  0.00  0.00    +0.000 C 
ENDBRANCH   2  11
ENDBRANCH   1   6
BRANCH   1  12
ATOM     12  C   UNL     1      44.294   3.878  10.628  0.00  0.00    +0.000 C 
ATOM     13  F   UNL     1      43.257   3.013  10.821  0.00  0.00    +0.000 F 
ATOM     14  F   UNL     1      43.716   5.106  10.463  0.00  0.00    +0.000 F 
BRANCH  12  15
ATOM     15  C   UNL     1      45.143   3.492   9.420  0.00  0.00    +0.000 A 
ATOM     16  C   UNL     1      45.641   4.490   8.566  0.00  0.00    +0.000 A 
ATOM     17  C   UNL     1      46.417   4.159   7.453  0.00  0.00    +0.000 A 
ATOM     18  C   UNL     1      46.717   2.825   7.181  0.00  0.00    +0.000 A 
ATOM     19  C   UNL     1      46.242   1.814   8.026  0.00  0.00    +0.000 A 
ATOM     20  C   UNL     1      45.459   2.149   9.139  0.00  0.00    +0.000 A 
BRANCH  19  21
ATOM     21  C   UNL     1      46.562   0.439   7.754  0.00  0.00    +0.000 C 
ATOM     22  N   UNL     1      46.812  -0.672   7.543  0.00  0.00    +0.000 NA
ENDBRANCH  19  21
ENDBRANCH  12  15
ENDBRANCH   1  12
TORSDOF 5
ENDMDL
MODEL 5
REMARK VINA RESULT:    -6.260      3.011      6.216
REMARK INTER + INTRA:          -8.815
REMARK INTER:                  -8.100
REMARK INTRA:                  -0.715
REMARK UNBOUND:                -0.725
REMARK  Name = 
REMARK  5 active torsions:
REMARK  status: ('A' for Active; 'I' for Inactive)
REMARK    1  A    between atoms: C_2  and  C_3
REMARK    2  A    between atoms: N_7  and  C_8
REMARK    3  A    between atoms: C_8  and  C_9
REMARK    4  A    between atoms: C_9  and  C_12
REMARK    5  A    between atoms: C_16  and  C_17
REMARK                            x       y       z     vdW  Elec       q    Type
REMARK                         _______ _______ _______ _____ _____    ______ ____
ROOT
ATOM      1  C   UNL     1      44.468   5.937  12.872  0.00  0.00    +0.000 C 
ENDROOT
BRANCH   1   6
ATOM      2  C   UNL     1      48.608   8.731  11.769  0.00  0.00    +0.000 A 
ATOM      3  C   UNL     1      48.365   7.368  11.710  0.00  0.00    +0.000 A 
ATOM      4  C   UNL     1      47.110   6.886  12.077  0.00  0.00    +0.000 A 
ATOM      5  C   UNL     1      46.120   7.766  12.516  0.00  0.00    +0.000 A 
ATOM      6  N   UNL     1      44.874   7.341  12.910  0.00  0.00    +0.000 N 
ATOM      7  N   UNL     1      46.351   9.091  12.573  0.00  0.00    +0.000 NA
ATOM      8  C   UNL     1      47.573   9.548  12.196  0.00  0.00    +0.000 A 
ATOM      9  H   UNL     1      44.261   8.060  13.279  0.00  0.00    +0.000 HD
BRANCH   2  11
ATOM     10  N   UNL     1      50.913   9.697  11.098  0.00  0.00    +0.000 NA
ATOM     11  C   UNL     1      49.880   9.272  11.408  0.00  0.00    +0.000 C 
ENDBRANCH   2  11
ENDBRANCH   1   6
BRANCH   1  12
ATOM     12  C   UNL     1      43.385   5.572  11.826  0.00  0.00    +0.000 C 
ATOM     13  F   UNL     1      42.230   5.259  12.481  0.00  0.00    +0.000 F 
ATOM     14  F   UNL     1      43.095   6.686  11.090  0.00  0.00    +0.000 F 
BRANCH  12  15
ATOM     15  C   UNL     1      43.869   4.426  10.942  0.00  0.00    +0.000 A 
ATOM     16  C   UNL     1      43.523   3.102  11.259  0.00  0.00    +0.000 A 
ATOM     17  C   UNL     1      43.957   2.037  10.466  0.00  0.00    +0.000 A 
ATOM     18  C   UNL     1      44.738   2.280   9.337  0.00  0.00    +0.000 A 
ATOM     19  C   UNL     1      45.084   3.593   8.993  0.00  0.00    +0.000 A 
ATOM     20  C   UNL     1      44.650   4.658   9.794  0.00  0.00    +0.000 A 
BRANCH  19  21
ATOM     21  C   UNL     1      45.876   3.845   7.821  0.00  0.00    +0.000 C 
ATOM     22  N   UNL     1      46.509   4.037   6.870  0.00  0.00    +0.000 NA
ENDBRANCH  19  21
ENDBRANCH  12  15
ENDBRANCH   1  12
TORSDOF 5
ENDMDL
MODEL 6
REMARK VINA RESULT:    -6.034      1.965      7.204
REMARK INTER + INTRA:          -8.522
REMARK INTER:                  -8.169
REMARK INTRA:                  -0.353
REMARK UNBOUND:                -0.725
REMARK  Name = 
REMARK  5 active torsions:
REMARK  status: ('A' for Active; 'I' for Inactive)
REMARK    1  A    between atoms: C_2  and  C_3
REMARK    2  A    between atoms: N_7  and  C_8
REMARK    3  A    between atoms: C_8  and  C_9
REMARK    4  A    between atoms: C_9  and  C_12
REMARK    5  A    between atoms: C_16  and  C_17
REMARK                            x       y       z     vdW  Elec       q    Type
REMARK                         _______ _______ _______ _____ _____    ______ ____
ROOT
ATOM      1  C   UNL     1      46.327   5.949  12.639  0.00  0.00    +0.000 C 
ENDROOT
BRANCH   1   6
ATOM      2  C   UNL     1      48.572   4.634  17.043  0.00  0.00    +0.000 A 
ATOM      3  C   UNL     1      48.604   5.801  16.297  0.00  0.00    +0.000 A 
ATOM      4  C   UNL     1      47.871   5.871  15.113  0.00  0.00    +0.000 A 
ATOM      5  C   UNL     1      47.131   4.770  14.680  0.00  0.00    +0.000 A 
ATOM      6  N   UNL     1      46.409   4.778  13.511  0.00  0.00    +0.000 N 
ATOM      7  N   UNL     1      47.095   3.635  15.402  0.00  0.00    +0.000 NA
ATOM      8  C   UNL     1      47.801   3.588  16.562  0.00  0.00    +0.000 A 
ATOM      9  H   UNL     1      45.970   3.899  13.259  0.00  0.00    +0.000 HD
BRANCH   2  11
ATOM     10  N   UNL     1      49.929   4.407  19.234  0.00  0.00    +0.000 NA
ATOM     11  C   UNL     1      49.311   4.513  18.259  0.00  0.00    +0.000 C 
ENDBRANCH   2  11
ENDBRANCH   1   6
BRANCH   1  12
ATOM     12  C   UNL     1      45.032   6.081  11.799  0.00  0.00    +0.000 C 
ATOM     13  F   UNL     1      43.968   6.196  12.646  0.00  0.00    +0.000 F 
ATOM     14  F   UNL     1      45.076   7.261  11.110  0.00  0.00    +0.000 F 
BRANCH  12  15
ATOM     15  C   UNL     1      44.888   4.888  10.859  0.00  0.00    +0.000 A 
ATOM     16  C   UNL     1      44.110   3.783  11.243  0.00  0.00    +0.000 A 
ATOM     17  C   UNL     1      43.967   2.679  10.401  0.00  0.00    +0.000 A 
ATOM     18  C   UNL     1      44.592   2.665   9.154  0.00  0.00    +0.000 A 
ATOM     19  C   UNL     1      45.362   3.761   8.744  0.00  0.00    +0.000 A 
ATOM     20  C   UNL     1      45.507   4.866   9.595  0.00  0.00    +0.000 A 
BRANCH  19  21
ATOM     21  C   UNL     1      45.994   3.753   7.454  0.00  0.00    +0.000 C 
ATOM     22  N   UNL     1      46.514   3.740   6.419  0.00  0.00    +0.000 NA
ENDBRANCH  19  21
ENDBRANCH  12  15
ENDBRANCH   1  12
TORSDOF 5
ENDMDL
MODEL 7
REMARK VINA RESULT:    -5.937      2.440      6.857
REMARK INTER + INTRA:          -8.397
REMARK INTER:                  -7.707
REMARK INTRA:                  -0.690
REMARK UNBOUND:                -0.725
REMARK  Name = 
REMARK  5 active torsions:
REMARK  status: ('A' for Active; 'I' for Inactive)
REMARK    1  A    between atoms: C_2  and  C_3
REMARK    2  A    between atoms: N_7  and  C_8
REMARK    3  A    between atoms: C_8  and  C_9
REMARK    4  A    between atoms: C_9  and  C_12
REMARK    5  A    between atoms: C_16  and  C_17
REMARK                            x       y       z     vdW  Elec       q    Type
REMARK                         _______ _______ _______ _____ _____    ______ ____
ROOT
ATOM      1  C   UNL     1      47.031   6.892  11.885  0.00  0.00    +0.000 C 
ENDROOT
BRANCH   1   6
ATOM      2  C   UNL     1      48.063   4.727  16.403  0.00  0.00    +0.000 A 
ATOM      3  C   UNL     1      47.279   4.320  15.336  0.00  0.00    +0.000 A 
ATOM      4  C   UNL     1      47.189   5.135  14.209  0.00  0.00    +0.000 A 
ATOM      5  C   UNL     1      47.867   6.354  14.168  0.00  0.00    +0.000 A 
ATOM      6  N   UNL     1      47.796   7.204  13.092  0.00  0.00    +0.000 N 
ATOM      7  N   UNL     1      48.632   6.753  15.202  0.00  0.00    +0.000 NA
ATOM      8  C   UNL     1      48.723   5.940  16.286  0.00  0.00    +0.000 A 
ATOM      9  H   UNL     1      48.269   8.095  13.202  0.00  0.00    +0.000 HD
BRANCH   2  11
ATOM     10  N   UNL     1      48.269   3.298  18.550  0.00  0.00    +0.000 NA
ATOM     11  C   UNL     1      48.182   3.929  17.582  0.00  0.00    +0.000 C 
ENDBRANCH   2  11
ENDBRANCH   1   6
BRANCH   1  12
ATOM     12  C   UNL     1      45.499   7.103  11.978  0.00  0.00    +0.000 C 
ATOM     13  F   UNL     1      45.216   7.765  13.136  0.00  0.00    +0.000 F 
ATOM     14  F   UNL     1      45.113   7.946  10.974  0.00  0.00    +0.000 F 
BRANCH  12  15
ATOM     15  C   UNL     1      44.775   5.762  11.894  0.00  0.00    +0.000 A 
ATOM     16  C   UNL     1      43.766   5.452  12.821  0.00  0.00    +0.000 A 
ATOM     17  C   UNL     1      43.092   4.231  12.766  0.00  0.00    +0.000 A 
ATOM     18  C   UNL     1      43.409   3.302  11.776  0.00  0.00    +0.000 A 
ATOM     19  C   UNL     1      44.402   3.594  10.833  0.00  0.00    +0.000 A 
ATOM     20  C   UNL     1      45.080   4.820  10.895  0.00  0.00    +0.000 A 
BRANCH  19  21
ATOM     21  C   UNL     1      44.719   2.642   9.803  0.00  0.00    +0.000 C 
ATOM     22  N   UNL     1      44.988   1.878   8.976  0.00  0.00    +0.000 NA
ENDBRANCH  19  21
ENDBRANCH  12  15
ENDBRANCH   1  12
TORSDOF 5
ENDMDL
MODEL 8
REMARK VINA RESULT:    -5.692      2.673      7.573
REMARK INTER + INTRA:          -8.080
REMARK INTER:                  -7.524
REMARK INTRA:                  -0.556
REMARK UNBOUND:                -0.725
REMARK  Name = 
REMARK  5 active torsions:
REMARK  status: ('A' for Active; 'I' for Inactive)
REMARK    1  A    between atoms: C_2  and  C_3
REMARK    2  A    between atoms: N_7  and  C_8
REMARK    3  A    between atoms: C_8  and  C_9
REMARK    4  A    between atoms: C_9  and  C_12
REMARK    5  A    between atoms: C_16  and  C_17
REMARK                            x       y       z     vdW  Elec       q    Type
REMARK                         _______ _______ _______ _____ _____    ______ ____
ROOT
ATOM      1  C   UNL     1      46.862   6.801  11.769  0.00  0.00    +0.000 C 
ENDROOT
BRANCH   1   6
ATOM      2  C   UNL     1      48.966   7.971  16.281  0.00  0.00    +0.000 A 
ATOM      3  C   UNL     1      48.375   8.753  15.302  0.00  0.00    +0.000 A 
ATOM      4  C   UNL     1      47.875   8.140  14.154  0.00  0.00    +0.000 A 
ATOM      5  C   UNL     1      47.989   6.759  13.989  0.00  0.00    +0.000 A 
ATOM      6  N   UNL     1      47.533   6.108  12.868  0.00  0.00    +0.000 N 
ATOM      7  N   UNL     1      48.561   5.996  14.939  0.00  0.00    +0.000 NA
ATOM      8  C   UNL     1      49.028   6.605  16.059  0.00  0.00    +0.000 A 
ATOM      9  H   UNL     1      47.735   5.115  12.824  0.00  0.00    +0.000 HD
BRANCH   2  11
ATOM     10  N   UNL     1      49.910   9.022  18.450  0.00  0.00    +0.000 NA
ATOM     11  C   UNL     1      49.498   8.554  17.472  0.00  0.00    +0.000 C 
ENDBRANCH   2  11
ENDBRANCH   1   6
BRANCH   1  12
ATOM     12  C   UNL     1      45.336   6.562  11.647  0.00  0.00    +0.000 C 
ATOM     13  F   UNL     1      44.801   6.487  12.900  0.00  0.00    +0.000 F 
ATOM     14  F   UNL     1      44.766   7.664  11.074  0.00  0.00    +0.000 F 
BRANCH  12  15
ATOM     15  C   UNL     1      45.062   5.300  10.833  0.00  0.00    +0.000 A 
ATOM     16  C   UNL     1      44.222   4.301  11.351  0.00  0.00    +0.000 A 
ATOM     17  C   UNL     1      43.959   3.137  10.625  0.00  0.00    +0.000 A 
ATOM     18  C   UNL     1      44.525   2.958   9.364  0.00  0.00    +0.000 A 
ATOM     19  C   UNL     1      45.355   3.947   8.821  0.00  0.00    +0.000 A 
ATOM     20  C   UNL     1      45.620   5.112   9.555  0.00  0.00    +0.000 A 
BRANCH  19  21
ATOM     21  C   UNL     1      45.926   3.769   7.514  0.00  0.00    +0.000 C 
ATOM     22  N   UNL     1      46.398   3.625   6.467  0.00  0.00    +0.000 NA
ENDBRANCH  19  21
ENDBRANCH  12  15
ENDBRANCH   1  12
TORSDOF 5
ENDMDL
MODEL 9
REMARK VINA RESULT:    -5.586      4.148      6.056
REMARK INTER + INTRA:          -7.943
REMARK INTER:                  -7.172
REMARK INTRA:                  -0.771
REMARK UNBOUND:                -0.725
REMARK  Name = 
REMARK  5 active torsions:
REMARK  status: ('A' for Active; 'I' for Inactive)
REMARK    1  A    between atoms: C_2  and  C_3
REMARK    2  A    between atoms: N_7  and  C_8
REMARK    3  A    between atoms: C_8  and  C_9
REMARK    4  A    between atoms: C_9  and  C_12
REMARK    5  A    between atoms: C_16  and  C_17
REMARK                            x       y       z     vdW  Elec       q    Type
REMARK                         _______ _______ _______ _____ _____    ______ ____
ROOT
ATOM      1  C   UNL     1      48.598   7.307  13.859  0.00  0.00    +0.000 C 
ENDROOT
BRANCH   1   6
ATOM      2  C   UNL     1      44.691   4.321  12.453  0.00  0.00    +0.000 A 
ATOM      3  C   UNL     1      46.034   4.054  12.664  0.00  0.00    +0.000 A 
ATOM      4  C   UNL     1      46.878   5.091  13.055  0.00  0.00    +0.000 A 
ATOM      5  C   UNL     1      46.377   6.384  13.212  0.00  0.00    +0.000 A 
ATOM      6  N   UNL     1      47.170   7.446  13.575  0.00  0.00    +0.000 N 
ATOM      7  N   UNL     1      45.073   6.648  13.010  0.00  0.00    +0.000 NA
ATOM      8  C   UNL     1      44.259   5.624  12.646  0.00  0.00    +0.000 A 
ATOM      9  H   UNL     1      46.714   8.352  13.586  0.00  0.00    +0.000 HD
BRANCH   2  11
ATOM     10  N   UNL     1      43.050   2.452  11.737  0.00  0.00    +0.000 NA
ATOM     11  C   UNL     1      43.787   3.292  12.046  0.00  0.00    +0.000 C 
ENDBRANCH   2  11
ENDBRANCH   1   6
BRANCH   1  12
ATOM     12  C   UNL     1      49.046   7.691  15.291  0.00  0.00    +0.000 C 
ATOM     13  F   UNL     1      50.136   8.507  15.207  0.00  0.00    +0.000 F 
ATOM     14  F   UNL     1      48.067   8.452  15.865  0.00  0.00    +0.000 F 
BRANCH  12  15
ATOM     15  C   UNL     1      49.334   6.436  16.110  0.00  0.00    +0.000 A 
ATOM     16  C   UNL     1      50.625   6.209  16.614  0.00  0.00    +0.000 A 
ATOM     17  C   UNL     1      50.912   5.066  17.363  0.00  0.00    +0.000 A 
ATOM     18  C   UNL     1      49.909   4.134  17.628  0.00  0.00    +0.000 A 
ATOM     19  C   UNL     1      48.611   4.346  17.147  0.00  0.00    +0.000 A 
ATOM     20  C   UNL     1      48.328   5.492  16.391  0.00  0.00    +0.000 A 
BRANCH  19  21
ATOM     21  C   UNL     1      47.573   3.393  17.432  0.00  0.00    +0.000 C 
ATOM     22  N   UNL     1      46.744   2.622  17.674  0.00  0.00    +0.000 NA
ENDBRANCH  19  21
ENDBRANCH  12  15
ENDBRANCH   1  12
TORSDOF 5
ENDMDL
