MODEL 1
REMARK VINA RESULT:    -6.555      0.000      0.000
REMARK INTER + INTRA:          -8.440
REMARK INTER:                  -8.088
REMARK INTRA:                  -0.352
REMARK UNBOUND:                -0.352
REMARK  Name = 
REMARK  4 active torsions:
REMARK  status: ('A' for Active; 'I' for Inactive)
REMARK    1  A    between atoms: C_1  and  C_14
REMARK    2  A    between atoms: C_2  and  C_3
REMARK    3  A    between atoms: C_7  and  N_8
REMARK    4  A    between atoms: N_8  and  C_9
REMARK                            x       y       z     vdW  Elec       q    Type
REMARK                         _______ _______ _______ _____ _____    ______ ____
ROOT
ATOM      1  C   UNL     1      45.146   4.784  12.798  0.00  0.00    +0.000 A 
ATOM      2  C   UNL     1      43.790   4.975  13.057  0.00  0.00    +0.000 A 
ATOM      3  C   UNL     1      42.905   5.154  11.995  0.00  0.00    +0.000 A 
ATOM      4  C   UNL     1      43.373   5.130  10.676  0.00  0.00    +0.000 A 
ATOM      5  C   UNL     1      44.731   4.953  10.403  0.00  0.00    +0.000 A 
ATOM      6  C   UNL     1      45.609   4.768  11.478  0.00  0.00    +0.000 A 
ENDROOT
BRANCH   1   8
ATOM      7  C   UNL     1      46.796   4.540  14.828  0.00  0.00    +0.000 C 
ATOM      8  C   UNL     1      46.077   4.642  13.873  0.00  0.00    +0.000 C 
BRANCH   7   9
ATOM      9  C   UNL     1      47.583   4.442  16.017  0.00  0.00    +0.000 A 
ATOM     10  C   UNL     1      47.546   3.277  16.777  0.00  0.00    +0.000 A 
ATOM     11  C   UNL     1      48.358   3.207  17.895  0.00  0.00    +0.000 A 
ATOM     12  N   UNL     1      49.178   4.205  18.290  0.00  0.00    +0.000 NA
ATOM     13  C   UNL     1      49.187   5.323  17.534  0.00  0.00    +0.000 A 
ATOM     14  C   UNL     1      48.414   5.492  16.397  0.00  0.00    +0.000 A 
ENDBRANCH   7   9
ENDBRANCH   1   8
BRANCH   5  15
ATOM     15  N   UNL     1      45.233   4.835   9.099  0.00  0.00    +0.000 N 
ATOM     16  H   UNL     1      45.738   5.647   8.755  0.00  0.00    +0.000 HD
BRANCH  15  17
ATOM     17  C   UNL     1      45.056   3.748   8.183  0.00  0.00    +0.000 C 
ATOM     18  C   UNL     1      45.257   2.378   8.846  0.00  0.00    +0.000 C 
ATOM     19  O   UNL     1      46.291   2.022   7.895  0.00  0.00    +0.000 OA
ATOM     20  C   UNL     1      46.300   3.375   7.373  0.00  0.00    +0.000 C 
ENDBRANCH  15  17
ENDBRANCH   5  15
TORSDOF 4
ENDMDL
MODEL 2
REMARK VINA RESULT:    -6.400      3.554      7.583
REMARK INTER + INTRA:          -8.249
REMARK INTER:                  -7.868
REMARK INTRA:                  -0.381
REMARK UNBOUND:                -0.352
REMARK  Name = 
REMARK  4 active torsions:
REMARK  status: ('A' for Active; 'I' for Inactive)
REMARK    1  A    between atoms: C_1  and  C_14
REMARK    2  A    between atoms: C_2  and  C_3
REMARK    3  A    between atoms: C_7  and  N_8
REMARK    4  A    between atoms: N_8  and  C_9
REMARK                            x       y       z     vdW  Elec       q    Type
REMARK                         _______ _______ _______ _____ _____    ______ ____
ROOT
ATOM      1  C   UNL     1      44.509   4.731  10.624  0.00  0.00    +0.000 A 
ATOM      2  C   UNL     1      43.172   4.534  10.966  0.00  0.00    +0.000 A 
ATOM      3  C   UNL     1      42.653   5.155  12.101  0.00  0.00    +0.000 A 
ATOM      4  C   UNL     1      43.465   5.982  12.885  0.00  0.00    +0.000 A 
ATOM      5  C   UNL     1      44.810   6.177  12.561  0.00  0.00    +0.000 A 
ATOM      6  C   UNL     1      45.318   5.553  11.416  0.00  0.00    +0.000 A 
ENDROOT
BRANCH   1   8
ATOM      7  C   UNL     1      45.617   3.504   8.583  0.00  0.00    +0.000 C 
ATOM      8  C   UNL     1      45.074   4.069   9.490  0.00  0.00    +0.000 C 
BRANCH   7   9
ATOM      9  C   UNL     1      46.340   2.825   7.552  0.00  0.00    +0.000 A 
ATOM     10  C   UNL     1      46.668   3.497   6.379  0.00  0.00    +0.000 A 
ATOM     11  C   UNL     1      47.406   2.816   5.427  0.00  0.00    +0.000 A 
ATOM     12  N   UNL     1      47.821   1.540   5.573  0.00  0.00    +0.000 NA
ATOM     13  C   UNL     1      47.483   0.914   6.720  0.00  0.00    +0.000 A 
ATOM     14  C   UNL     1      46.749   1.507   7.734  0.00  0.00    +0.000 A 
ENDBRANCH   7   9
ENDBRANCH   1   8
BRANCH   5  15
ATOM     15  N   UNL     1      45.638   7.064  13.266  0.00  0.00    +0.000 N 
ATOM     16  H   UNL     1      45.162   7.650  13.946  0.00  0.00    +0.000 HD
BRANCH  15  17
ATOM     17  C   UNL     1      47.041   7.286  13.089  0.00  0.00    +0.000 C 
ATOM     18  C   UNL     1      47.900   6.389  13.993  0.00  0.00    +0.000 C 
ATOM     19  O   UNL     1      48.558   7.539  14.581  0.00  0.00    +0.000 OA
ATOM     20  C   UNL     1      47.624   8.432  13.920  0.00  0.00    +0.000 C 
ENDBRANCH  15  17
ENDBRANCH   5  15
TORSDOF 4
ENDMDL
MODEL 3
REMARK VINA RESULT:    -6.185      3.110      3.670
REMARK INTER + INTRA:          -7.984
REMARK INTER:                  -7.671
REMARK INTRA:                  -0.312
REMARK UNBOUND:                -0.352
REMARK  Name = 
REMARK  4 active torsions:
REMARK  status: ('A' for Active; 'I' for Inactive)
REMARK    1  A    between atoms: C_1  and  C_14
REMARK    2  A    between atoms: C_2  and  C_3
REMARK    3  A    between atoms: C_7  and  N_8
REMARK    4  A    between atoms: N_8  and  C_9
REMARK                            x       y       z     vdW  Elec       q    Type
REMARK                         _______ _______ _______ _____ _____    ______ ____
ROOT
ATOM      1  C   UNL     1      45.718   5.513  11.942  0.00  0.00    +0.000 A 
ATOM      2  C   UNL     1      44.806   5.113  12.918  0.00  0.00    +0.000 A 
ATOM      3  C   UNL     1      43.619   4.490  12.537  0.00  0.00    +0.000 A 
ATOM      4  C   UNL     1      43.350   4.256  11.183  0.00  0.00    +0.000 A 
ATOM      5  C   UNL     1      44.249   4.664  10.195  0.00  0.00    +0.000 A 
ATOM      6  C   UNL     1      45.440   5.282  10.591  0.00  0.00    +0.000 A 
ENDROOT
BRANCH   1   8
ATOM      7  C   UNL     1      47.967   6.730  12.546  0.00  0.00    +0.000 C 
ATOM      8  C   UNL     1      46.922   6.192  12.308  0.00  0.00    +0.000 C 
BRANCH   7   9
ATOM      9  C   UNL     1      49.247   7.331  12.757  0.00  0.00    +0.000 A 
ATOM     10  C   UNL     1      50.003   7.751  11.668  0.00  0.00    +0.000 A 
ATOM     11  C   UNL     1      51.215   8.368  11.920  0.00  0.00    +0.000 A 
ATOM     12  N   UNL     1      51.704   8.582  13.160  0.00  0.00    +0.000 NA
ATOM     13  C   UNL     1      50.949   8.160  14.196  0.00  0.00    +0.000 A 
ATOM     14  C   UNL     1      49.722   7.532  14.050  0.00  0.00    +0.000 A 
ENDBRANCH   7   9
ENDBRANCH   1   8
BRANCH   5  15
ATOM     15  N   UNL     1      44.062   4.373   8.836  0.00  0.00    +0.000 N 
ATOM     16  H   UNL     1      43.511   5.054   8.320  0.00  0.00    +0.000 HD
BRANCH  15  17
ATOM     17  C   UNL     1      44.490   3.210   8.117  0.00  0.00    +0.000 C 
ATOM     18  C   UNL     1      45.128   2.153   9.031  0.00  0.00    +0.000 C 
ATOM     19  O   UNL     1      46.351   2.158   8.253  0.00  0.00    +0.000 OA
ATOM     20  C   UNL     1      45.888   3.309   7.500  0.00  0.00    +0.000 C 
ENDBRANCH  15  17
ENDBRANCH   5  15
TORSDOF 4
ENDMDL
MODEL 4
REMARK VINA RESULT:    -6.060      3.847      4.608
REMARK INTER + INTRA:          -7.829
REMARK INTER:                  -7.619
REMARK INTRA:                  -0.210
REMARK UNBOUND:                -0.352
REMARK  Name = 
REMARK  4 active torsions:
REMARK  status: ('A' for Active; 'I' for Inactive)
REMARK    1  A    between atoms: C_1  and  C_14
REMARK    2  A    between atoms: C_2  and  C_3
REMARK    3  A    between atoms: C_7  and  N_8
REMARK    4  A    between atoms: N_8  and  C_9
REMARK                            x       y       z     vdW  Elec       q    Type
REMARK                         _______ _______ _______ _____ _____    ______ ____
ROOT
ATOM      1  C   UNL     1      45.470   5.683  12.093  0.00  0.00    +0.000 A 
ATOM      2  C   UNL     1      44.343   5.943  12.872  0.00  0.00    +0.000 A 
ATOM      3  C   UNL     1      43.277   5.045  12.861  0.00  0.00    +0.000 A 
ATOM      4  C   UNL     1      43.342   3.883  12.083  0.00  0.00    +0.000 A 
ATOM      5  C   UNL     1      44.459   3.619  11.287  0.00  0.00    +0.000 A 
ATOM      6  C   UNL     1      45.525   4.524  11.311  0.00  0.00    +0.000 A 
ENDROOT
BRANCH   1   8
ATOM      7  C   UNL     1      47.492   7.354  11.952  0.00  0.00    +0.000 C 
ATOM      8  C   UNL     1      46.556   6.612  12.055  0.00  0.00    +0.000 C 
BRANCH   7   9
ATOM      9  C   UNL     1      48.632   8.195  11.756  0.00  0.00    +0.000 A 
ATOM     10  C   UNL     1      48.475   9.576  11.714  0.00  0.00    +0.000 A 
ATOM     11  C   UNL     1      49.610  10.353  11.568  0.00  0.00    +0.000 A 
ATOM     12  N   UNL     1      50.856   9.846  11.460  0.00  0.00    +0.000 NA
ATOM     13  C   UNL     1      50.975   8.503  11.500  0.00  0.00    +0.000 A 
ATOM     14  C   UNL     1      49.903   7.638  11.644  0.00  0.00    +0.000 A 
ENDBRANCH   7   9
ENDBRANCH   1   8
BRANCH   5  15
ATOM     15  N   UNL     1      44.605   2.428  10.559  0.00  0.00    +0.000 N 
ATOM     16  H   UNL     1      44.869   1.616  11.110  0.00  0.00    +0.000 HD
BRANCH  15  17
ATOM     17  C   UNL     1      44.497   2.243   9.143  0.00  0.00    +0.000 C 
ATOM     18  C   UNL     1      45.806   1.746   8.511  0.00  0.00    +0.000 C 
ATOM     19  O   UNL     1      45.844   2.873   7.602  0.00  0.00    +0.000 OA
ATOM     20  C   UNL     1      44.742   3.501   8.306  0.00  0.00    +0.000 C 
ENDBRANCH  15  17
ENDBRANCH   5  15
TORSDOF 4
ENDMDL
MODEL 5
REMARK VINA RESULT:    -6.010      4.930      7.591
REMARK INTER + INTRA:          -7.768
REMARK INTER:                  -7.371
REMARK INTRA:                  -0.396
REMARK UNBOUND:                -0.352
REMARK  Name = 
REMARK  4 active torsions:
REMARK  status: ('A' for Active; 'I' for Inactive)
REMARK    1  A    between atoms: C_1  and  C_14
REMARK    2  A    between atoms: C_2  and  C_3
REMARK    3  A    between atoms: C_7  and  N_8
REMARK    4  A    between atoms: N_8  and  C_9
REMARK                            x       y       z     vdW  Elec       q    Type
REMARK                         _______ _______ _______ _____ _____    ______ ____
ROOT
ATOM      1  C   UNL     1      44.337   4.647  10.571  0.00  0.00    +0.000 A 
ATOM      2  C   UNL     1      43.324   4.039  11.311  0.00  0.00    +0.000 A 
ATOM      3  C   UNL     1      42.755   4.718  12.387  0.00  0.00    +0.000 A 
ATOM      4  C   UNL     1      43.189   6.008  12.714  0.00  0.00    +0.000 A 
ATOM      5  C   UNL     1      44.212   6.623  11.989  0.00  0.00    +0.000 A 
ATOM      6  C   UNL     1      44.771   5.933  10.908  0.00  0.00    +0.000 A 
ENDROOT
BRANCH   1   8
ATOM      7  C   UNL     1      45.563   3.403   8.608  0.00  0.00    +0.000 C 
ATOM      8  C   UNL     1      44.964   3.951   9.491  0.00  0.00    +0.000 C 
BRANCH   7   9
ATOM      9  C   UNL     1      46.351   2.792   7.583  0.00  0.00    +0.000 A 
ATOM     10  C   UNL     1      46.784   1.479   7.733  0.00  0.00    +0.000 A 
ATOM     11  C   UNL     1      47.505   0.912   6.697  0.00  0.00    +0.000 A 
ATOM     12  N   UNL     1      47.814   1.563   5.555  0.00  0.00    +0.000 NA
ATOM     13  C   UNL     1      47.383   2.837   5.442  0.00  0.00    +0.000 A 
ATOM     14  C   UNL     1      46.654   3.494   6.420  0.00  0.00    +0.000 A 
ENDBRANCH   7   9
ENDBRANCH   1   8
BRANCH   5  15
ATOM     15  N   UNL     1      44.619   7.944  12.226  0.00  0.00    +0.000 N 
ATOM     16  H   UNL     1      44.868   8.154  13.188  0.00  0.00    +0.000 HD
BRANCH  15  17
ATOM     17  C   UNL     1      44.653   9.034  11.297  0.00  0.00    +0.000 C 
ATOM     18  C   UNL     1      44.517  10.401  11.985  0.00  0.00    +0.000 C 
ATOM     19  O   UNL     1      43.360  10.738  11.180  0.00  0.00    +0.000 OA
ATOM     20  C   UNL     1      43.305   9.385  10.660  0.00  0.00    +0.000 C 
ENDBRANCH  15  17
ENDBRANCH   5  15
TORSDOF 4
ENDMDL
MODEL 6
REMARK VINA RESULT:    -5.651      3.074      3.890
REMARK INTER + INTRA:          -7.325
REMARK INTER:                  -7.168
REMARK INTRA:                  -0.156
REMARK UNBOUND:                -0.352
REMARK  Name = 
REMARK  4 active torsions:
REMARK  status: ('A' for Active; 'I' for Inactive)
REMARK    1  A    between atoms: C_1  and  C_14
REMARK    2  A    between atoms: C_2  and  C_3
REMARK    3  A    between atoms: C_7  and  N_8
REMARK    4  A    between atoms: N_8  and  C_9
REMARK                            x       y       z     vdW  Elec       q    Type
REMARK                         _______ _______ _______ _____ _____    ______ ____
ROOT
ATOM      1  C   UNL     1      45.579   4.783  13.044  0.00  0.00    +0.000 A 
ATOM      2  C   UNL     1      45.231   3.686  12.257  0.00  0.00    +0.000 A 
ATOM      3  C   UNL     1      44.355   3.856  11.186  0.00  0.00    +0.000 A 
ATOM      4  C   UNL     1      43.838   5.123  10.894  0.00  0.00    +0.000 A 
ATOM      5  C   UNL     1      44.167   6.228  11.683  0.00  0.00    +0.000 A 
ATOM      6  C   UNL     1      45.052   6.045  12.751  0.00  0.00    +0.000 A 
ENDROOT
BRANCH   1   8
ATOM      7  C   UNL     1      47.096   4.492  15.169  0.00  0.00    +0.000 C 
ATOM      8  C   UNL     1      46.441   4.623  14.173  0.00  0.00    +0.000 C 
BRANCH   7   9
ATOM      9  C   UNL     1      47.801   4.342  16.403  0.00  0.00    +0.000 A 
ATOM     10  C   UNL     1      47.573   3.225  17.200  0.00  0.00    +0.000 A 
ATOM     11  C   UNL     1      48.310   3.098  18.364  0.00  0.00    +0.000 A 
ATOM     12  N   UNL     1      49.233   3.997  18.769  0.00  0.00    +0.000 NA
ATOM     13  C   UNL     1      49.428   5.071  17.976  0.00  0.00    +0.000 A 
ATOM     14  C   UNL     1      48.744   5.290  16.792  0.00  0.00    +0.000 A 
ENDBRANCH   7   9
ENDBRANCH   1   8
BRANCH   5  15
ATOM     15  N   UNL     1      43.742   7.529  11.377  0.00  0.00    +0.000 N 
ATOM     16  H   UNL     1      42.743   7.633  11.226  0.00  0.00    +0.000 HD
BRANCH  15  17
ATOM     17  C   UNL     1      44.550   8.697  11.186  0.00  0.00    +0.000 C 
ATOM     18  C   UNL     1      44.971   9.348  12.511  0.00  0.00    +0.000 C 
ATOM     19  O   UNL     1      44.382  10.614  12.126  0.00  0.00    +0.000 OA
ATOM     20  C   UNL     1      43.769   9.995  10.965  0.00  0.00    +0.000 C 
ENDBRANCH  15  17
ENDBRANCH   5  15
TORSDOF 4
ENDMDL
MODEL 7
REMARK VINA RESULT:    -5.340      3.591      8.352
REMARK INTER + INTRA:          -6.940
REMARK INTER:                  -6.582
REMARK INTRA:                  -0.358
REMARK UNBOUND:                -0.352
REMARK  Name = 
REMARK  4 active torsions:
REMARK  status: ('A' for Active; 'I' for Inactive)
REMARK    1  A    between atoms: C_1  and  C_14
REMARK    2  A    between atoms: C_2  and  C_3
REMARK    3  A    between atoms: C_7  and  N_8
REMARK    4  A    between atoms: N_8  and  C_9
REMARK                            x       y       z     vdW  Elec       q    Type
REMARK                         _______ _______ _______ _____ _____    ______ ____
ROOT
ATOM      1  C   UNL     1      47.780   4.187  16.429  0.00  0.00    +0.000 A 
ATOM      2  C   UNL     1      47.512   5.102  17.446  0.00  0.00    +0.000 A 
ATOM      3  C   UNL     1      48.162   4.979  18.672  0.00  0.00    +0.000 A 
ATOM      4  C   UNL     1      49.090   3.951  18.877  0.00  0.00    +0.000 A 
ATOM      5  C   UNL     1      49.358   3.020  17.872  0.00  0.00    +0.000 A 
ATOM      6  C   UNL     1      48.703   3.158  16.643  0.00  0.00    +0.000 A 
ENDROOT
BRANCH   1   8
ATOM      7  C   UNL     1      46.571   4.394  14.106  0.00  0.00    +0.000 C 
ATOM      8  C   UNL     1      47.092   4.268  15.179  0.00  0.00    +0.000 C 
BRANCH   7   9
ATOM      9  C   UNL     1      46.009   4.608  12.809  0.00  0.00    +0.000 A 
ATOM     10  C   UNL     1      45.193   3.637  12.239  0.00  0.00    +0.000 A 
ATOM     11  C   UNL     1      44.634   3.904  11.002  0.00  0.00    +0.000 A 
ATOM     12  N   UNL     1      44.840   5.050  10.318  0.00  0.00    +0.000 NA
ATOM     13  C   UNL     1      45.640   5.970  10.895  0.00  0.00    +0.000 A 
ATOM     14  C   UNL     1      46.246   5.800  12.130  0.00  0.00    +0.000 A 
ENDBRANCH   7   9
ENDBRANCH   1   8
BRANCH   5  15
ATOM     15  N   UNL     1      50.341   2.027  18.001  0.00  0.00    +0.000 N 
ATOM     16  H   UNL     1      50.070   1.222  18.558  0.00  0.00    +0.000 HD
BRANCH  15  17
ATOM     17  C   UNL     1      51.685   2.050  17.508  0.00  0.00    +0.000 C 
ATOM     18  C   UNL     1      52.453   0.759  17.827  0.00  0.00    +0.000 C 
ATOM     19  O   UNL     1      53.493   1.497  18.515  0.00  0.00    +0.000 OA
ATOM     20  C   UNL     1      52.705   2.713  18.438  0.00  0.00    +0.000 C 
ENDBRANCH  15  17
ENDBRANCH   5  15
TORSDOF 4
ENDMDL
MODEL 8
REMARK VINA RESULT:    -5.209      5.197      6.086
REMARK INTER + INTRA:          -6.779
REMARK INTER:                  -6.432
REMARK INTRA:                  -0.348
REMARK UNBOUND:                -0.352
REMARK  Name = 
REMARK  4 active torsions:
REMARK  status: ('A' for Active; 'I' for Inactive)
REMARK    1  A    between atoms: C_1  and  C_14
REMARK    2  A    between atoms: C_2  and  C_3
REMARK    3  A    between atoms: C_7  and  N_8
REMARK    4  A    between atoms: N_8  and  C_9
REMARK                            x       y       z     vdW  Elec       q    Type
REMARK                         _______ _______ _______ _____ _____    ______ ____
ROOT
ATOM      1  C   UNL     1      47.517   7.238  12.164  0.00  0.00    +0.000 A 
ATOM      2  C   UNL     1      46.604   8.290  12.218  0.00  0.00    +0.000 A 
ATOM      3  C   UNL     1      45.274   8.031  12.546  0.00  0.00    +0.000 A 
ATOM      4  C   UNL     1      44.861   6.724  12.832  0.00  0.00    +0.000 A 
ATOM      5  C   UNL     1      45.763   5.660  12.767  0.00  0.00    +0.000 A 
ATOM      6  C   UNL     1      47.096   5.934  12.443  0.00  0.00    +0.000 A 
ENDROOT
BRANCH   1   8
ATOM      7  C   UNL     1      49.993   7.752  11.449  0.00  0.00    +0.000 C 
ATOM      8  C   UNL     1      48.876   7.475  11.787  0.00  0.00    +0.000 C 
BRANCH   7   9
ATOM      9  C   UNL     1      51.294   8.161  11.020  0.00  0.00    +0.000 A 
ATOM     10  C   UNL     1      51.791   9.402  11.404  0.00  0.00    +0.000 A 
ATOM     11  C   UNL     1      53.071   9.739  11.004  0.00  0.00    +0.000 A 
ATOM     12  N   UNL     1      53.861   8.934  10.262  0.00  0.00    +0.000 NA
ATOM     13  C   UNL     1      53.349   7.739   9.902  0.00  0.00    +0.000 A 
ATOM     14  C   UNL     1      52.080   7.307  10.252  0.00  0.00    +0.000 A 
ENDBRANCH   7   9
ENDBRANCH   1   8
BRANCH   5  15
ATOM     15  N   UNL     1      45.415   4.350  13.128  0.00  0.00    +0.000 N 
ATOM     16  H   UNL     1      45.499   4.139  14.119  0.00  0.00    +0.000 HD
BRANCH  15  17
ATOM     17  C   UNL     1      45.031   3.272  12.267  0.00  0.00    +0.000 C 
ATOM     18  C   UNL     1      44.709   3.741  10.841  0.00  0.00    +0.000 C 
ATOM     19  O   UNL     1      43.381   3.165  10.905  0.00  0.00    +0.000 OA
ATOM     20  C   UNL     1      43.547   2.897  12.322  0.00  0.00    +0.000 C 
ENDBRANCH  15  17
ENDBRANCH   5  15
TORSDOF 4
ENDMDL
MODEL 9
REMARK VINA RESULT:    -5.087      5.321      7.274
REMARK INTER + INTRA:          -6.628
REMARK INTER:                  -6.259
REMARK INTRA:                  -0.369
REMARK UNBOUND:                -0.352
REMARK  Name = 
REMARK  4 active torsions:
REMARK  status: ('A' for Active; 'I' for Inactive)
REMARK    1  A    between atoms: C_1  and  C_14
REMARK    2  A    between atoms: C_2  and  C_3
REMARK    3  A    between atoms: C_7  and  N_8
REMARK    4  A    between atoms: N_8  and  C_9
REMARK                            x       y       z     vdW  Elec       q    Type
REMARK                         _______ _______ _______ _____ _____    ______ ____
ROOT
ATOM      1  C   UNL     1      48.401   7.903  11.806  0.00  0.00    +0.000 A 
ATOM      2  C   UNL     1      48.144   9.273  11.797  0.00  0.00    +0.000 A 
ATOM      3  C   UNL     1      49.207  10.174  11.812  0.00  0.00    +0.000 A 
ATOM      4  C   UNL     1      50.526   9.706  11.824  0.00  0.00    +0.000 A 
ATOM      5  C   UNL     1      50.798   8.336  11.848  0.00  0.00    +0.000 A 
ATOM      6  C   UNL     1      49.722   7.442  11.825  0.00  0.00    +0.000 A 
ENDROOT
BRANCH   1   8
ATOM      7  C   UNL     1      46.386   6.218  11.799  0.00  0.00    +0.000 C 
ATOM      8  C   UNL     1      47.326   6.962  11.835  0.00  0.00    +0.000 C 
BRANCH   7   9
ATOM      9  C   UNL     1      45.230   5.384  11.694  0.00  0.00    +0.000 A 
ATOM     10  C   UNL     1      44.926   4.769  10.484  0.00  0.00    +0.000 A 
ATOM     11  C   UNL     1      43.824   3.935  10.439  0.00  0.00    +0.000 A 
ATOM     12  N   UNL     1      43.027   3.688  11.501  0.00  0.00    +0.000 NA
ATOM     13  C   UNL     1      43.345   4.302  12.659  0.00  0.00    +0.000 A 
ATOM     14  C   UNL     1      44.428   5.154  12.808  0.00  0.00    +0.000 A 
ENDBRANCH   7   9
ENDBRANCH   1   8
BRANCH   5  15
ATOM     15  N   UNL     1      52.101   7.822  11.772  0.00  0.00    +0.000 N 
ATOM     16  H   UNL     1      52.450   7.404  12.630  0.00  0.00    +0.000 HD
BRANCH  15  17
ATOM     17  C   UNL     1      53.008   7.881  10.665  0.00  0.00    +0.000 C 
ATOM     18  C   UNL     1      52.530   7.051   9.465  0.00  0.00    +0.000 C 
ATOM     19  O   UNL     1      53.755   6.279   9.456  0.00  0.00    +0.000 OA
ATOM     20  C   UNL     1      54.159   6.873  10.717  0.00  0.00    +0.000 C 
ENDBRANCH  15  17
ENDBRANCH   5  15
TORSDOF 4
ENDMDL
