MODEL 1
REMARK VINA RESULT:    -7.485      0.000      0.000
REMARK INTER + INTRA:          -9.127
REMARK INTER:                  -8.798
REMARK INTRA:                  -0.329
REMARK UNBOUND:                -0.329
REMARK  Name = 
REMARK  3 active torsions:
REMARK  status: ('A' for Active; 'I' for Inactive)
REMARK    1  A    between atoms: C_2  and  C_3
REMARK    2  A    between atoms: N_7  and  C_8
REMARK    3  A    between atoms: C_8  and  C_9
REMARK                            x       y       z     vdW  Elec       q    Type
REMARK                         _______ _______ _______ _____ _____    ______ ____
ROOT
ATOM      1  C   UNL     1      46.279   4.642  13.395  0.00  0.00    +0.000 A 
ATOM      2  C   UNL     1      46.703   5.765  12.696  0.00  0.00    +0.000 A 
ATOM      3  C   UNL     1      46.258   5.958  11.387  0.00  0.00    +0.000 A 
ATOM      4  C   UNL     1      45.424   5.012  10.792  0.00  0.00    +0.000 A 
ATOM      5  N   UNL     1      45.102   5.188   9.446  0.00  0.00    +0.000 N 
ATOM      6  N   UNL     1      44.996   3.928  11.470  0.00  0.00    +0.000 NA
ATOM      7  C   UNL     1      45.420   3.769  12.749  0.00  0.00    +0.000 A 
ATOM      8  H   UNL     1      44.605   6.062   9.304  0.00  0.00    +0.000 HD
ENDROOT
BRANCH   1  10
ATOM      9  N   UNL     1      47.091   4.157  15.804  0.00  0.00    +0.000 NA
ATOM     10  C   UNL     1      46.725   4.380  14.726  0.00  0.00    +0.000 C 
ENDBRANCH   1  10
BRANCH   5  11
ATOM     11  C   UNL     1      44.453   4.067   8.793  0.00  0.00    +0.000 C 
BRANCH  11  12
ATOM     12  C   UNL     1      45.520   3.198   8.162  0.00  0.00    +0.000 A 
ATOM     13  C   UNL     1      45.624   1.842   8.514  0.00  0.00    +0.000 A 
ATOM     14  C   UNL     1      46.607   1.031   7.946  0.00  0.00    +0.000 A 
ATOM     15  C   UNL     1      47.504   1.570   7.025  0.00  0.00    +0.000 A 
ATOM     16  C   UNL     1      47.425   2.918   6.683  0.00  0.00    +0.000 A 
ATOM     17  C   UNL     1      46.441   3.732   7.250  0.00  0.00    +0.000 A 
ENDBRANCH  11  12
ENDBRANCH   5  11
TORSDOF 3
ENDMDL
MODEL 2
REMARK VINA RESULT:    -7.078      1.861      6.022
REMARK INTER + INTRA:          -8.648
REMARK INTER:                  -8.381
REMARK INTRA:                  -0.267
REMARK UNBOUND:                -0.329
REMARK  Name = 
REMARK  3 active torsions:
REMARK  status: ('A' for Active; 'I' for Inactive)
REMARK    1  A    between atoms: C_2  and  C_3
REMARK    2  A    between atoms: N_7  and  C_8
REMARK    3  A    between atoms: C_8  and  C_9
REMARK                            x       y       z     vdW  Elec       q    Type
REMARK                         _______ _______ _______ _____ _____    ______ ____
ROOT
ATOM      1  C   UNL     1      46.529   2.459   7.477  0.00  0.00    +0.000 A 
ATOM      2  C   UNL     1      45.872   1.524   8.269  0.00  0.00    +0.000 A 
ATOM      3  C   UNL     1      44.924   1.965   9.193  0.00  0.00    +0.000 A 
ATOM      4  C   UNL     1      44.673   3.330   9.331  0.00  0.00    +0.000 A 
ATOM      5  N   UNL     1      43.805   3.728  10.348  0.00  0.00    +0.000 N 
ATOM      6  N   UNL     1      45.295   4.241   8.556  0.00  0.00    +0.000 NA
ATOM      7  C   UNL     1      46.196   3.792   7.646  0.00  0.00    +0.000 A 
ATOM      8  H   UNL     1      42.881   3.331  10.212  0.00  0.00    +0.000 HD
ENDROOT
BRANCH   1  10
ATOM      9  N   UNL     1      48.336   1.740   5.770  0.00  0.00    +0.000 NA
ATOM     10  C   UNL     1      47.528   2.067   6.536  0.00  0.00    +0.000 C 
ENDBRANCH   1  10
BRANCH   5  11
ATOM     11  C   UNL     1      43.764   5.150  10.631  0.00  0.00    +0.000 C 
BRANCH  11  12
ATOM     12  C   UNL     1      44.881   5.479  11.599  0.00  0.00    +0.000 A 
ATOM     13  C   UNL     1      45.805   6.490  11.290  0.00  0.00    +0.000 A 
ATOM     14  C   UNL     1      46.845   6.799  12.168  0.00  0.00    +0.000 A 
ATOM     15  C   UNL     1      46.977   6.091  13.362  0.00  0.00    +0.000 A 
ATOM     16  C   UNL     1      46.080   5.072  13.671  0.00  0.00    +0.000 A 
ATOM     17  C   UNL     1      45.038   4.762  12.793  0.00  0.00    +0.000 A 
ENDBRANCH  11  12
ENDBRANCH   5  11
TORSDOF 3
ENDMDL
MODEL 3
REMARK VINA RESULT:    -7.042      1.731      2.558
REMARK INTER + INTRA:          -8.606
REMARK INTER:                  -8.451
REMARK INTRA:                  -0.155
REMARK UNBOUND:                -0.329
REMARK  Name = 
REMARK  3 active torsions:
REMARK  status: ('A' for Active; 'I' for Inactive)
REMARK    1  A    between atoms: C_2  and  C_3
REMARK    2  A    between atoms: N_7  and  C_8
REMARK    3  A    between atoms: C_8  and  C_9
REMARK                            x       y       z     vdW  Elec       q    Type
REMARK                         _______ _______ _______ _____ _____    ______ ____
ROOT
ATOM      1  C   UNL     1      45.584   6.472  12.327  0.00  0.00    +0.000 A 
ATOM      2  C   UNL     1      45.729   5.344  13.125  0.00  0.00    +0.000 A 
ATOM      3  C   UNL     1      45.555   4.082  12.555  0.00  0.00    +0.000 A 
ATOM      4  C   UNL     1      45.210   3.972  11.209  0.00  0.00    +0.000 A 
ATOM      5  N   UNL     1      44.931   2.697  10.715  0.00  0.00    +0.000 N 
ATOM      6  N   UNL     1      45.082   5.061  10.424  0.00  0.00    +0.000 NA
ATOM      7  C   UNL     1      45.279   6.279  10.990  0.00  0.00    +0.000 A 
ATOM      8  H   UNL     1      45.741   2.091  10.800  0.00  0.00    +0.000 HD
ENDROOT
BRANCH   1  10
ATOM      9  N   UNL     1      45.834   8.861  13.290  0.00  0.00    +0.000 NA
ATOM     10  C   UNL     1      45.723   7.788  12.864  0.00  0.00    +0.000 C 
ENDBRANCH   1  10
BRANCH   5  11
ATOM     11  C   UNL     1      44.331   2.642   9.394  0.00  0.00    +0.000 C 
BRANCH  11  12
ATOM     12  C   UNL     1      45.433   2.443   8.376  0.00  0.00    +0.000 A 
ATOM     13  C   UNL     1      45.749   3.469   7.470  0.00  0.00    +0.000 A 
ATOM     14  C   UNL     1      46.757   3.297   6.521  0.00  0.00    +0.000 A 
ATOM     15  C   UNL     1      47.455   2.092   6.461  0.00  0.00    +0.000 A 
ATOM     16  C   UNL     1      47.138   1.059   7.339  0.00  0.00    +0.000 A 
ATOM     17  C   UNL     1      46.130   1.229   8.291  0.00  0.00    +0.000 A 
ENDBRANCH  11  12
ENDBRANCH   5  11
TORSDOF 3
ENDMDL
MODEL 4
REMARK VINA RESULT:    -5.734      2.846      7.223
REMARK INTER + INTRA:          -7.069
REMARK INTER:                  -6.804
REMARK INTRA:                  -0.265
REMARK UNBOUND:                -0.329
REMARK  Name = 
REMARK  3 active torsions:
REMARK  status: ('A' for Active; 'I' for Inactive)
REMARK    1  A    between atoms: C_2  and  C_3
REMARK    2  A    between atoms: N_7  and  C_8
REMARK    3  A    between atoms: C_8  and  C_9
REMARK                            x       y       z     vdW  Elec       q    Type
REMARK                         _______ _______ _______ _____ _____    ______ ____
ROOT
ATOM      1  C   UNL     1      45.357   4.596  11.689  0.00  0.00    +0.000 A 
ATOM      2  C   UNL     1      45.863   5.841  12.043  0.00  0.00    +0.000 A 
ATOM      3  C   UNL     1      46.548   5.976  13.252  0.00  0.00    +0.000 A 
ATOM      4  C   UNL     1      46.688   4.876  14.096  0.00  0.00    +0.000 A 
ATOM      5  N   UNL     1      47.275   5.088  15.344  0.00  0.00    +0.000 N 
ATOM      6  N   UNL     1      46.213   3.662  13.753  0.00  0.00    +0.000 NA
ATOM      7  C   UNL     1      45.571   3.543  12.563  0.00  0.00    +0.000 A 
ATOM      8  H   UNL     1      48.226   5.429  15.243  0.00  0.00    +0.000 HD
ENDROOT
BRANCH   1  10
ATOM      9  N   UNL     1      44.032   4.242   9.495  0.00  0.00    +0.000 NA
ATOM     10  C   UNL     1      44.624   4.406  10.479  0.00  0.00    +0.000 C 
ENDBRANCH   1  10
BRANCH   5  11
ATOM     11  C   UNL     1      47.174   3.993  16.291  0.00  0.00    +0.000 C 
BRANCH  11  12
ATOM     12  C   UNL     1      48.569   3.628  16.751  0.00  0.00    +0.000 A 
ATOM     13  C   UNL     1      49.009   2.297  16.678  0.00  0.00    +0.000 A 
ATOM     14  C   UNL     1      50.290   1.944  17.105  0.00  0.00    +0.000 A 
ATOM     15  C   UNL     1      51.142   2.919  17.621  0.00  0.00    +0.000 A 
ATOM     16  C   UNL     1      50.711   4.240  17.719  0.00  0.00    +0.000 A 
ATOM     17  C   UNL     1      49.429   4.595  17.291  0.00  0.00    +0.000 A 
ENDBRANCH  11  12
ENDBRANCH   5  11
TORSDOF 3
ENDMDL
MODEL 5
REMARK VINA RESULT:    -5.371      3.723      5.888
REMARK INTER + INTRA:          -6.642
REMARK INTER:                  -6.436
REMARK INTRA:                  -0.205
REMARK UNBOUND:                -0.329
REMARK  Name = 
REMARK  3 active torsions:
REMARK  status: ('A' for Active; 'I' for Inactive)
REMARK    1  A    between atoms: C_2  and  C_3
REMARK    2  A    between atoms: N_7  and  C_8
REMARK    3  A    between atoms: C_8  and  C_9
REMARK                            x       y       z     vdW  Elec       q    Type
REMARK                         _______ _______ _______ _____ _____    ______ ____
ROOT
ATOM      1  C   UNL     1      49.078   4.571  18.143  0.00  0.00    +0.000 A 
ATOM      2  C   UNL     1      48.288   3.428  18.098  0.00  0.00    +0.000 A 
ATOM      3  C   UNL     1      47.519   3.180  16.960  0.00  0.00    +0.000 A 
ATOM      4  C   UNL     1      47.529   4.090  15.904  0.00  0.00    +0.000 A 
ATOM      5  N   UNL     1      46.655   3.858  14.842  0.00  0.00    +0.000 N 
ATOM      6  N   UNL     1      48.305   5.192  15.934  0.00  0.00    +0.000 NA
ATOM      7  C   UNL     1      49.065   5.405  17.038  0.00  0.00    +0.000 A 
ATOM      8  H   UNL     1      46.860   2.972  14.391  0.00  0.00    +0.000 HD
ENDROOT
BRANCH   1  10
ATOM      9  N   UNL     1      50.509   5.152  20.220  0.00  0.00    +0.000 NA
ATOM     10  C   UNL     1      49.863   4.890  19.292  0.00  0.00    +0.000 C 
ENDBRANCH   1  10
BRANCH   5  11
ATOM     11  C   UNL     1      46.504   4.944  13.892  0.00  0.00    +0.000 C 
BRANCH  11  12
ATOM     12  C   UNL     1      45.286   4.666  13.036  0.00  0.00    +0.000 A 
ATOM     13  C   UNL     1      44.269   5.628  12.924  0.00  0.00    +0.000 A 
ATOM     14  C   UNL     1      43.138   5.383  12.145  0.00  0.00    +0.000 A 
ATOM     15  C   UNL     1      43.006   4.165  11.478  0.00  0.00    +0.000 A 
ATOM     16  C   UNL     1      43.997   3.195  11.598  0.00  0.00    +0.000 A 
ATOM     17  C   UNL     1      45.131   3.439  12.376  0.00  0.00    +0.000 A 
ENDBRANCH  11  12
ENDBRANCH   5  11
TORSDOF 3
ENDMDL
MODEL 6
REMARK VINA RESULT:    -5.133      1.985      3.598
REMARK INTER + INTRA:          -6.362
REMARK INTER:                  -6.107
REMARK INTRA:                  -0.254
REMARK UNBOUND:                -0.329
REMARK  Name = 
REMARK  3 active torsions:
REMARK  status: ('A' for Active; 'I' for Inactive)
REMARK    1  A    between atoms: C_2  and  C_3
REMARK    2  A    between atoms: N_7  and  C_8
REMARK    3  A    between atoms: C_8  and  C_9
REMARK                            x       y       z     vdW  Elec       q    Type
REMARK                         _______ _______ _______ _____ _____    ______ ____
ROOT
ATOM      1  C   UNL     1      48.314   5.155  16.252  0.00  0.00    +0.000 A 
ATOM      2  C   UNL     1      48.513   6.166  15.319  0.00  0.00    +0.000 A 
ATOM      3  C   UNL     1      47.687   6.225  14.196  0.00  0.00    +0.000 A 
ATOM      4  C   UNL     1      46.700   5.258  14.010  0.00  0.00    +0.000 A 
ATOM      5  N   UNL     1      45.980   5.291  12.815  0.00  0.00    +0.000 N 
ATOM      6  N   UNL     1      46.491   4.283  14.917  0.00  0.00    +0.000 NA
ATOM      7  C   UNL     1      47.288   4.256  16.016  0.00  0.00    +0.000 A 
ATOM      8  H   UNL     1      45.472   6.165  12.722  0.00  0.00    +0.000 HD
ENDROOT
BRANCH   1  10
ATOM      9  N   UNL     1      49.825   4.938  18.341  0.00  0.00    +0.000 NA
ATOM     10  C   UNL     1      49.147   5.029  17.404  0.00  0.00    +0.000 C 
ENDBRANCH   1  10
BRANCH   5  11
ATOM     11  C   UNL     1      45.149   4.133  12.540  0.00  0.00    +0.000 C 
BRANCH  11  12
ATOM     12  C   UNL     1      45.090   3.933  11.041  0.00  0.00    +0.000 A 
ATOM     13  C   UNL     1      45.516   4.954  10.176  0.00  0.00    +0.000 A 
ATOM     14  C   UNL     1      45.461   4.786   8.792  0.00  0.00    +0.000 A 
ATOM     15  C   UNL     1      44.969   3.597   8.256  0.00  0.00    +0.000 A 
ATOM     16  C   UNL     1      44.523   2.584   9.102  0.00  0.00    +0.000 A 
ATOM     17  C   UNL     1      44.578   2.750  10.489  0.00  0.00    +0.000 A 
ENDBRANCH  11  12
ENDBRANCH   5  11
TORSDOF 3
ENDMDL
MODEL 7
REMARK VINA RESULT:    -4.979      2.568      5.980
REMARK INTER + INTRA:          -6.181
REMARK INTER:                  -5.866
REMARK INTRA:                  -0.315
REMARK UNBOUND:                -0.329
REMARK  Name = 
REMARK  3 active torsions:
REMARK  status: ('A' for Active; 'I' for Inactive)
REMARK    1  A    between atoms: C_2  and  C_3
REMARK    2  A    between atoms: N_7  and  C_8
REMARK    3  A    between atoms: C_8  and  C_9
REMARK                            x       y       z     vdW  Elec       q    Type
REMARK                         _______ _______ _______ _____ _____    ______ ____
ROOT
ATOM      1  C   UNL     1      44.905   3.607  10.544  0.00  0.00    +0.000 A 
ATOM      2  C   UNL     1      44.747   3.374  11.905  0.00  0.00    +0.000 A 
ATOM      3  C   UNL     1      44.842   4.447  12.792  0.00  0.00    +0.000 A 
ATOM      4  C   UNL     1      45.123   5.724  12.308  0.00  0.00    +0.000 A 
ATOM      5  N   UNL     1      45.325   6.740  13.242  0.00  0.00    +0.000 N 
ATOM      6  N   UNL     1      45.262   5.960  10.988  0.00  0.00    +0.000 NA
ATOM      7  C   UNL     1      45.142   4.909  10.137  0.00  0.00    +0.000 A 
ATOM      8  H   UNL     1      44.495   6.881  13.809  0.00  0.00    +0.000 HD
ENDROOT
BRANCH   1  10
ATOM      9  N   UNL     1      44.809   1.678   8.822  0.00  0.00    +0.000 NA
ATOM     10  C   UNL     1      44.846   2.543   9.594  0.00  0.00    +0.000 C 
ENDBRANCH   1  10
BRANCH   5  11
ATOM     11  C   UNL     1      45.864   7.985  12.725  0.00  0.00    +0.000 C 
BRANCH  11  12
ATOM     12  C   UNL     1      47.374   7.921  12.801  0.00  0.00    +0.000 A 
ATOM     13  C   UNL     1      48.002   7.499  13.985  0.00  0.00    +0.000 A 
ATOM     14  C   UNL     1      49.394   7.442  14.073  0.00  0.00    +0.000 A 
ATOM     15  C   UNL     1      50.174   7.817  12.979  0.00  0.00    +0.000 A 
ATOM     16  C   UNL     1      49.564   8.258  11.808  0.00  0.00    +0.000 A 
ATOM     17  C   UNL     1      48.171   8.315  11.717  0.00  0.00    +0.000 A 
ENDBRANCH  11  12
ENDBRANCH   5  11
TORSDOF 3
ENDMDL
MODEL 8
REMARK VINA RESULT:    -4.890      2.802      3.690
REMARK INTER + INTRA:          -6.076
REMARK INTER:                  -5.881
REMARK INTRA:                  -0.195
REMARK UNBOUND:                -0.329
REMARK  Name = 
REMARK  3 active torsions:
REMARK  status: ('A' for Active; 'I' for Inactive)
REMARK    1  A    between atoms: C_2  and  C_3
REMARK    2  A    between atoms: N_7  and  C_8
REMARK    3  A    between atoms: C_8  and  C_9
REMARK                            x       y       z     vdW  Elec       q    Type
REMARK                         _______ _______ _______ _____ _____    ______ ____
ROOT
ATOM      1  C   UNL     1      48.894   7.852  12.739  0.00  0.00    +0.000 A 
ATOM      2  C   UNL     1      47.951   8.675  12.134  0.00  0.00    +0.000 A 
ATOM      3  C   UNL     1      46.656   8.194  11.941  0.00  0.00    +0.000 A 
ATOM      4  C   UNL     1      46.334   6.893  12.326  0.00  0.00    +0.000 A 
ATOM      5  N   UNL     1      45.062   6.419  12.005  0.00  0.00    +0.000 N 
ATOM      6  N   UNL     1      47.239   6.095  12.927  0.00  0.00    +0.000 NA
ATOM      7  C   UNL     1      48.487   6.587  13.129  0.00  0.00    +0.000 A 
ATOM      8  H   UNL     1      44.343   6.980  12.450  0.00  0.00    +0.000 HD
ENDROOT
BRANCH   1  10
ATOM      9  N   UNL     1      51.339   8.621  13.093  0.00  0.00    +0.000 NA
ATOM     10  C   UNL     1      50.241   8.281  12.936  0.00  0.00    +0.000 C 
ENDBRANCH   1  10
BRANCH   5  11
ATOM     11  C   UNL     1      44.848   4.995  12.185  0.00  0.00    +0.000 C 
BRANCH  11  12
ATOM     12  C   UNL     1      44.920   4.325  10.830  0.00  0.00    +0.000 A 
ATOM     13  C   UNL     1      44.497   2.994  10.679  0.00  0.00    +0.000 A 
ATOM     14  C   UNL     1      44.564   2.360   9.437  0.00  0.00    +0.000 A 
ATOM     15  C   UNL     1      45.066   3.049   8.333  0.00  0.00    +0.000 A 
ATOM     16  C   UNL     1      45.508   4.362   8.474  0.00  0.00    +0.000 A 
ATOM     17  C   UNL     1      45.441   4.998   9.716  0.00  0.00    +0.000 A 
ENDBRANCH  11  12
ENDBRANCH   5  11
TORSDOF 3
ENDMDL
MODEL 9
REMARK VINA RESULT:    -4.763      2.981      7.911
REMARK INTER + INTRA:          -5.927
REMARK INTER:                  -5.707
REMARK INTRA:                  -0.220
REMARK UNBOUND:                -0.329
REMARK  Name = 
REMARK  3 active torsions:
REMARK  status: ('A' for Active; 'I' for Inactive)
REMARK    1  A    between atoms: C_2  and  C_3
REMARK    2  A    between atoms: N_7  and  C_8
REMARK    3  A    between atoms: C_8  and  C_9
REMARK                            x       y       z     vdW  Elec       q    Type
REMARK                         _______ _______ _______ _____ _____    ______ ____
ROOT
ATOM      1  C   UNL     1      45.308   4.698  11.615  0.00  0.00    +0.000 A 
ATOM      2  C   UNL     1      45.823   5.959  11.893  0.00  0.00    +0.000 A 
ATOM      3  C   UNL     1      46.553   6.148  13.068  0.00  0.00    +0.000 A 
ATOM      4  C   UNL     1      46.727   5.087  13.955  0.00  0.00    +0.000 A 
ATOM      5  N   UNL     1      47.361   5.356  15.168  0.00  0.00    +0.000 N 
ATOM      6  N   UNL     1      46.243   3.859  13.684  0.00  0.00    +0.000 NA
ATOM      7  C   UNL     1      45.557   3.686  12.526  0.00  0.00    +0.000 A 
ATOM      8  H   UNL     1      48.306   5.693  15.016  0.00  0.00    +0.000 HD
ENDROOT
BRANCH   1  10
ATOM      9  N   UNL     1      43.904   4.246   9.489  0.00  0.00    +0.000 NA
ATOM     10  C   UNL     1      44.530   4.453  10.443  0.00  0.00    +0.000 C 
ENDBRANCH   1  10
BRANCH   5  11
ATOM     11  C   UNL     1      47.299   4.305  16.167  0.00  0.00    +0.000 C 
BRANCH  11  12
ATOM     12  C   UNL     1      48.272   4.642  17.277  0.00  0.00    +0.000 A 
ATOM     13  C   UNL     1      48.429   5.973  17.697  0.00  0.00    +0.000 A 
ATOM     14  C   UNL     1      49.327   6.299  18.713  0.00  0.00    +0.000 A 
ATOM     15  C   UNL     1      50.087   5.297  19.315  0.00  0.00    +0.000 A 
ATOM     16  C   UNL     1      49.957   3.977  18.894  0.00  0.00    +0.000 A 
ATOM     17  C   UNL     1      49.057   3.647  17.877  0.00  0.00    +0.000 A 
ENDBRANCH  11  12
ENDBRANCH   5  11
TORSDOF 3
ENDMDL
