MODEL 1
REMARK VINA RESULT:    -7.889      0.000      0.000
REMARK INTER + INTRA:         -12.103
REMARK INTER:                 -10.887
REMARK INTRA:                  -1.216
REMARK UNBOUND:                -1.216
REMARK  Name = 
REMARK  7 active torsions:
REMARK  status: ('A' for Active; 'I' for Inactive)
REMARK    1  A    between atoms: C_2  and  C_19
REMARK    2  A    between atoms: N_3  and  C_4
REMARK    3  A    between atoms: C_4  and  C_5
REMARK    4  A    between atoms: C_8  and  C_9
REMARK    5  A    between atoms: C_9  and  O_10
REMARK    6  A    between atoms: C_9  and  C_11
REMARK    7  A    between atoms: C_11  and  C_12
REMARK                            x       y       z     vdW  Elec       q    Type
REMARK                         _______ _______ _______ _____ _____    ______ ____
ROOT
ATOM      1  C   UNL     1      46.389   7.662  12.867  0.00  0.00    +0.000 C 
ENDROOT
BRANCH   1   2
ATOM      2  C   UNL     1      45.791   6.582  11.994  0.00  0.00    +0.000 A 
ATOM      3  C   UNL     1      44.788   5.765  12.498  0.00  0.00    +0.000 A 
ATOM      4  C   UNL     1      44.304   4.731  11.706  0.00  0.00    +0.000 A 
ATOM      5  C   UNL     1      44.833   4.508  10.429  0.00  0.00    +0.000 A 
ATOM      6  C   UNL     1      45.827   5.385  10.012  0.00  0.00    +0.000 A 
ATOM      7  N   UNL     1      46.316   6.409  10.754  0.00  0.00    +0.000 NA
BRANCH   5   8
ATOM      8  C   UNL     1      44.303   3.361   9.606  0.00  0.00    +0.000 C 
BRANCH   8   9
ATOM      9  O   UNL     1      44.719   2.129  10.201  0.00  0.00    +0.000 OA
ATOM     10  H   UNL     1      45.663   2.015   9.958  0.00  0.00    +0.000 HD
ENDBRANCH   8   9
BRANCH   8  11
ATOM     11  C   UNL     1      44.587   3.340   8.103  0.00  0.00    +0.000 C 
BRANCH  11  12
ATOM     12  C   UNL     1      45.873   2.674   7.733  0.00  0.00    +0.000 C 
ATOM     13  N   UNL     1      46.183   1.441   7.983  0.00  0.00    +0.000 NA
ATOM     14  C   UNL     1      47.440   1.256   7.246  0.00  0.00    +0.000 C 
ATOM     15  C   UNL     1      47.880   2.645   6.839  0.00  0.00    +0.000 C 
ATOM     16  O   UNL     1      46.729   3.452   7.035  0.00  0.00    +0.000 OA
ENDBRANCH  11  12
ENDBRANCH   8  11
ENDBRANCH   5   8
ENDBRANCH   1   2
BRANCH   1  19
ATOM     17  O   UNL     1      49.003   6.640  13.106  0.00  0.00    +0.000 OA
ATOM     18  C   UNL     1      48.289   6.688  14.103  0.00  0.00    +0.000 C 
ATOM     19  N   UNL     1      46.986   7.108  14.058  0.00  0.00    +0.000 N 
ATOM     20  H   UNL     1      46.536   7.398  14.920  0.00  0.00    +0.000 HD
BRANCH  18  21
ATOM     21  C   UNL     1      48.766   6.234  15.412  0.00  0.00    +0.000 A 
ATOM     22  C   UNL     1      49.800   6.900  16.053  0.00  0.00    +0.000 A 
ATOM     23  S   UNL     1      50.246   6.190  17.540  0.00  0.00    +0.000 S 
ATOM     24  C   UNL     1      49.039   4.998  17.396  0.00  0.00    +0.000 A 
ATOM     25  N   UNL     1      48.863   4.052  18.359  0.00  0.00    +0.000 NA
ATOM     26  C   UNL     1      47.887   3.238  18.134  0.00  0.00    +0.000 A 
ATOM     27  N   UNL     1      47.078   3.276  17.028  0.00  0.00    +0.000 N 
ATOM     28  C   UNL     1      47.249   4.170  16.006  0.00  0.00    +0.000 A 
ATOM     29  O   UNL     1      46.578   4.102  14.984  0.00  0.00    +0.000 OA
ATOM     30  C   UNL     1      48.320   5.131  16.224  0.00  0.00    +0.000 A 
ATOM     31  H   UNL     1      46.347   2.592  16.895  0.00  0.00    +0.000 HD
ENDBRANCH  18  21
ENDBRANCH   1  19
TORSDOF 7
ENDMDL
MODEL 2
REMARK VINA RESULT:    -7.540      1.422      1.741
REMARK INTER + INTRA:         -11.622
REMARK INTER:                 -10.638
REMARK INTRA:                  -0.984
REMARK UNBOUND:                -1.216
REMARK  Name = 
REMARK  7 active torsions:
REMARK  status: ('A' for Active; 'I' for Inactive)
REMARK    1  A    between atoms: C_2  and  C_19
REMARK    2  A    between atoms: N_3  and  C_4
REMARK    3  A    between atoms: C_4  and  C_5
REMARK    4  A    between atoms: C_8  and  C_9
REMARK    5  A    between atoms: C_9  and  O_10
REMARK    6  A    between atoms: C_9  and  C_11
REMARK    7  A    between atoms: C_11  and  C_12
REMARK                            x       y       z     vdW  Elec       q    Type
REMARK                         _______ _______ _______ _____ _____    ______ ____
ROOT
ATOM      1  C   UNL     1      47.562   7.240  13.317  0.00  0.00    +0.000 C 
ENDROOT
BRANCH   1   2
ATOM      2  C   UNL     1      46.660   6.286  12.567  0.00  0.00    +0.000 A 
ATOM      3  C   UNL     1      46.379   6.515  11.226  0.00  0.00    +0.000 A 
ATOM      4  C   UNL     1      45.489   5.669  10.574  0.00  0.00    +0.000 A 
ATOM      5  C   UNL     1      44.877   4.617  11.263  0.00  0.00    +0.000 A 
ATOM      6  C   UNL     1      45.230   4.465  12.599  0.00  0.00    +0.000 A 
ATOM      7  N   UNL     1      46.100   5.265  13.263  0.00  0.00    +0.000 NA
BRANCH   5   8
ATOM      8  C   UNL     1      43.896   3.733  10.532  0.00  0.00    +0.000 C 
BRANCH   8   9
ATOM      9  O   UNL     1      42.725   3.572  11.336  0.00  0.00    +0.000 OA
ATOM     10  H   UNL     1      42.807   2.692  11.761  0.00  0.00    +0.000 HD
ENDBRANCH   8   9
BRANCH   8  11
ATOM     11  C   UNL     1      44.372   2.373  10.018  0.00  0.00    +0.000 C 
BRANCH  11  12
ATOM     12  C   UNL     1      45.213   2.445   8.785  0.00  0.00    +0.000 C 
ATOM     13  N   UNL     1      45.174   3.390   7.899  0.00  0.00    +0.000 NA
ATOM     14  C   UNL     1      46.314   3.080   7.028  0.00  0.00    +0.000 C 
ATOM     15  C   UNL     1      46.752   1.684   7.414  0.00  0.00    +0.000 C 
ATOM     16  O   UNL     1      46.110   1.443   8.657  0.00  0.00    +0.000 OA
ENDBRANCH  11  12
ENDBRANCH   8  11
ENDBRANCH   5   8
ENDBRANCH   1   2
BRANCH   1  19
ATOM     17  O   UNL     1      50.064   7.009  14.591  0.00  0.00    +0.000 OA
ATOM     18  C   UNL     1      49.044   6.769  15.232  0.00  0.00    +0.000 C 
ATOM     19  N   UNL     1      47.796   6.792  14.668  0.00  0.00    +0.000 N 
ATOM     20  H   UNL     1      46.987   6.870  15.276  0.00  0.00    +0.000 HD
BRANCH  18  21
ATOM     21  C   UNL     1      49.098   6.372  16.641  0.00  0.00    +0.000 A 
ATOM     22  C   UNL     1      49.562   7.257  17.603  0.00  0.00    +0.000 A 
ATOM     23  S   UNL     1      49.598   6.594  19.175  0.00  0.00    +0.000 S 
ATOM     24  C   UNL     1      48.951   5.118  18.627  0.00  0.00    +0.000 A 
ATOM     25  N   UNL     1      48.711   4.089  19.487  0.00  0.00    +0.000 NA
ATOM     26  C   UNL     1      48.185   3.047  18.936  0.00  0.00    +0.000 A 
ATOM     27  N   UNL     1      47.886   2.934  17.603  0.00  0.00    +0.000 N 
ATOM     28  C   UNL     1      48.159   3.916  16.690  0.00  0.00    +0.000 A 
ATOM     29  O   UNL     1      47.981   3.737  15.491  0.00  0.00    +0.000 OA
ATOM     30  C   UNL     1      48.727   5.127  17.264  0.00  0.00    +0.000 A 
ATOM     31  H   UNL     1      47.501   2.081  17.227  0.00  0.00    +0.000 HD
ENDBRANCH  18  21
ENDBRANCH   1  19
TORSDOF 7
ENDMDL
MODEL 3
REMARK VINA RESULT:    -7.313      2.295      3.668
REMARK INTER + INTRA:         -11.308
REMARK INTER:                 -10.282
REMARK INTRA:                  -1.026
REMARK UNBOUND:                -1.216
REMARK  Name = 
REMARK  7 active torsions:
REMARK  status: ('A' for Active; 'I' for Inactive)
REMARK    1  A    between atoms: C_2  and  C_19
REMARK    2  A    between atoms: N_3  and  C_4
REMARK    3  A    between atoms: C_4  and  C_5
REMARK    4  A    between atoms: C_8  and  C_9
REMARK    5  A    between atoms: C_9  and  O_10
REMARK    6  A    between atoms: C_9  and  C_11
REMARK    7  A    between atoms: C_11  and  C_12
REMARK                            x       y       z     vdW  Elec       q    Type
REMARK                         _______ _______ _______ _____ _____    ______ ____
ROOT
ATOM      1  C   UNL     1      46.908   4.373  15.119  0.00  0.00    +0.000 C 
ENDROOT
BRANCH   1   2
ATOM      2  C   UNL     1      46.376   4.399  13.703  0.00  0.00    +0.000 A 
ATOM      3  C   UNL     1      46.305   5.604  13.017  0.00  0.00    +0.000 A 
ATOM      4  C   UNL     1      45.745   5.620  11.745  0.00  0.00    +0.000 A 
ATOM      5  C   UNL     1      45.246   4.442  11.176  0.00  0.00    +0.000 A 
ATOM      6  C   UNL     1      45.372   3.287  11.938  0.00  0.00    +0.000 A 
ATOM      7  N   UNL     1      45.921   3.234  13.177  0.00  0.00    +0.000 NA
BRANCH   5   8
ATOM      8  C   UNL     1      44.621   4.499   9.804  0.00  0.00    +0.000 C 
BRANCH   8   9
ATOM      9  O   UNL     1      43.354   5.156   9.897  0.00  0.00    +0.000 OA
ATOM     10  H   UNL     1      43.550   6.098  10.089  0.00  0.00    +0.000 HD
ENDBRANCH   8   9
BRANCH   8  11
ATOM     11  C   UNL     1      44.482   3.203   9.004  0.00  0.00    +0.000 C 
BRANCH  11  12
ATOM     12  C   UNL     1      45.657   2.893   8.133  0.00  0.00    +0.000 C 
ATOM     13  N   UNL     1      46.261   3.735   7.355  0.00  0.00    +0.000 NA
ATOM     14  C   UNL     1      47.438   2.983   6.898  0.00  0.00    +0.000 C 
ATOM     15  C   UNL     1      47.188   1.550   7.310  0.00  0.00    +0.000 C 
ATOM     16  O   UNL     1      46.123   1.630   8.245  0.00  0.00    +0.000 OA
ENDBRANCH  11  12
ENDBRANCH   8  11
ENDBRANCH   5   8
ENDBRANCH   1   2
BRANCH   1  19
ATOM     17  O   UNL     1      49.160   4.663  16.786  0.00  0.00    +0.000 OA
ATOM     18  C   UNL     1      48.700   5.655  16.229  0.00  0.00    +0.000 C 
ATOM     19  N   UNL     1      47.568   5.610  15.457  0.00  0.00    +0.000 N 
ATOM     20  H   UNL     1      47.392   6.366  14.803  0.00  0.00    +0.000 HD
BRANCH  18  21
ATOM     21  C   UNL     1      49.296   6.982  16.405  0.00  0.00    +0.000 A 
ATOM     22  C   UNL     1      49.431   7.528  17.673  0.00  0.00    +0.000 A 
ATOM     23  S   UNL     1      50.098   9.100  17.667  0.00  0.00    +0.000 S 
ATOM     24  C   UNL     1      50.271   9.080  15.974  0.00  0.00    +0.000 A 
ATOM     25  N   UNL     1      50.804  10.140  15.306  0.00  0.00    +0.000 NA
ATOM     26  C   UNL     1      50.908   9.969  14.031  0.00  0.00    +0.000 A 
ATOM     27  N   UNL     1      50.517   8.839  13.360  0.00  0.00    +0.000 N 
ATOM     28  C   UNL     1      49.926   7.770  13.977  0.00  0.00    +0.000 A 
ATOM     29  O   UNL     1      49.489   6.826  13.331  0.00  0.00    +0.000 OA
ATOM     30  C   UNL     1      49.811   7.900  15.422  0.00  0.00    +0.000 A 
ATOM     31  H   UNL     1      50.599   8.776  12.356  0.00  0.00    +0.000 HD
ENDBRANCH  18  21
ENDBRANCH   1  19
TORSDOF 7
ENDMDL
MODEL 4
REMARK VINA RESULT:    -7.244      2.314      2.834
REMARK INTER + INTRA:         -11.213
REMARK INTER:                 -10.137
REMARK INTRA:                  -1.075
REMARK UNBOUND:                -1.216
REMARK  Name = 
REMARK  7 active torsions:
REMARK  status: ('A' for Active; 'I' for Inactive)
REMARK    1  A    between atoms: C_2  and  C_19
REMARK    2  A    between atoms: N_3  and  C_4
REMARK    3  A    between atoms: C_4  and  C_5
REMARK    4  A    between atoms: C_8  and  C_9
REMARK    5  A    between atoms: C_9  and  O_10
REMARK    6  A    between atoms: C_9  and  C_11
REMARK    7  A    between atoms: C_11  and  C_12
REMARK                            x       y       z     vdW  Elec       q    Type
REMARK                         _______ _______ _______ _____ _____    ______ ____
ROOT
ATOM      1  C   UNL     1      47.893   7.149  13.699  0.00  0.00    +0.000 C 
ENDROOT
BRANCH   1   2
ATOM      2  C   UNL     1      46.999   6.277  12.846  0.00  0.00    +0.000 A 
ATOM      3  C   UNL     1      46.652   6.691  11.566  0.00  0.00    +0.000 A 
ATOM      4  C   UNL     1      45.770   5.913  10.826  0.00  0.00    +0.000 A 
ATOM      5  C   UNL     1      45.230   4.742  11.371  0.00  0.00    +0.000 A 
ATOM      6  C   UNL     1      45.645   4.409  12.654  0.00  0.00    +0.000 A 
ATOM      7  N   UNL     1      46.511   5.139  13.400  0.00  0.00    +0.000 NA
BRANCH   5   8
ATOM      8  C   UNL     1      44.255   3.934  10.550  0.00  0.00    +0.000 C 
BRANCH   8   9
ATOM      9  O   UNL     1      44.355   2.559  10.929  0.00  0.00    +0.000 OA
ATOM     10  H   UNL     1      44.229   2.040  10.106  0.00  0.00    +0.000 HD
ENDBRANCH   8   9
BRANCH   8  11
ATOM     11  C   UNL     1      44.292   4.062   9.026  0.00  0.00    +0.000 C 
BRANCH  11  12
ATOM     12  C   UNL     1      45.426   3.335   8.378  0.00  0.00    +0.000 C 
ATOM     13  N   UNL     1      45.701   2.078   8.531  0.00  0.00    +0.000 NA
ATOM     14  C   UNL     1      46.761   1.845   7.541  0.00  0.00    +0.000 C 
ATOM     15  C   UNL     1      47.194   3.218   7.080  0.00  0.00    +0.000 C 
ATOM     16  O   UNL     1      46.165   4.085   7.532  0.00  0.00    +0.000 OA
ENDBRANCH  11  12
ENDBRANCH   8  11
ENDBRANCH   5   8
ENDBRANCH   1   2
BRANCH   1  19
ATOM     17  O   UNL     1      50.136   6.613  15.317  0.00  0.00    +0.000 OA
ATOM     18  C   UNL     1      49.015   6.555  15.814  0.00  0.00    +0.000 C 
ATOM     19  N   UNL     1      47.872   6.735  15.080  0.00  0.00    +0.000 N 
ATOM     20  H   UNL     1      47.010   6.957  15.566  0.00  0.00    +0.000 HD
BRANCH  18  21
ATOM     21  C   UNL     1      48.818   6.219  17.226  0.00  0.00    +0.000 A 
ATOM     22  C   UNL     1      49.114   4.948  17.695  0.00  0.00    +0.000 A 
ATOM     23  S   UNL     1      48.768   4.737  19.353  0.00  0.00    +0.000 S 
ATOM     24  C   UNL     1      48.256   6.353  19.508  0.00  0.00    +0.000 A 
ATOM     25  N   UNL     1      47.829   6.847  20.703  0.00  0.00    +0.000 NA
ATOM     26  C   UNL     1      47.507   8.097  20.678  0.00  0.00    +0.000 A 
ATOM     27  N   UNL     1      47.563   8.896  19.565  0.00  0.00    +0.000 N 
ATOM     28  C   UNL     1      47.931   8.435  18.331  0.00  0.00    +0.000 A 
ATOM     29  O   UNL     1      47.862   9.149  17.339  0.00  0.00    +0.000 OA
ATOM     30  C   UNL     1      48.332   7.036  18.309  0.00  0.00    +0.000 A 
ATOM     31  H   UNL     1      47.271   9.862  19.604  0.00  0.00    +0.000 HD
ENDBRANCH  18  21
ENDBRANCH   1  19
TORSDOF 7
ENDMDL
MODEL 5
REMARK VINA RESULT:    -7.097      2.754      3.341
REMARK INTER + INTRA:         -11.010
REMARK INTER:                 -10.182
REMARK INTRA:                  -0.827
REMARK UNBOUND:                -1.216
REMARK  Name = 
REMARK  7 active torsions:
REMARK  status: ('A' for Active; 'I' for Inactive)
REMARK    1  A    between atoms: C_2  and  C_19
REMARK    2  A    between atoms: N_3  and  C_4
REMARK    3  A    between atoms: C_4  and  C_5
REMARK    4  A    between atoms: C_8  and  C_9
REMARK    5  A    between atoms: C_9  and  O_10
REMARK    6  A    between atoms: C_9  and  C_11
REMARK    7  A    between atoms: C_11  and  C_12
REMARK                            x       y       z     vdW  Elec       q    Type
REMARK                         _______ _______ _______ _____ _____    ______ ____
ROOT
ATOM      1  C   UNL     1      47.150   4.262  15.222  0.00  0.00    +0.000 C 
ENDROOT
BRANCH   1   2
ATOM      2  C   UNL     1      46.527   4.375  13.848  0.00  0.00    +0.000 A 
ATOM      3  C   UNL     1      46.438   5.617  13.233  0.00  0.00    +0.000 A 
ATOM      4  C   UNL     1      45.796   5.712  12.004  0.00  0.00    +0.000 A 
ATOM      5  C   UNL     1      45.235   4.576  11.408  0.00  0.00    +0.000 A 
ATOM      6  C   UNL     1      45.385   3.379  12.098  0.00  0.00    +0.000 A 
ATOM      7  N   UNL     1      46.013   3.249  13.292  0.00  0.00    +0.000 NA
BRANCH   5   8
ATOM      8  C   UNL     1      44.522   4.719  10.086  0.00  0.00    +0.000 C 
BRANCH   8   9
ATOM      9  O   UNL     1      43.295   5.423  10.292  0.00  0.00    +0.000 OA
ATOM     10  H   UNL     1      43.320   6.195   9.687  0.00  0.00    +0.000 HD
ENDBRANCH   8   9
BRANCH   8  11
ATOM     11  C   UNL     1      44.273   3.465   9.244  0.00  0.00    +0.000 C 
BRANCH  11  12
ATOM     12  C   UNL     1      45.438   3.051   8.405  0.00  0.00    +0.000 C 
ATOM     13  N   UNL     1      45.996   1.882   8.413  0.00  0.00    +0.000 NA
ATOM     14  C   UNL     1      46.936   1.950   7.287  0.00  0.00    +0.000 C 
ATOM     15  C   UNL     1      46.995   3.411   6.898  0.00  0.00    +0.000 C 
ATOM     16  O   UNL     1      45.875   3.996   7.544  0.00  0.00    +0.000 OA
ENDBRANCH  11  12
ENDBRANCH   8  11
ENDBRANCH   5   8
ENDBRANCH   1   2
BRANCH   1  19
ATOM     17  O   UNL     1      49.537   4.871  16.589  0.00  0.00    +0.000 OA
ATOM     18  C   UNL     1      48.749   5.776  16.334  0.00  0.00    +0.000 C 
ATOM     19  N   UNL     1      47.538   5.553  15.733  0.00  0.00    +0.000 N 
ATOM     20  H   UNL     1      47.059   6.334  15.294  0.00  0.00    +0.000 HD
BRANCH  18  21
ATOM     21  C   UNL     1      49.023   7.163  16.717  0.00  0.00    +0.000 A 
ATOM     22  C   UNL     1      49.860   7.954  15.944  0.00  0.00    +0.000 A 
ATOM     23  S   UNL     1      50.095   9.520  16.583  0.00  0.00    +0.000 S 
ATOM     24  C   UNL     1      49.048   9.206  17.888  0.00  0.00    +0.000 A 
ATOM     25  N   UNL     1      48.790  10.154  18.830  0.00  0.00    +0.000 NA
ATOM     26  C   UNL     1      47.949   9.787  19.738  0.00  0.00    +0.000 A 
ATOM     27  N   UNL     1      47.351   8.555  19.797  0.00  0.00    +0.000 N 
ATOM     28  C   UNL     1      47.620   7.550  18.908  0.00  0.00    +0.000 A 
ATOM     29  O   UNL     1      47.153   6.428  19.058  0.00  0.00    +0.000 OA
ATOM     30  C   UNL     1      48.541   7.921  17.844  0.00  0.00    +0.000 A 
ATOM     31  H   UNL     1      46.722   8.318  20.550  0.00  0.00    +0.000 HD
ENDBRANCH  18  21
ENDBRANCH   1  19
TORSDOF 7
ENDMDL
MODEL 6
REMARK VINA RESULT:    -6.748      4.054      9.374
REMARK INTER + INTRA:         -10.528
REMARK INTER:                  -9.398
REMARK INTRA:                  -1.131
REMARK UNBOUND:                -1.216
REMARK  Name = 
REMARK  7 active torsions:
REMARK  status: ('A' for Active; 'I' for Inactive)
REMARK    1  A    between atoms: C_2  and  C_19
REMARK    2  A    between atoms: N_3  and  C_4
REMARK    3  A    between atoms: C_4  and  C_5
REMARK    4  A    between atoms: C_8  and  C_9
REMARK    5  A    between atoms: C_9  and  O_10
REMARK    6  A    between atoms: C_9  and  C_11
REMARK    7  A    between atoms: C_11  and  C_12
REMARK                            x       y       z     vdW  Elec       q    Type
REMARK                         _______ _______ _______ _____ _____    ______ ____
ROOT
ATOM      1  C   UNL     1      47.168   3.482  16.857  0.00  0.00    +0.000 C 
ENDROOT
BRANCH   1   2
ATOM      2  C   UNL     1      48.659   3.384  17.089  0.00  0.00    +0.000 A 
ATOM      3  C   UNL     1      49.306   2.170  16.903  0.00  0.00    +0.000 A 
ATOM      4  C   UNL     1      50.662   2.081  17.193  0.00  0.00    +0.000 A 
ATOM      5  C   UNL     1      51.357   3.195  17.679  0.00  0.00    +0.000 A 
ATOM      6  C   UNL     1      50.624   4.366  17.822  0.00  0.00    +0.000 A 
ATOM      7  N   UNL     1      49.303   4.490  17.541  0.00  0.00    +0.000 NA
BRANCH   5   8
ATOM      8  C   UNL     1      52.823   3.058  18.008  0.00  0.00    +0.000 C 
BRANCH   8   9
ATOM      9  O   UNL     1      52.960   2.709  19.389  0.00  0.00    +0.000 OA
ATOM     10  H   UNL     1      52.432   3.368  19.888  0.00  0.00    +0.000 HD
ENDBRANCH   8   9
BRANCH   8  11
ATOM     11  C   UNL     1      53.767   4.211  17.662  0.00  0.00    +0.000 C 
BRANCH  11  12
ATOM     12  C   UNL     1      54.388   4.871  18.851  0.00  0.00    +0.000 C 
ATOM     13  N   UNL     1      55.612   4.714  19.246  0.00  0.00    +0.000 NA
ATOM     14  C   UNL     1      55.752   5.718  20.309  0.00  0.00    +0.000 C 
ATOM     15  C   UNL     1      54.347   6.196  20.602  0.00  0.00    +0.000 C 
ATOM     16  O   UNL     1      53.579   5.734  19.502  0.00  0.00    +0.000 OA
ENDBRANCH  11  12
ENDBRANCH   8  11
ENDBRANCH   5   8
ENDBRANCH   1   2
BRANCH   1  19
ATOM     17  O   UNL     1      47.242   3.073  14.071  0.00  0.00    +0.000 OA
ATOM     18  C   UNL     1      46.856   4.155  14.504  0.00  0.00    +0.000 C 
ATOM     19  N   UNL     1      46.855   4.457  15.841  0.00  0.00    +0.000 N 
ATOM     20  H   UNL     1      46.278   5.225  16.167  0.00  0.00    +0.000 HD
BRANCH  18  21
ATOM     21  C   UNL     1      46.430   5.233  13.609  0.00  0.00    +0.000 A 
ATOM     22  C   UNL     1      47.279   6.294  13.331  0.00  0.00    +0.000 A 
ATOM     23  S   UNL     1      46.582   7.472  12.311  0.00  0.00    +0.000 S 
ATOM     24  C   UNL     1      45.141   6.578  12.170  0.00  0.00    +0.000 A 
ATOM     25  N   UNL     1      44.104   7.025  11.409  0.00  0.00    +0.000 NA
ATOM     26  C   UNL     1      43.091   6.226  11.366  0.00  0.00    +0.000 A 
ATOM     27  N   UNL     1      43.016   5.024  12.022  0.00  0.00    +0.000 N 
ATOM     28  C   UNL     1      44.007   4.556  12.841  0.00  0.00    +0.000 A 
ATOM     29  O   UNL     1      43.858   3.533  13.498  0.00  0.00    +0.000 OA
ATOM     30  C   UNL     1      45.186   5.408  12.903  0.00  0.00    +0.000 A 
ATOM     31  H   UNL     1      42.184   4.455  11.970  0.00  0.00    +0.000 HD
ENDBRANCH  18  21
ENDBRANCH   1  19
TORSDOF 7
ENDMDL
MODEL 7
REMARK VINA RESULT:    -6.717      2.166      2.955
REMARK INTER + INTRA:         -10.486
REMARK INTER:                  -9.124
REMARK INTRA:                  -1.362
REMARK UNBOUND:                -1.216
REMARK  Name = 
REMARK  7 active torsions:
REMARK  status: ('A' for Active; 'I' for Inactive)
REMARK    1  A    between atoms: C_2  and  C_19
REMARK    2  A    between atoms: N_3  and  C_4
REMARK    3  A    between atoms: C_4  and  C_5
REMARK    4  A    between atoms: C_8  and  C_9
REMARK    5  A    between atoms: C_9  and  O_10
REMARK    6  A    between atoms: C_9  and  C_11
REMARK    7  A    between atoms: C_11  and  C_12
REMARK                            x       y       z     vdW  Elec       q    Type
REMARK                         _______ _______ _______ _____ _____    ______ ____
ROOT
ATOM      1  C   UNL     1      48.761   6.893  13.765  0.00  0.00    +0.000 C 
ENDROOT
BRANCH   1   2
ATOM      2  C   UNL     1      47.385   6.305  13.539  0.00  0.00    +0.000 A 
ATOM      3  C   UNL     1      47.187   4.939  13.688  0.00  0.00    +0.000 A 
ATOM      4  C   UNL     1      45.934   4.408  13.405  0.00  0.00    +0.000 A 
ATOM      5  C   UNL     1      44.897   5.237  12.960  0.00  0.00    +0.000 A 
ATOM      6  C   UNL     1      45.192   6.590  12.852  0.00  0.00    +0.000 A 
ATOM      7  N   UNL     1      46.399   7.143  13.129  0.00  0.00    +0.000 NA
BRANCH   5   8
ATOM      8  C   UNL     1      43.557   4.624  12.637  0.00  0.00    +0.000 C 
BRANCH   8   9
ATOM      9  O   UNL     1      43.551   3.261  13.069  0.00  0.00    +0.000 OA
ATOM     10  H   UNL     1      43.691   3.284  14.040  0.00  0.00    +0.000 HD
ENDBRANCH   8   9
BRANCH   8  11
ATOM     11  C   UNL     1      43.029   4.723  11.204  0.00  0.00    +0.000 C 
BRANCH  11  12
ATOM     12  C   UNL     1      43.853   3.988  10.197  0.00  0.00    +0.000 C 
ATOM     13  N   UNL     1      44.576   4.534   9.270  0.00  0.00    +0.000 NA
ATOM     14  C   UNL     1      45.314   3.396   8.707  0.00  0.00    +0.000 C 
ATOM     15  C   UNL     1      44.645   2.162   9.268  0.00  0.00    +0.000 C 
ATOM     16  O   UNL     1      43.852   2.645  10.341  0.00  0.00    +0.000 OA
ENDBRANCH  11  12
ENDBRANCH   8  11
ENDBRANCH   5   8
ENDBRANCH   1   2
BRANCH   1  19
ATOM     17  O   UNL     1      48.240   8.779  15.791  0.00  0.00    +0.000 OA
ATOM     18  C   UNL     1      48.807   7.731  16.084  0.00  0.00    +0.000 C 
ATOM     19  N   UNL     1      49.156   6.794  15.148  0.00  0.00    +0.000 N 
ATOM     20  H   UNL     1      49.355   5.847  15.455  0.00  0.00    +0.000 HD
BRANCH  18  21
ATOM     21  C   UNL     1      49.212   7.436  17.461  0.00  0.00    +0.000 A 
ATOM     22  C   UNL     1      50.009   8.327  18.165  0.00  0.00    +0.000 A 
ATOM     23  S   UNL     1      50.416   7.782  19.731  0.00  0.00    +0.000 S 
ATOM     24  C   UNL     1      49.501   6.360  19.534  0.00  0.00    +0.000 A 
ATOM     25  N   UNL     1      49.411   5.436  20.530  0.00  0.00    +0.000 NA
ATOM     26  C   UNL     1      48.653   4.428  20.253  0.00  0.00    +0.000 A 
ATOM     27  N   UNL     1      47.986   4.254  19.068  0.00  0.00    +0.000 N 
ATOM     28  C   UNL     1      48.087   5.125  18.018  0.00  0.00    +0.000 A 
ATOM     29  O   UNL     1      47.567   4.880  16.937  0.00  0.00    +0.000 OA
ATOM     30  C   UNL     1      48.909   6.296  18.288  0.00  0.00    +0.000 A 
ATOM     31  H   UNL     1      47.429   3.429  18.902  0.00  0.00    +0.000 HD
ENDBRANCH  18  21
ENDBRANCH   1  19
TORSDOF 7
ENDMDL
MODEL 8
REMARK VINA RESULT:    -6.598      4.043      8.865
REMARK INTER + INTRA:         -10.321
REMARK INTER:                  -9.551
REMARK INTRA:                  -0.770
REMARK UNBOUND:                -1.216
REMARK  Name = 
REMARK  7 active torsions:
REMARK  status: ('A' for Active; 'I' for Inactive)
REMARK    1  A    between atoms: C_2  and  C_19
REMARK    2  A    between atoms: N_3  and  C_4
REMARK    3  A    between atoms: C_4  and  C_5
REMARK    4  A    between atoms: C_8  and  C_9
REMARK    5  A    between atoms: C_9  and  O_10
REMARK    6  A    between atoms: C_9  and  C_11
REMARK    7  A    between atoms: C_11  and  C_12
REMARK                            x       y       z     vdW  Elec       q    Type
REMARK                         _______ _______ _______ _____ _____    ______ ____
ROOT
ATOM      1  C   UNL     1      47.187   3.459  16.696  0.00  0.00    +0.000 C 
ENDROOT
BRANCH   1   2
ATOM      2  C   UNL     1      48.635   3.668  17.080  0.00  0.00    +0.000 A 
ATOM      3  C   UNL     1      49.511   2.590  17.075  0.00  0.00    +0.000 A 
ATOM      4  C   UNL     1      50.818   2.787  17.503  0.00  0.00    +0.000 A 
ATOM      5  C   UNL     1      51.237   4.047  17.945  0.00  0.00    +0.000 A 
ATOM      6  C   UNL     1      50.290   5.063  17.903  0.00  0.00    +0.000 A 
ATOM      7  N   UNL     1      49.010   4.908  17.484  0.00  0.00    +0.000 NA
BRANCH   5   8
ATOM      8  C   UNL     1      52.657   4.220  18.426  0.00  0.00    +0.000 C 
BRANCH   8   9
ATOM      9  O   UNL     1      53.487   4.567  17.314  0.00  0.00    +0.000 OA
ATOM     10  H   UNL     1      54.239   3.937  17.331  0.00  0.00    +0.000 HD
ENDBRANCH   8   9
BRANCH   8  11
ATOM     11  C   UNL     1      53.304   3.093  19.233  0.00  0.00    +0.000 C 
BRANCH  11  12
ATOM     12  C   UNL     1      53.886   1.999  18.397  0.00  0.00    +0.000 C 
ATOM     13  N   UNL     1      54.852   2.134  17.544  0.00  0.00    +0.000 NA
ATOM     14  C   UNL     1      55.156   0.749  17.161  0.00  0.00    +0.000 C 
ATOM     15  C   UNL     1      54.016  -0.082  17.705  0.00  0.00    +0.000 C 
ATOM     16  O   UNL     1      53.360   0.776  18.626  0.00  0.00    +0.000 OA
ENDBRANCH  11  12
ENDBRANCH   8  11
ENDBRANCH   5   8
ENDBRANCH   1   2
BRANCH   1  19
ATOM     17  O   UNL     1      47.195   3.092  13.903  0.00  0.00    +0.000 OA
ATOM     18  C   UNL     1      46.739   4.133  14.366  0.00  0.00    +0.000 C 
ATOM     19  N   UNL     1      46.760   4.417  15.706  0.00  0.00    +0.000 N 
ATOM     20  H   UNL     1      46.135   5.132  16.064  0.00  0.00    +0.000 HD
BRANCH  18  21
ATOM     21  C   UNL     1      46.195   5.184  13.502  0.00  0.00    +0.000 A 
ATOM     22  C   UNL     1      46.936   6.324  13.230  0.00  0.00    +0.000 A 
ATOM     23  S   UNL     1      46.111   7.452  12.249  0.00  0.00    +0.000 S 
ATOM     24  C   UNL     1      44.755   6.431  12.118  0.00  0.00    +0.000 A 
ATOM     25  N   UNL     1      43.665   6.795  11.389  0.00  0.00    +0.000 NA
ATOM     26  C   UNL     1      42.730   5.906  11.349  0.00  0.00    +0.000 A 
ATOM     27  N   UNL     1      42.781   4.690  11.981  0.00  0.00    +0.000 N 
ATOM     28  C   UNL     1      43.828   4.300  12.770  0.00  0.00    +0.000 A 
ATOM     29  O   UNL     1      43.789   3.256  13.408  0.00  0.00    +0.000 OA
ATOM     30  C   UNL     1      44.924   5.256  12.826  0.00  0.00    +0.000 A 
ATOM     31  H   UNL     1      42.003   4.047  11.935  0.00  0.00    +0.000 HD
ENDBRANCH  18  21
ENDBRANCH   1  19
TORSDOF 7
ENDMDL
MODEL 9
REMARK VINA RESULT:    -6.597      2.745      3.639
REMARK INTER + INTRA:         -10.320
REMARK INTER:                  -9.364
REMARK INTRA:                  -0.956
REMARK UNBOUND:                -1.216
REMARK  Name = 
REMARK  7 active torsions:
REMARK  status: ('A' for Active; 'I' for Inactive)
REMARK    1  A    between atoms: C_2  and  C_19
REMARK    2  A    between atoms: N_3  and  C_4
REMARK    3  A    between atoms: C_4  and  C_5
REMARK    4  A    between atoms: C_8  and  C_9
REMARK    5  A    between atoms: C_9  and  O_10
REMARK    6  A    between atoms: C_9  and  C_11
REMARK    7  A    between atoms: C_11  and  C_12
REMARK                            x       y       z     vdW  Elec       q    Type
REMARK                         _______ _______ _______ _____ _____    ______ ____
ROOT
ATOM      1  C   UNL     1      47.130   4.276  15.937  0.00  0.00    +0.000 C 
ENDROOT
BRANCH   1   2
ATOM      2  C   UNL     1      46.748   4.594  14.508  0.00  0.00    +0.000 A 
ATOM      3  C   UNL     1      47.165   5.788  13.934  0.00  0.00    +0.000 A 
ATOM      4  C   UNL     1      46.743   6.096  12.647  0.00  0.00    +0.000 A 
ATOM      5  C   UNL     1      45.898   5.224  11.950  0.00  0.00    +0.000 A 
ATOM      6  C   UNL     1      45.543   4.052  12.607  0.00  0.00    +0.000 A 
ATOM      7  N   UNL     1      45.945   3.716  13.858  0.00  0.00    +0.000 NA
BRANCH   5   8
ATOM      8  C   UNL     1      45.436   5.601  10.564  0.00  0.00    +0.000 C 
BRANCH   8   9
ATOM      9  O   UNL     1      44.856   6.908  10.606  0.00  0.00    +0.000 OA
ATOM     10  H   UNL     1      45.272   7.413   9.875  0.00  0.00    +0.000 HD
ENDBRANCH   8   9
BRANCH   8  11
ATOM     11  C   UNL     1      44.516   4.642   9.808  0.00  0.00    +0.000 C 
BRANCH  11  12
ATOM     12  C   UNL     1      45.229   3.721   8.871  0.00  0.00    +0.000 C 
ATOM     13  N   UNL     1      45.753   4.058   7.735  0.00  0.00    +0.000 NA
ATOM     14  C   UNL     1      46.483   2.850   7.331  0.00  0.00    +0.000 C 
ATOM     15  C   UNL     1      46.011   1.759   8.266  0.00  0.00    +0.000 C 
ATOM     16  O   UNL     1      45.358   2.453   9.319  0.00  0.00    +0.000 OA
ENDBRANCH  11  12
ENDBRANCH   8  11
ENDBRANCH   5   8
ENDBRANCH   1   2
BRANCH   1  19
ATOM     17  O   UNL     1      48.221   5.709  18.103  0.00  0.00    +0.000 OA
ATOM     18  C   UNL     1      48.980   5.183  17.294  0.00  0.00    +0.000 C 
ATOM     19  N   UNL     1      48.529   4.528  16.178  0.00  0.00    +0.000 N 
ATOM     20  H   UNL     1      49.154   3.882  15.706  0.00  0.00    +0.000 HD
BRANCH  18  21
ATOM     21  C   UNL     1      50.435   5.279  17.431  0.00  0.00    +0.000 A 
ATOM     22  C   UNL     1      51.058   6.517  17.467  0.00  0.00    +0.000 A 
ATOM     23  S   UNL     1      52.758   6.419  17.579  0.00  0.00    +0.000 S 
ATOM     24  C   UNL     1      52.713   4.718  17.629  0.00  0.00    +0.000 A 
ATOM     25  N   UNL     1      53.854   3.984  17.736  0.00  0.00    +0.000 NA
ATOM     26  C   UNL     1      53.663   2.709  17.800  0.00  0.00    +0.000 A 
ATOM     27  N   UNL     1      52.435   2.100  17.757  0.00  0.00    +0.000 N 
ATOM     28  C   UNL     1      51.264   2.788  17.595  0.00  0.00    +0.000 A 
ATOM     29  O   UNL     1      50.198   2.203  17.449  0.00  0.00    +0.000 OA
ATOM     30  C   UNL     1      51.421   4.235  17.546  0.00  0.00    +0.000 A 
ATOM     31  H   UNL     1      52.353   1.094  17.785  0.00  0.00    +0.000 HD
ENDBRANCH  18  21
ENDBRANCH   1  19
TORSDOF 7
ENDMDL
