MODEL 1
REMARK VINA RESULT:    -8.710      0.000      0.000
REMARK INTER + INTRA:         -12.108
REMARK INTER:                 -11.256
REMARK INTRA:                  -0.852
REMARK UNBOUND:                -0.852
REMARK  Name = 
REMARK  5 active torsions:
REMARK  status: ('A' for Active; 'I' for Inactive)
REMARK    1  A    between atoms: C_2  and  C_4
REMARK    2  A    between atoms: C_7  and  O_8
REMARK    3  A    between atoms: O_8  and  C_9
REMARK    4  A    between atoms: C_9  and  C_10
REMARK    5  A    between atoms: C_14  and  C_15
REMARK                            x       y       z     vdW  Elec       q    Type
REMARK                         _______ _______ _______ _____ _____    ______ ____
ROOT
ATOM      1  C   UNL     1      43.581   4.303  11.393  0.00  0.00    +0.000 C 
ENDROOT
BRANCH   1   2
ATOM      2  C   UNL     1      44.885   4.650  12.077  0.00  0.00    +0.000 A 
ATOM      3  C   UNL     1      45.543   3.721  12.876  0.00  0.00    +0.000 A 
ATOM      4  C   UNL     1      46.719   4.095  13.511  0.00  0.00    +0.000 A 
ATOM      5  C   UNL     1      47.206   5.385  13.337  0.00  0.00    +0.000 A 
ATOM      6  C   UNL     1      46.506   6.277  12.526  0.00  0.00    +0.000 A 
ATOM      7  N   UNL     1      45.349   5.916  11.910  0.00  0.00    +0.000 NA
BRANCH   6   8
ATOM      8  C   UNL     1      46.977   7.650  12.253  0.00  0.00    +0.000 A 
ATOM      9  C   UNL     1      46.091   8.744  12.336  0.00  0.00    +0.000 A 
ATOM     10  C   UNL     1      46.511  10.053  12.075  0.00  0.00    +0.000 A 
ATOM     11  C   UNL     1      47.834  10.297  11.725  0.00  0.00    +0.000 A 
ATOM     12  C   UNL     1      48.719   9.232  11.638  0.00  0.00    +0.000 A 
ATOM     13  F   UNL     1      49.996   9.460  11.302  0.00  0.00    +0.000 F 
ATOM     14  C   UNL     1      48.308   7.927  11.895  0.00  0.00    +0.000 A 
ENDBRANCH   6   8
ENDBRANCH   1   2
BRANCH   1  15
ATOM     15  O   UNL     1      43.677   4.548   9.986  0.00  0.00    +0.000 OA
BRANCH  15  19
ATOM     16  C   UNL     1      46.437   2.432   7.691  0.00  0.00    +0.000 A 
ATOM     17  C   UNL     1      45.598   1.715   8.555  0.00  0.00    +0.000 A 
ATOM     18  C   UNL     1      44.659   2.388   9.344  0.00  0.00    +0.000 A 
ATOM     19  C   UNL     1      44.553   3.777   9.276  0.00  0.00    +0.000 A 
ATOM     20  C   UNL     1      45.400   4.492   8.423  0.00  0.00    +0.000 A 
ATOM     21  C   UNL     1      46.343   3.826   7.638  0.00  0.00    +0.000 A 
BRANCH  16  23
ATOM     22  N   UNL     1      48.520   2.499   6.438  0.00  0.00    +0.000 N 
ATOM     23  C   UNL     1      47.449   1.753   6.846  0.00  0.00    +0.000 C 
ATOM     24  O   UNL     1      47.356   0.568   6.556  0.00  0.00    +0.000 OA
ATOM     25  H   UNL     1      49.256   1.995   5.961  0.00  0.00    +0.000 HD
ATOM     26  H   UNL     1      48.759   3.380   6.869  0.00  0.00    +0.000 HD
ENDBRANCH  16  23
ENDBRANCH  15  19
ENDBRANCH   1  15
TORSDOF 5
ENDMDL
MODEL 2
REMARK VINA RESULT:    -8.697      1.241      1.580
REMARK INTER + INTRA:         -12.091
REMARK INTER:                 -11.224
REMARK INTRA:                  -0.867
REMARK UNBOUND:                -0.852
REMARK  Name = 
REMARK  5 active torsions:
REMARK  status: ('A' for Active; 'I' for Inactive)
REMARK    1  A    between atoms: C_2  and  C_4
REMARK    2  A    between atoms: C_7  and  O_8
REMARK    3  A    between atoms: O_8  and  C_9
REMARK    4  A    between atoms: C_9  and  C_10
REMARK    5  A    between atoms: C_14  and  C_15
REMARK                            x       y       z     vdW  Elec       q    Type
REMARK                         _______ _______ _______ _____ _____    ______ ____
ROOT
ATOM      1  C   UNL     1      43.606   3.670  11.506  0.00  0.00    +0.000 C 
ENDROOT
BRANCH   1   2
ATOM      2  C   UNL     1      44.872   4.170  12.167  0.00  0.00    +0.000 A 
ATOM      3  C   UNL     1      45.680   3.313  12.906  0.00  0.00    +0.000 A 
ATOM      4  C   UNL     1      46.814   3.824  13.523  0.00  0.00    +0.000 A 
ATOM      5  C   UNL     1      47.110   5.175  13.390  0.00  0.00    +0.000 A 
ATOM      6  C   UNL     1      46.265   5.990  12.639  0.00  0.00    +0.000 A 
ATOM      7  N   UNL     1      45.149   5.494  12.041  0.00  0.00    +0.000 NA
BRANCH   6   8
ATOM      8  C   UNL     1      46.530   7.425  12.411  0.00  0.00    +0.000 A 
ATOM      9  C   UNL     1      47.845   7.889  12.201  0.00  0.00    +0.000 A 
ATOM     10  C   UNL     1      48.124   9.243  11.990  0.00  0.00    +0.000 A 
ATOM     11  C   UNL     1      47.086  10.169  11.985  0.00  0.00    +0.000 A 
ATOM     12  C   UNL     1      45.786   9.730  12.192  0.00  0.00    +0.000 A 
ATOM     13  F   UNL     1      44.781  10.617  12.187  0.00  0.00    +0.000 F 
ATOM     14  C   UNL     1      45.502   8.384  12.402  0.00  0.00    +0.000 A 
ENDBRANCH   6   8
ENDBRANCH   1   2
BRANCH   1  15
ATOM     15  O   UNL     1      43.589   4.036  10.123  0.00  0.00    +0.000 OA
BRANCH  15  19
ATOM     16  C   UNL     1      46.552   2.601   7.567  0.00  0.00    +0.000 A 
ATOM     17  C   UNL     1      45.846   1.680   8.355  0.00  0.00    +0.000 A 
ATOM     18  C   UNL     1      44.846   2.121   9.228  0.00  0.00    +0.000 A 
ATOM     19  C   UNL     1      44.544   3.480   9.318  0.00  0.00    +0.000 A 
ATOM     20  C   UNL     1      45.258   4.398   8.542  0.00  0.00    +0.000 A 
ATOM     21  C   UNL     1      46.262   3.964   7.674  0.00  0.00    +0.000 A 
BRANCH  16  23
ATOM     22  N   UNL     1      47.862   2.965   5.552  0.00  0.00    +0.000 N 
ATOM     23  C   UNL     1      47.625   2.170   6.638  0.00  0.00    +0.000 C 
ATOM     24  O   UNL     1      48.297   1.170   6.850  0.00  0.00    +0.000 OA
ATOM     25  H   UNL     1      48.669   2.722   4.991  0.00  0.00    +0.000 HD
ATOM     26  H   UNL     1      47.518   3.912   5.491  0.00  0.00    +0.000 HD
ENDBRANCH  16  23
ENDBRANCH  15  19
ENDBRANCH   1  15
TORSDOF 5
ENDMDL
MODEL 3
REMARK VINA RESULT:    -8.420      2.560      3.959
REMARK INTER + INTRA:         -11.734
REMARK INTER:                 -11.120
REMARK INTRA:                  -0.614
REMARK UNBOUND:                -0.852
REMARK  Name = 
REMARK  5 active torsions:
REMARK  status: ('A' for Active; 'I' for Inactive)
REMARK    1  A    between atoms: C_2  and  C_4
REMARK    2  A    between atoms: C_7  and  O_8
REMARK    3  A    between atoms: O_8  and  C_9
REMARK    4  A    between atoms: C_9  and  C_10
REMARK    5  A    between atoms: C_14  and  C_15
REMARK                            x       y       z     vdW  Elec       q    Type
REMARK                         _______ _______ _______ _____ _____    ______ ____
ROOT
ATOM      1  C   UNL     1      43.960   4.083  11.689  0.00  0.00    +0.000 C 
ENDROOT
BRANCH   1   2
ATOM      2  C   UNL     1      44.977   5.101  12.157  0.00  0.00    +0.000 A 
ATOM      3  C   UNL     1      45.166   6.294  11.468  0.00  0.00    +0.000 A 
ATOM      4  C   UNL     1      46.134   7.182  11.915  0.00  0.00    +0.000 A 
ATOM      5  C   UNL     1      46.892   6.856  13.033  0.00  0.00    +0.000 A 
ATOM      6  C   UNL     1      46.663   5.646  13.685  0.00  0.00    +0.000 A 
ATOM      7  N   UNL     1      45.721   4.770  13.245  0.00  0.00    +0.000 NA
BRANCH   6   8
ATOM      8  C   UNL     1      47.393   5.243  14.905  0.00  0.00    +0.000 A 
ATOM      9  C   UNL     1      48.384   6.078  15.459  0.00  0.00    +0.000 A 
ATOM     10  C   UNL     1      49.094   5.716  16.608  0.00  0.00    +0.000 A 
ATOM     11  C   UNL     1      48.825   4.504  17.233  0.00  0.00    +0.000 A 
ATOM     12  C   UNL     1      47.853   3.669  16.701  0.00  0.00    +0.000 A 
ATOM     13  F   UNL     1      47.587   2.500  17.299  0.00  0.00    +0.000 F 
ATOM     14  C   UNL     1      47.143   4.023  15.557  0.00  0.00    +0.000 A 
ENDBRANCH   6   8
ENDBRANCH   1   2
BRANCH   1  15
ATOM     15  O   UNL     1      43.688   4.257  10.295  0.00  0.00    +0.000 OA
BRANCH  15  19
ATOM     16  C   UNL     1      46.395   2.413   7.719  0.00  0.00    +0.000 A 
ATOM     17  C   UNL     1      46.239   3.804   7.639  0.00  0.00    +0.000 A 
ATOM     18  C   UNL     1      45.339   4.461   8.484  0.00  0.00    +0.000 A 
ATOM     19  C   UNL     1      44.591   3.735   9.412  0.00  0.00    +0.000 A 
ATOM     20  C   UNL     1      44.738   2.347   9.480  0.00  0.00    +0.000 A 
ATOM     21  C   UNL     1      45.630   1.685   8.635  0.00  0.00    +0.000 A 
BRANCH  16  23
ATOM     22  N   UNL     1      48.365   2.397   6.294  0.00  0.00    +0.000 N 
ATOM     23  C   UNL     1      47.332   1.681   6.832  0.00  0.00    +0.000 C 
ATOM     24  O   UNL     1      47.214   0.482   6.619  0.00  0.00    +0.000 OA
ATOM     25  H   UNL     1      49.058   1.863   5.786  0.00  0.00    +0.000 HD
ATOM     26  H   UNL     1      48.640   3.300   6.652  0.00  0.00    +0.000 HD
ENDBRANCH  16  23
ENDBRANCH  15  19
ENDBRANCH   1  15
TORSDOF 5
ENDMDL
MODEL 4
REMARK VINA RESULT:    -8.257      1.745      2.540
REMARK INTER + INTRA:         -11.523
REMARK INTER:                 -10.754
REMARK INTRA:                  -0.769
REMARK UNBOUND:                -0.852
REMARK  Name = 
REMARK  5 active torsions:
REMARK  status: ('A' for Active; 'I' for Inactive)
REMARK    1  A    between atoms: C_2  and  C_4
REMARK    2  A    between atoms: C_7  and  O_8
REMARK    3  A    between atoms: O_8  and  C_9
REMARK    4  A    between atoms: C_9  and  C_10
REMARK    5  A    between atoms: C_14  and  C_15
REMARK                            x       y       z     vdW  Elec       q    Type
REMARK                         _______ _______ _______ _____ _____    ______ ____
ROOT
ATOM      1  C   UNL     1      44.220   3.389  11.510  0.00  0.00    +0.000 C 
ENDROOT
BRANCH   1   2
ATOM      2  C   UNL     1      44.453   4.880  11.615  0.00  0.00    +0.000 A 
ATOM      3  C   UNL     1      43.433   5.785  11.340  0.00  0.00    +0.000 A 
ATOM      4  C   UNL     1      43.702   7.145  11.417  0.00  0.00    +0.000 A 
ATOM      5  C   UNL     1      44.980   7.567  11.761  0.00  0.00    +0.000 A 
ATOM      6  C   UNL     1      45.966   6.617  12.024  0.00  0.00    +0.000 A 
ATOM      7  N   UNL     1      45.708   5.285  11.942  0.00  0.00    +0.000 NA
BRANCH   6   8
ATOM      8  C   UNL     1      47.337   6.980  12.439  0.00  0.00    +0.000 A 
ATOM      9  C   UNL     1      48.238   7.556  11.519  0.00  0.00    +0.000 A 
ATOM     10  C   UNL     1      49.543   7.902  11.884  0.00  0.00    +0.000 A 
ATOM     11  C   UNL     1      49.977   7.679  13.186  0.00  0.00    +0.000 A 
ATOM     12  C   UNL     1      49.104   7.113  14.104  0.00  0.00    +0.000 A 
ATOM     13  F   UNL     1      49.517   6.897  15.361  0.00  0.00    +0.000 F 
ATOM     14  C   UNL     1      47.805   6.765  13.747  0.00  0.00    +0.000 A 
ENDBRANCH   6   8
ENDBRANCH   1   2
BRANCH   1  15
ATOM     15  O   UNL     1      43.736   3.052  10.207  0.00  0.00    +0.000 OA
BRANCH  15  19
ATOM     16  C   UNL     1      46.590   2.517   7.217  0.00  0.00    +0.000 A 
ATOM     17  C   UNL     1      46.005   3.783   7.363  0.00  0.00    +0.000 A 
ATOM     18  C   UNL     1      45.042   4.004   8.353  0.00  0.00    +0.000 A 
ATOM     19  C   UNL     1      44.657   2.964   9.201  0.00  0.00    +0.000 A 
ATOM     20  C   UNL     1      45.231   1.699   9.044  0.00  0.00    +0.000 A 
ATOM     21  C   UNL     1      46.188   1.472   8.054  0.00  0.00    +0.000 A 
BRANCH  16  23
ATOM     22  N   UNL     1      47.659   3.108   5.115  0.00  0.00    +0.000 N 
ATOM     23  C   UNL     1      47.607   2.244   6.173  0.00  0.00    +0.000 C 
ATOM     24  O   UNL     1      48.393   1.311   6.269  0.00  0.00    +0.000 OA
ATOM     25  H   UNL     1      48.429   2.976   4.472  0.00  0.00    +0.000 HD
ATOM     26  H   UNL     1      47.218   4.015   5.137  0.00  0.00    +0.000 HD
ENDBRANCH  16  23
ENDBRANCH  15  19
ENDBRANCH   1  15
TORSDOF 5
ENDMDL
MODEL 5
REMARK VINA RESULT:    -7.868      2.936      3.768
REMARK INTER + INTRA:         -11.020
REMARK INTER:                 -10.272
REMARK INTRA:                  -0.748
REMARK UNBOUND:                -0.852
REMARK  Name = 
REMARK  5 active torsions:
REMARK  status: ('A' for Active; 'I' for Inactive)
REMARK    1  A    between atoms: C_2  and  C_4
REMARK    2  A    between atoms: C_7  and  O_8
REMARK    3  A    between atoms: O_8  and  C_9
REMARK    4  A    between atoms: C_9  and  C_10
REMARK    5  A    between atoms: C_14  and  C_15
REMARK                            x       y       z     vdW  Elec       q    Type
REMARK                         _______ _______ _______ _____ _____    ______ ____
ROOT
ATOM      1  C   UNL     1      44.507   4.740  11.676  0.00  0.00    +0.000 C 
ENDROOT
BRANCH   1   2
ATOM      2  C   UNL     1      44.989   6.156  11.905  0.00  0.00    +0.000 A 
ATOM      3  C   UNL     1      46.106   6.414  12.694  0.00  0.00    +0.000 A 
ATOM      4  C   UNL     1      46.490   7.731  12.903  0.00  0.00    +0.000 A 
ATOM      5  C   UNL     1      45.751   8.756  12.325  0.00  0.00    +0.000 A 
ATOM      6  C   UNL     1      44.639   8.441  11.545  0.00  0.00    +0.000 A 
ATOM      7  N   UNL     1      44.255   7.153  11.345  0.00  0.00    +0.000 NA
BRANCH   6   8
ATOM      8  C   UNL     1      43.826   9.467  10.860  0.00  0.00    +0.000 A 
ATOM      9  C   UNL     1      44.442  10.516  10.147  0.00  0.00    +0.000 A 
ATOM     10  C   UNL     1      43.695  11.503   9.497  0.00  0.00    +0.000 A 
ATOM     11  C   UNL     1      42.306  11.461   9.544  0.00  0.00    +0.000 A 
ATOM     12  C   UNL     1      41.683  10.436  10.241  0.00  0.00    +0.000 A 
ATOM     13  F   UNL     1      40.344  10.389  10.290  0.00  0.00    +0.000 F 
ATOM     14  C   UNL     1      42.421   9.451  10.892  0.00  0.00    +0.000 A 
ENDBRANCH   6   8
ENDBRANCH   1   2
BRANCH   1  15
ATOM     15  O   UNL     1      44.017   4.591  10.340  0.00  0.00    +0.000 OA
BRANCH  15  19
ATOM     16  C   UNL     1      46.467   2.522   7.679  0.00  0.00    +0.000 A 
ATOM     17  C   UNL     1      46.486   3.924   7.652  0.00  0.00    +0.000 A 
ATOM     18  C   UNL     1      45.677   4.656   8.527  0.00  0.00    +0.000 A 
ATOM     19  C   UNL     1      44.846   3.995   9.433  0.00  0.00    +0.000 A 
ATOM     20  C   UNL     1      44.819   2.597   9.449  0.00  0.00    +0.000 A 
ATOM     21  C   UNL     1      45.619   1.861   8.573  0.00  0.00    +0.000 A 
BRANCH  16  23
ATOM     22  N   UNL     1      48.372   2.339   6.179  0.00  0.00    +0.000 N 
ATOM     23  C   UNL     1      47.304   1.713   6.760  0.00  0.00    +0.000 C 
ATOM     24  O   UNL     1      47.077   0.528   6.557  0.00  0.00    +0.000 OA
ATOM     25  H   UNL     1      48.997   1.747   5.647  0.00  0.00    +0.000 HD
ATOM     26  H   UNL     1      48.736   3.215   6.523  0.00  0.00    +0.000 HD
ENDBRANCH  16  23
ENDBRANCH  15  19
ENDBRANCH   1  15
TORSDOF 5
ENDMDL
MODEL 6
REMARK VINA RESULT:    -7.861      3.410      6.843
REMARK INTER + INTRA:         -11.011
REMARK INTER:                 -10.226
REMARK INTRA:                  -0.785
REMARK UNBOUND:                -0.852
REMARK  Name = 
REMARK  5 active torsions:
REMARK  status: ('A' for Active; 'I' for Inactive)
REMARK    1  A    between atoms: C_2  and  C_4
REMARK    2  A    between atoms: C_7  and  O_8
REMARK    3  A    between atoms: O_8  and  C_9
REMARK    4  A    between atoms: C_9  and  C_10
REMARK    5  A    between atoms: C_14  and  C_15
REMARK                            x       y       z     vdW  Elec       q    Type
REMARK                         _______ _______ _______ _____ _____    ______ ____
ROOT
ATOM      1  C   UNL     1      44.231   6.640  11.528  0.00  0.00    +0.000 C 
ENDROOT
BRANCH   1   2
ATOM      2  C   UNL     1      44.105   5.163  11.227  0.00  0.00    +0.000 A 
ATOM      3  C   UNL     1      43.309   4.336  12.013  0.00  0.00    +0.000 A 
ATOM      4  C   UNL     1      43.252   2.981  11.719  0.00  0.00    +0.000 A 
ATOM      5  C   UNL     1      43.991   2.484  10.652  0.00  0.00    +0.000 A 
ATOM      6  C   UNL     1      44.775   3.357   9.898  0.00  0.00    +0.000 A 
ATOM      7  N   UNL     1      44.840   4.683  10.189  0.00  0.00    +0.000 NA
BRANCH   6   8
ATOM      8  C   UNL     1      45.556   2.918   8.723  0.00  0.00    +0.000 A 
ATOM      9  C   UNL     1      45.964   3.847   7.744  0.00  0.00    +0.000 A 
ATOM     10  C   UNL     1      46.698   3.457   6.619  0.00  0.00    +0.000 A 
ATOM     11  C   UNL     1      47.042   2.121   6.449  0.00  0.00    +0.000 A 
ATOM     12  C   UNL     1      46.648   1.193   7.402  0.00  0.00    +0.000 A 
ATOM     13  F   UNL     1      46.977  -0.096   7.245  0.00  0.00    +0.000 F 
ATOM     14  C   UNL     1      45.916   1.575   8.524  0.00  0.00    +0.000 A 
ENDBRANCH   6   8
ENDBRANCH   1   2
BRANCH   1  15
ATOM     15  O   UNL     1      45.035   6.843  12.695  0.00  0.00    +0.000 OA
BRANCH  15  19
ATOM     16  C   UNL     1      49.028   7.914  12.178  0.00  0.00    +0.000 A 
ATOM     17  C   UNL     1      48.046   8.903  12.025  0.00  0.00    +0.000 A 
ATOM     18  C   UNL     1      46.694   8.584  12.187  0.00  0.00    +0.000 A 
ATOM     19  C   UNL     1      46.315   7.279  12.504  0.00  0.00    +0.000 A 
ATOM     20  C   UNL     1      47.295   6.292  12.643  0.00  0.00    +0.000 A 
ATOM     21  C   UNL     1      48.645   6.603  12.475  0.00  0.00    +0.000 A 
BRANCH  16  23
ATOM     22  N   UNL     1      51.216   7.300  11.313  0.00  0.00    +0.000 N 
ATOM     23  C   UNL     1      50.470   8.214  12.004  0.00  0.00    +0.000 C 
ATOM     24  O   UNL     1      50.968   9.250  12.425  0.00  0.00    +0.000 OA
ATOM     25  H   UNL     1      52.169   7.571  11.104  0.00  0.00    +0.000 HD
ATOM     26  H   UNL     1      50.796   6.586  10.737  0.00  0.00    +0.000 HD
ENDBRANCH  16  23
ENDBRANCH  15  19
ENDBRANCH   1  15
TORSDOF 5
ENDMDL
MODEL 7
REMARK VINA RESULT:    -7.804      3.535      7.306
REMARK INTER + INTRA:         -10.937
REMARK INTER:                 -10.614
REMARK INTRA:                  -0.323
REMARK UNBOUND:                -0.852
REMARK  Name = 
REMARK  5 active torsions:
REMARK  status: ('A' for Active; 'I' for Inactive)
REMARK    1  A    between atoms: C_2  and  C_4
REMARK    2  A    between atoms: C_7  and  O_8
REMARK    3  A    between atoms: O_8  and  C_9
REMARK    4  A    between atoms: C_9  and  C_10
REMARK    5  A    between atoms: C_14  and  C_15
REMARK                            x       y       z     vdW  Elec       q    Type
REMARK                         _______ _______ _______ _____ _____    ______ ____
ROOT
ATOM      1  C   UNL     1      45.987   7.260  11.743  0.00  0.00    +0.000 C 
ENDROOT
BRANCH   1   2
ATOM      2  C   UNL     1      45.113   6.170  11.164  0.00  0.00    +0.000 A 
ATOM      3  C   UNL     1      43.792   6.019  11.571  0.00  0.00    +0.000 A 
ATOM      4  C   UNL     1      43.038   4.983  11.037  0.00  0.00    +0.000 A 
ATOM      5  C   UNL     1      43.621   4.122  10.115  0.00  0.00    +0.000 A 
ATOM      6  C   UNL     1      44.950   4.318   9.743  0.00  0.00    +0.000 A 
ATOM      7  N   UNL     1      45.694   5.326  10.271  0.00  0.00    +0.000 NA
BRANCH   6   8
ATOM      8  C   UNL     1      45.632   3.477   8.737  0.00  0.00    +0.000 A 
ATOM      9  C   UNL     1      46.263   4.061   7.620  0.00  0.00    +0.000 A 
ATOM     10  C   UNL     1      46.909   3.286   6.651  0.00  0.00    +0.000 A 
ATOM     11  C   UNL     1      46.939   1.902   6.780  0.00  0.00    +0.000 A 
ATOM     12  C   UNL     1      46.322   1.311   7.873  0.00  0.00    +0.000 A 
ATOM     13  F   UNL     1      46.347  -0.023   8.004  0.00  0.00    +0.000 F 
ATOM     14  C   UNL     1      45.677   2.076   8.841  0.00  0.00    +0.000 A 
ENDBRANCH   6   8
ENDBRANCH   1   2
BRANCH   1  15
ATOM     15  O   UNL     1      47.279   6.740  12.071  0.00  0.00    +0.000 OA
BRANCH  15  19
ATOM     16  C   UNL     1      47.541   4.780  15.739  0.00  0.00    +0.000 A 
ATOM     17  C   UNL     1      48.274   5.962  15.560  0.00  0.00    +0.000 A 
ATOM     18  C   UNL     1      48.216   6.649  14.343  0.00  0.00    +0.000 A 
ATOM     19  C   UNL     1      47.426   6.162  13.300  0.00  0.00    +0.000 A 
ATOM     20  C   UNL     1      46.707   4.976  13.477  0.00  0.00    +0.000 A 
ATOM     21  C   UNL     1      46.767   4.282  14.687  0.00  0.00    +0.000 A 
BRANCH  16  23
ATOM     22  N   UNL     1      48.644   4.263  17.844  0.00  0.00    +0.000 N 
ATOM     23  C   UNL     1      47.587   4.021  17.012  0.00  0.00    +0.000 C 
ATOM     24  O   UNL     1      46.700   3.238  17.327  0.00  0.00    +0.000 OA
ATOM     25  H   UNL     1      48.603   3.825  18.755  0.00  0.00    +0.000 HD
ATOM     26  H   UNL     1      49.235   5.075  17.741  0.00  0.00    +0.000 HD
ENDBRANCH  16  23
ENDBRANCH  15  19
ENDBRANCH   1  15
TORSDOF 5
ENDMDL
MODEL 8
REMARK VINA RESULT:    -7.433      3.608      7.330
REMARK INTER + INTRA:         -10.458
REMARK INTER:                  -9.820
REMARK INTRA:                  -0.638
REMARK UNBOUND:                -0.852
REMARK  Name = 
REMARK  5 active torsions:
REMARK  status: ('A' for Active; 'I' for Inactive)
REMARK    1  A    between atoms: C_2  and  C_4
REMARK    2  A    between atoms: C_7  and  O_8
REMARK    3  A    between atoms: O_8  and  C_9
REMARK    4  A    between atoms: C_9  and  C_10
REMARK    5  A    between atoms: C_14  and  C_15
REMARK                            x       y       z     vdW  Elec       q    Type
REMARK                         _______ _______ _______ _____ _____    ______ ____
ROOT
ATOM      1  C   UNL     1      44.957   6.502  11.550  0.00  0.00    +0.000 C 
ENDROOT
BRANCH   1   2
ATOM      2  C   UNL     1      44.587   5.092  11.145  0.00  0.00    +0.000 A 
ATOM      3  C   UNL     1      43.633   4.369  11.854  0.00  0.00    +0.000 A 
ATOM      4  C   UNL     1      43.351   3.067  11.466  0.00  0.00    +0.000 A 
ATOM      5  C   UNL     1      44.030   2.517  10.385  0.00  0.00    +0.000 A 
ATOM      6  C   UNL     1      44.979   3.284   9.711  0.00  0.00    +0.000 A 
ATOM      7  N   UNL     1      45.263   4.557  10.094  0.00  0.00    +0.000 NA
BRANCH   6   8
ATOM      8  C   UNL     1      45.712   2.792   8.527  0.00  0.00    +0.000 A 
ATOM      9  C   UNL     1      46.127   3.683   7.516  0.00  0.00    +0.000 A 
ATOM     10  C   UNL     1      46.816   3.240   6.382  0.00  0.00    +0.000 A 
ATOM     11  C   UNL     1      47.108   1.889   6.235  0.00  0.00    +0.000 A 
ATOM     12  C   UNL     1      46.707   0.998   7.220  0.00  0.00    +0.000 A 
ATOM     13  F   UNL     1      46.986  -0.306   7.085  0.00  0.00    +0.000 F 
ATOM     14  C   UNL     1      46.020   1.432   8.350  0.00  0.00    +0.000 A 
ENDBRANCH   6   8
ENDBRANCH   1   2
BRANCH   1  15
ATOM     15  O   UNL     1      46.251   6.841  11.043  0.00  0.00    +0.000 OA
BRANCH  15  19
ATOM     16  C   UNL     1      49.146   7.270  14.010  0.00  0.00    +0.000 A 
ATOM     17  C   UNL     1      49.340   7.929  12.787  0.00  0.00    +0.000 A 
ATOM     18  C   UNL     1      48.393   7.809  11.765  0.00  0.00    +0.000 A 
ATOM     19  C   UNL     1      47.250   7.033  11.956  0.00  0.00    +0.000 A 
ATOM     20  C   UNL     1      47.065   6.366  13.171  0.00  0.00    +0.000 A 
ATOM     21  C   UNL     1      48.010   6.476  14.192  0.00  0.00    +0.000 A 
BRANCH  16  23
ATOM     22  N   UNL     1      51.446   7.506  14.761  0.00  0.00    +0.000 N 
ATOM     23  C   UNL     1      50.133   7.367  15.112  0.00  0.00    +0.000 C 
ATOM     24  O   UNL     1      49.789   7.362  16.287  0.00  0.00    +0.000 OA
ATOM     25  H   UNL     1      52.093   7.684  15.519  0.00  0.00    +0.000 HD
ATOM     26  H   UNL     1      51.730   7.776  13.830  0.00  0.00    +0.000 HD
ENDBRANCH  16  23
ENDBRANCH  15  19
ENDBRANCH   1  15
TORSDOF 5
ENDMDL
MODEL 9
REMARK VINA RESULT:    -7.397      4.535      8.009
REMARK INTER + INTRA:         -10.411
REMARK INTER:                  -9.899
REMARK INTRA:                  -0.512
REMARK UNBOUND:                -0.852
REMARK  Name = 
REMARK  5 active torsions:
REMARK  status: ('A' for Active; 'I' for Inactive)
REMARK    1  A    between atoms: C_2  and  C_4
REMARK    2  A    between atoms: C_7  and  O_8
REMARK    3  A    between atoms: O_8  and  C_9
REMARK    4  A    between atoms: C_9  and  C_10
REMARK    5  A    between atoms: C_14  and  C_15
REMARK                            x       y       z     vdW  Elec       q    Type
REMARK                         _______ _______ _______ _____ _____    ______ ____
ROOT
ATOM      1  C   UNL     1      46.192   5.449  13.778  0.00  0.00    +0.000 C 
ENDROOT
BRANCH   1   2
ATOM      2  C   UNL     1      45.178   5.110  12.707  0.00  0.00    +0.000 A 
ATOM      3  C   UNL     1      43.824   5.373  12.893  0.00  0.00    +0.000 A 
ATOM      4  C   UNL     1      42.927   5.014  11.897  0.00  0.00    +0.000 A 
ATOM      5  C   UNL     1      43.400   4.399  10.744  0.00  0.00    +0.000 A 
ATOM      6  C   UNL     1      44.766   4.157  10.610  0.00  0.00    +0.000 A 
ATOM      7  N   UNL     1      45.647   4.499  11.587  0.00  0.00    +0.000 NA
BRANCH   6   8
ATOM      8  C   UNL     1      45.356   3.548   9.400  0.00  0.00    +0.000 A 
ATOM      9  C   UNL     1      45.804   4.356   8.335  0.00  0.00    +0.000 A 
ATOM     10  C   UNL     1      46.360   3.804   7.175  0.00  0.00    +0.000 A 
ATOM     11  C   UNL     1      46.480   2.424   7.057  0.00  0.00    +0.000 A 
ATOM     12  C   UNL     1      46.043   1.614   8.096  0.00  0.00    +0.000 A 
ATOM     13  F   UNL     1      46.158   0.284   7.988  0.00  0.00    +0.000 F 
ATOM     14  C   UNL     1      45.489   2.157   9.251  0.00  0.00    +0.000 A 
ENDBRANCH   6   8
ENDBRANCH   1   2
BRANCH   1  15
ATOM     15  O   UNL     1      46.380   4.333  14.654  0.00  0.00    +0.000 OA
BRANCH  15  19
ATOM     16  C   UNL     1      49.373   4.358  17.554  0.00  0.00    +0.000 A 
ATOM     17  C   UNL     1      49.087   5.553  16.879  0.00  0.00    +0.000 A 
ATOM     18  C   UNL     1      48.092   5.587  15.897  0.00  0.00    +0.000 A 
ATOM     19  C   UNL     1      47.377   4.430  15.584  0.00  0.00    +0.000 A 
ATOM     20  C   UNL     1      47.672   3.236  16.249  0.00  0.00    +0.000 A 
ATOM     21  C   UNL     1      48.669   3.195  17.225  0.00  0.00    +0.000 A 
BRANCH  16  23
ATOM     22  N   UNL     1      51.355   3.287  18.467  0.00  0.00    +0.000 N 
ATOM     23  C   UNL     1      50.427   4.282  18.594  0.00  0.00    +0.000 C 
ATOM     24  O   UNL     1      50.491   5.096  19.506  0.00  0.00    +0.000 OA
ATOM     25  H   UNL     1      52.131   3.317  19.117  0.00  0.00    +0.000 HD
ATOM     26  H   UNL     1      51.486   2.778  17.605  0.00  0.00    +0.000 HD
ENDBRANCH  16  23
ENDBRANCH  15  19
ENDBRANCH   1  15
TORSDOF 5
ENDMDL
