MODEL 1
REMARK VINA RESULT:    -8.860      0.000      0.000
REMARK INTER + INTRA:         -12.480
REMARK INTER:                 -11.449
REMARK INTRA:                  -1.031
REMARK UNBOUND:                -1.031
REMARK  Name = 
REMARK  5 active torsions:
REMARK  status: ('A' for Active; 'I' for Inactive)
REMARK    1  A    between atoms: C_2  and  C_3
REMARK    2  A    between atoms: C_6  and  C_7
REMARK    3  A    between atoms: C_11  and  C_12
REMARK    4  A    between atoms: C_12  and  N_13
REMARK    5  A    between atoms: C_17  and  C_18
REMARK                            x       y       z     vdW  Elec       q    Type
REMARK                         _______ _______ _______ _____ _____    ______ ____
ROOT
ATOM      1  C   UNL     1      43.820   4.978  11.296  0.00  0.00    +0.000 C 
ATOM      2  C   UNL     1      43.066   6.276  11.069  0.00  0.00    +0.000 C 
ATOM      3  C   UNL     1      42.478   5.254  11.981  0.00  0.00    +0.000 C 
ENDROOT
BRANCH   1   4
ATOM      4  N   UNL     1      43.781   3.814  10.391  0.00  0.00    +0.000 N 
ATOM      5  C   UNL     1      44.778   3.499   9.469  0.00  0.00    +0.000 A 
ATOM      6  C   UNL     1      45.410   4.445   8.672  0.00  0.00    +0.000 A 
ATOM      7  C   UNL     1      46.285   4.019   7.669  0.00  0.00    +0.000 A 
ATOM      8  C   UNL     1      46.513   2.657   7.489  0.00  0.00    +0.000 A 
ATOM      9  C   UNL     1      45.886   1.786   8.360  0.00  0.00    +0.000 A 
ATOM     10  N   UNL     1      45.021   2.178   9.327  0.00  0.00    +0.000 NA
ATOM     11  H   UNL     1      43.558   2.937  10.862  0.00  0.00    +0.000 HD
BRANCH   8  12
ATOM     12  C   UNL     1      47.409   2.196   6.408  0.00  0.00    +0.000 C 
ATOM     13  N   UNL     1      47.669   3.058   5.377  0.00  0.00    +0.000 N 
ATOM     14  O   UNL     1      47.933   1.091   6.451  0.00  0.00    +0.000 OA
ATOM     15  H   UNL     1      47.397   4.030   5.357  0.00  0.00    +0.000 HD
ATOM     16  H   UNL     1      48.357   2.752   4.699  0.00  0.00    +0.000 HD
ENDBRANCH   8  12
ENDBRANCH   1   4
BRANCH   1  21
ATOM     17  C   UNL     1      47.063   6.169  12.712  0.00  0.00    +0.000 A 
ATOM     18  C   UNL     1      47.448   5.151  13.578  0.00  0.00    +0.000 A 
ATOM     19  C   UNL     1      46.603   4.065  13.759  0.00  0.00    +0.000 A 
ATOM     20  C   UNL     1      45.409   4.010  13.049  0.00  0.00    +0.000 A 
ATOM     21  C   UNL     1      45.082   5.040  12.167  0.00  0.00    +0.000 A 
ATOM     22  N   UNL     1      45.892   6.124  12.034  0.00  0.00    +0.000 NA
BRANCH  17  26
ATOM     23  C   UNL     1      49.537   9.542  11.701  0.00  0.00    +0.000 A 
ATOM     24  C   UNL     1      48.152   9.698  11.824  0.00  0.00    +0.000 A 
ATOM     25  C   UNL     1      47.356   8.604  12.176  0.00  0.00    +0.000 A 
ATOM     26  C   UNL     1      47.916   7.333  12.414  0.00  0.00    +0.000 A 
ATOM     27  C   UNL     1      49.308   7.206  12.304  0.00  0.00    +0.000 A 
ATOM     28  C   UNL     1      50.101   8.296  11.952  0.00  0.00    +0.000 A 
ATOM     29  F   UNL     1      51.425   8.115  11.848  0.00  0.00    +0.000 F 
BRANCH  23  31
ATOM     30  N   UNL     1      51.054  11.514  10.994  0.00  0.00    +0.000 NA
ATOM     31  C   UNL     1      50.358  10.639  11.316  0.00  0.00    +0.000 C 
ENDBRANCH  23  31
ENDBRANCH  17  26
ENDBRANCH   1  21
TORSDOF 5
ENDMDL
MODEL 2
REMARK VINA RESULT:    -6.761      5.681      8.591
REMARK INTER + INTRA:          -9.769
REMARK INTER:                  -8.756
REMARK INTRA:                  -1.012
REMARK UNBOUND:                -1.031
REMARK  Name = 
REMARK  5 active torsions:
REMARK  status: ('A' for Active; 'I' for Inactive)
REMARK    1  A    between atoms: C_2  and  C_3
REMARK    2  A    between atoms: C_6  and  C_7
REMARK    3  A    between atoms: C_11  and  C_12
REMARK    4  A    between atoms: C_12  and  N_13
REMARK    5  A    between atoms: C_17  and  C_18
REMARK                            x       y       z     vdW  Elec       q    Type
REMARK                         _______ _______ _______ _____ _____    ______ ____
ROOT
ATOM      1  C   UNL     1      48.580   5.346  17.931  0.00  0.00    +0.000 C 
ATOM      2  C   UNL     1      47.199   4.749  18.135  0.00  0.00    +0.000 C 
ATOM      3  C   UNL     1      47.553   6.004  18.857  0.00  0.00    +0.000 C 
ENDROOT
BRANCH   1   4
ATOM      4  N   UNL     1      49.799   4.905  18.636  0.00  0.00    +0.000 N 
ATOM      5  C   UNL     1      50.620   3.860  18.212  0.00  0.00    +0.000 A 
ATOM      6  C   UNL     1      50.133   2.655  17.724  0.00  0.00    +0.000 A 
ATOM      7  C   UNL     1      51.026   1.610  17.469  0.00  0.00    +0.000 A 
ATOM      8  C   UNL     1      52.387   1.797  17.703  0.00  0.00    +0.000 A 
ATOM      9  C   UNL     1      52.792   3.045  18.137  0.00  0.00    +0.000 A 
ATOM     10  N   UNL     1      51.941   4.065  18.407  0.00  0.00    +0.000 NA
ATOM     11  H   UNL     1      50.431   5.668  18.877  0.00  0.00    +0.000 HD
BRANCH   8  12
ATOM     12  C   UNL     1      53.335   0.688  17.470  0.00  0.00    +0.000 C 
ATOM     13  N   UNL     1      53.134  -0.482  18.151  0.00  0.00    +0.000 N 
ATOM     14  O   UNL     1      54.250   0.797  16.666  0.00  0.00    +0.000 OA
ATOM     15  H   UNL     1      52.318  -0.692  18.708  0.00  0.00    +0.000 HD
ATOM     16  H   UNL     1      53.741  -1.256  17.905  0.00  0.00    +0.000 HD
ENDBRANCH   8  12
ENDBRANCH   1   4
BRANCH   1  21
ATOM     17  C   UNL     1      48.276   6.289  14.331  0.00  0.00    +0.000 A 
ATOM     18  C   UNL     1      49.383   7.099  14.099  0.00  0.00    +0.000 A 
ATOM     19  C   UNL     1      50.229   7.403  15.157  0.00  0.00    +0.000 A 
ATOM     20  C   UNL     1      49.965   6.867  16.412  0.00  0.00    +0.000 A 
ATOM     21  C   UNL     1      48.860   6.032  16.587  0.00  0.00    +0.000 A 
ATOM     22  N   UNL     1      48.008   5.781  15.558  0.00  0.00    +0.000 NA
BRANCH  17  26
ATOM     23  C   UNL     1      45.477   5.137  11.272  0.00  0.00    +0.000 A 
ATOM     24  C   UNL     1      46.242   6.299  11.124  0.00  0.00    +0.000 A 
ATOM     25  C   UNL     1      47.166   6.656  12.109  0.00  0.00    +0.000 A 
ATOM     26  C   UNL     1      47.353   5.868  13.263  0.00  0.00    +0.000 A 
ATOM     27  C   UNL     1      46.590   4.697  13.380  0.00  0.00    +0.000 A 
ATOM     28  C   UNL     1      45.667   4.343  12.398  0.00  0.00    +0.000 A 
ATOM     29  F   UNL     1      44.955   3.221  12.568  0.00  0.00    +0.000 F 
BRANCH  23  31
ATOM     30  N   UNL     1      43.730   4.448   9.494  0.00  0.00    +0.000 NA
ATOM     31  C   UNL     1      44.511   4.775  10.292  0.00  0.00    +0.000 C 
ENDBRANCH  23  31
ENDBRANCH  17  26
ENDBRANCH   1  21
TORSDOF 5
ENDMDL
MODEL 3
REMARK VINA RESULT:    -6.501      4.322      6.622
REMARK INTER + INTRA:          -9.433
REMARK INTER:                  -9.037
REMARK INTRA:                  -0.396
REMARK UNBOUND:                -1.031
REMARK  Name = 
REMARK  5 active torsions:
REMARK  status: ('A' for Active; 'I' for Inactive)
REMARK    1  A    between atoms: C_2  and  C_3
REMARK    2  A    between atoms: C_6  and  C_7
REMARK    3  A    between atoms: C_11  and  C_12
REMARK    4  A    between atoms: C_12  and  N_13
REMARK    5  A    between atoms: C_17  and  C_18
REMARK                            x       y       z     vdW  Elec       q    Type
REMARK                         _______ _______ _______ _____ _____    ______ ____
ROOT
ATOM      1  C   UNL     1      47.645   8.400  13.469  0.00  0.00    +0.000 C 
ATOM      2  C   UNL     1      48.701   8.347  12.380  0.00  0.00    +0.000 C 
ATOM      3  C   UNL     1      48.059   9.655  12.696  0.00  0.00    +0.000 C 
ENDROOT
BRANCH   1   4
ATOM      4  N   UNL     1      46.225   8.044  13.282  0.00  0.00    +0.000 N 
ATOM      5  C   UNL     1      45.779   6.924  12.582  0.00  0.00    +0.000 A 
ATOM      6  C   UNL     1      46.329   6.506  11.377  0.00  0.00    +0.000 A 
ATOM      7  C   UNL     1      45.718   5.465  10.671  0.00  0.00    +0.000 A 
ATOM      8  C   UNL     1      44.574   4.862  11.190  0.00  0.00    +0.000 A 
ATOM      9  C   UNL     1      44.126   5.302  12.421  0.00  0.00    +0.000 A 
ATOM     10  N   UNL     1      44.693   6.321  13.112  0.00  0.00    +0.000 NA
ATOM     11  H   UNL     1      45.682   8.060  14.145  0.00  0.00    +0.000 HD
BRANCH   8  12
ATOM     12  C   UNL     1      43.901   3.785  10.435  0.00  0.00    +0.000 C 
ATOM     13  N   UNL     1      44.141   3.697   9.090  0.00  0.00    +0.000 N 
ATOM     14  O   UNL     1      43.179   2.974  10.999  0.00  0.00    +0.000 OA
ATOM     15  H   UNL     1      44.838   4.232   8.593  0.00  0.00    +0.000 HD
ATOM     16  H   UNL     1      43.741   2.897   8.614  0.00  0.00    +0.000 HD
ENDBRANCH   8  12
ENDBRANCH   1   4
BRANCH   1  21
ATOM     17  C   UNL     1      49.059   6.926  16.594  0.00  0.00    +0.000 A 
ATOM     18  C   UNL     1      48.869   7.917  17.552  0.00  0.00    +0.000 A 
ATOM     19  C   UNL     1      48.317   9.130  17.166  0.00  0.00    +0.000 A 
ATOM     20  C   UNL     1      47.943   9.312  15.839  0.00  0.00    +0.000 A 
ATOM     21  C   UNL     1      48.124   8.276  14.922  0.00  0.00    +0.000 A 
ATOM     22  N   UNL     1      48.712   7.110  15.298  0.00  0.00    +0.000 NA
BRANCH  17  26
ATOM     23  C   UNL     1      50.634   3.003  17.404  0.00  0.00    +0.000 A 
ATOM     24  C   UNL     1      51.470   4.124  17.470  0.00  0.00    +0.000 A 
ATOM     25  C   UNL     1      50.948   5.398  17.229  0.00  0.00    +0.000 A 
ATOM     26  C   UNL     1      49.586   5.588  16.919  0.00  0.00    +0.000 A 
ATOM     27  C   UNL     1      48.765   4.453  16.877  0.00  0.00    +0.000 A 
ATOM     28  C   UNL     1      49.286   3.183  17.115  0.00  0.00    +0.000 A 
ATOM     29  F   UNL     1      48.458   2.131  17.050  0.00  0.00    +0.000 F 
BRANCH  23  31
ATOM     30  N   UNL     1      51.557   0.616  17.777  0.00  0.00    +0.000 NA
ATOM     31  C   UNL     1      51.156   1.697  17.617  0.00  0.00    +0.000 C 
ENDBRANCH  23  31
ENDBRANCH  17  26
ENDBRANCH   1  21
TORSDOF 5
ENDMDL
MODEL 4
REMARK VINA RESULT:    -6.458      5.385      8.717
REMARK INTER + INTRA:          -9.377
REMARK INTER:                  -8.342
REMARK INTRA:                  -1.035
REMARK UNBOUND:                -1.031
REMARK  Name = 
REMARK  5 active torsions:
REMARK  status: ('A' for Active; 'I' for Inactive)
REMARK    1  A    between atoms: C_2  and  C_3
REMARK    2  A    between atoms: C_6  and  C_7
REMARK    3  A    between atoms: C_11  and  C_12
REMARK    4  A    between atoms: C_12  and  N_13
REMARK    5  A    between atoms: C_17  and  C_18
REMARK                            x       y       z     vdW  Elec       q    Type
REMARK                         _______ _______ _______ _____ _____    ______ ____
ROOT
ATOM      1  C   UNL     1      49.256   7.126  17.668  0.00  0.00    +0.000 C 
ATOM      2  C   UNL     1      47.887   7.183  18.322  0.00  0.00    +0.000 C 
ATOM      3  C   UNL     1      48.792   8.361  18.445  0.00  0.00    +0.000 C 
ENDROOT
BRANCH   1   4
ATOM      4  N   UNL     1      50.444   6.481  18.259  0.00  0.00    +0.000 N 
ATOM      5  C   UNL     1      50.853   5.177  17.983  0.00  0.00    +0.000 A 
ATOM      6  C   UNL     1      49.976   4.104  17.888  0.00  0.00    +0.000 A 
ATOM      7  C   UNL     1      50.490   2.810  17.761  0.00  0.00    +0.000 A 
ATOM      8  C   UNL     1      51.870   2.620  17.725  0.00  0.00    +0.000 A 
ATOM      9  C   UNL     1      52.669   3.747  17.771  0.00  0.00    +0.000 A 
ATOM     10  N   UNL     1      52.191   5.007  17.912  0.00  0.00    +0.000 NA
ATOM     11  H   UNL     1      51.289   7.050  18.204  0.00  0.00    +0.000 HD
BRANCH   8  12
ATOM     12  C   UNL     1      52.424   1.254  17.627  0.00  0.00    +0.000 C 
ATOM     13  N   UNL     1      51.660   0.216  18.091  0.00  0.00    +0.000 N 
ATOM     14  O   UNL     1      53.515   1.050  17.114  0.00  0.00    +0.000 OA
ATOM     15  H   UNL     1      50.697   0.296  18.382  0.00  0.00    +0.000 HD
ATOM     16  H   UNL     1      52.023  -0.716  17.928  0.00  0.00    +0.000 HD
ENDBRANCH   8  12
ENDBRANCH   1   4
BRANCH   1  21
ATOM     17  C   UNL     1      48.383   6.629  14.072  0.00  0.00    +0.000 A 
ATOM     18  C   UNL     1      49.423   7.246  13.384  0.00  0.00    +0.000 A 
ATOM     19  C   UNL     1      50.414   7.899  14.103  0.00  0.00    +0.000 A 
ATOM     20  C   UNL     1      50.357   7.894  15.492  0.00  0.00    +0.000 A 
ATOM     21  C   UNL     1      49.311   7.233  16.138  0.00  0.00    +0.000 A 
ATOM     22  N   UNL     1      48.318   6.640  15.425  0.00  0.00    +0.000 NA
BRANCH  17  26
ATOM     23  C   UNL     1      45.370   4.338  12.025  0.00  0.00    +0.000 A 
ATOM     24  C   UNL     1      45.997   3.818  13.162  0.00  0.00    +0.000 A 
ATOM     25  C   UNL     1      46.958   4.575  13.837  0.00  0.00    +0.000 A 
ATOM     26  C   UNL     1      47.317   5.866  13.399  0.00  0.00    +0.000 A 
ATOM     27  C   UNL     1      46.661   6.374  12.269  0.00  0.00    +0.000 A 
ATOM     28  C   UNL     1      45.705   5.618  11.595  0.00  0.00    +0.000 A 
ATOM     29  F   UNL     1      45.119   6.148  10.513  0.00  0.00    +0.000 F 
BRANCH  23  31
ATOM     30  N   UNL     1      43.607   2.964  10.723  0.00  0.00    +0.000 NA
ATOM     31  C   UNL     1      44.411   3.568  11.309  0.00  0.00    +0.000 C 
ENDBRANCH  23  31
ENDBRANCH  17  26
ENDBRANCH   1  21
TORSDOF 5
ENDMDL
MODEL 5
REMARK VINA RESULT:    -6.431      4.415      8.649
REMARK INTER + INTRA:          -9.342
REMARK INTER:                  -8.421
REMARK INTRA:                  -0.921
REMARK UNBOUND:                -1.031
REMARK  Name = 
REMARK  5 active torsions:
REMARK  status: ('A' for Active; 'I' for Inactive)
REMARK    1  A    between atoms: C_2  and  C_3
REMARK    2  A    between atoms: C_6  and  C_7
REMARK    3  A    between atoms: C_11  and  C_12
REMARK    4  A    between atoms: C_12  and  N_13
REMARK    5  A    between atoms: C_17  and  C_18
REMARK                            x       y       z     vdW  Elec       q    Type
REMARK                         _______ _______ _______ _____ _____    ______ ____
ROOT
ATOM      1  C   UNL     1      50.279   8.506  13.437  0.00  0.00    +0.000 C 
ATOM      2  C   UNL     1      51.265   9.655  13.330  0.00  0.00    +0.000 C 
ATOM      3  C   UNL     1      51.359   8.534  12.351  0.00  0.00    +0.000 C 
ENDROOT
BRANCH   1   4
ATOM      4  N   UNL     1      50.415   7.364  14.361  0.00  0.00    +0.000 N 
ATOM      5  C   UNL     1      49.660   7.193  15.520  0.00  0.00    +0.000 A 
ATOM      6  C   UNL     1      49.365   8.225  16.401  0.00  0.00    +0.000 A 
ATOM      7  C   UNL     1      48.734   7.931  17.613  0.00  0.00    +0.000 A 
ATOM      8  C   UNL     1      48.406   6.611  17.914  0.00  0.00    +0.000 A 
ATOM      9  C   UNL     1      48.685   5.653  16.958  0.00  0.00    +0.000 A 
ATOM     10  N   UNL     1      49.312   5.914  15.785  0.00  0.00    +0.000 NA
ATOM     11  H   UNL     1      50.409   6.456  13.894  0.00  0.00    +0.000 HD
BRANCH   8  12
ATOM     12  C   UNL     1      47.771   6.286  19.207  0.00  0.00    +0.000 C 
ATOM     13  N   UNL     1      46.725   5.402  19.205  0.00  0.00    +0.000 N 
ATOM     14  O   UNL     1      48.188   6.762  20.254  0.00  0.00    +0.000 OA
ATOM     15  H   UNL     1      46.432   4.859  18.406  0.00  0.00    +0.000 HD
ATOM     16  H   UNL     1      46.368   5.126  20.113  0.00  0.00    +0.000 HD
ENDBRANCH   8  12
ENDBRANCH   1   4
BRANCH   1  21
ATOM     17  C   UNL     1      46.753   7.897  12.371  0.00  0.00    +0.000 A 
ATOM     18  C   UNL     1      46.267   9.166  12.069  0.00  0.00    +0.000 A 
ATOM     19  C   UNL     1      47.087  10.267  12.271  0.00  0.00    +0.000 A 
ATOM     20  C   UNL     1      48.380  10.071  12.743  0.00  0.00    +0.000 A 
ATOM     21  C   UNL     1      48.832   8.776  13.001  0.00  0.00    +0.000 A 
ATOM     22  N   UNL     1      48.006   7.708  12.848  0.00  0.00    +0.000 NA
BRANCH  17  26
ATOM     23  C   UNL     1      44.415   4.328  11.811  0.00  0.00    +0.000 A 
ATOM     24  C   UNL     1      43.974   5.547  11.284  0.00  0.00    +0.000 A 
ATOM     25  C   UNL     1      44.749   6.698  11.449  0.00  0.00    +0.000 A 
ATOM     26  C   UNL     1      45.978   6.666  12.138  0.00  0.00    +0.000 A 
ATOM     27  C   UNL     1      46.408   5.430  12.641  0.00  0.00    +0.000 A 
ATOM     28  C   UNL     1      45.634   4.283  12.479  0.00  0.00    +0.000 A 
ATOM     29  F   UNL     1      46.087   3.130  12.991  0.00  0.00    +0.000 F 
BRANCH  23  31
ATOM     30  N   UNL     1      43.004   2.174  11.565  0.00  0.00    +0.000 NA
ATOM     31  C   UNL     1      43.624   3.152  11.678  0.00  0.00    +0.000 C 
ENDBRANCH  23  31
ENDBRANCH  17  26
ENDBRANCH   1  21
TORSDOF 5
ENDMDL
MODEL 6
REMARK VINA RESULT:    -6.357      4.435      8.545
REMARK INTER + INTRA:          -9.247
REMARK INTER:                  -8.231
REMARK INTRA:                  -1.015
REMARK UNBOUND:                -1.031
REMARK  Name = 
REMARK  5 active torsions:
REMARK  status: ('A' for Active; 'I' for Inactive)
REMARK    1  A    between atoms: C_2  and  C_3
REMARK    2  A    between atoms: C_6  and  C_7
REMARK    3  A    between atoms: C_11  and  C_12
REMARK    4  A    between atoms: C_12  and  N_13
REMARK    5  A    between atoms: C_17  and  C_18
REMARK                            x       y       z     vdW  Elec       q    Type
REMARK                         _______ _______ _______ _____ _____    ______ ____
ROOT
ATOM      1  C   UNL     1      49.129   8.228  13.349  0.00  0.00    +0.000 C 
ATOM      2  C   UNL     1      49.816   9.579  13.424  0.00  0.00    +0.000 C 
ATOM      3  C   UNL     1      50.198   8.639  12.332  0.00  0.00    +0.000 C 
ENDROOT
BRANCH   1   4
ATOM      4  N   UNL     1      49.509   7.045  14.145  0.00  0.00    +0.000 N 
ATOM      5  C   UNL     1      49.076   6.799  15.447  0.00  0.00    +0.000 A 
ATOM      6  C   UNL     1      49.005   7.780  16.428  0.00  0.00    +0.000 A 
ATOM      7  C   UNL     1      48.708   7.411  17.743  0.00  0.00    +0.000 A 
ATOM      8  C   UNL     1      48.481   6.070  18.046  0.00  0.00    +0.000 A 
ATOM      9  C   UNL     1      48.517   5.167  17.000  0.00  0.00    +0.000 A 
ATOM     10  N   UNL     1      48.821   5.501  15.723  0.00  0.00    +0.000 NA
ATOM     11  H   UNL     1      49.393   6.162  13.647  0.00  0.00    +0.000 HD
BRANCH   8  12
ATOM     12  C   UNL     1      48.201   5.666  19.439  0.00  0.00    +0.000 C 
ATOM     13  N   UNL     1      48.033   4.333  19.700  0.00  0.00    +0.000 N 
ATOM     14  O   UNL     1      48.155   6.493  20.340  0.00  0.00    +0.000 OA
ATOM     15  H   UNL     1      48.209   3.590  19.039  0.00  0.00    +0.000 HD
ATOM     16  H   UNL     1      47.935   4.074  20.675  0.00  0.00    +0.000 HD
ENDBRANCH   8  12
ENDBRANCH   1   4
BRANCH   1  21
ATOM     17  C   UNL     1      45.951   7.023  11.803  0.00  0.00    +0.000 A 
ATOM     18  C   UNL     1      45.113   8.134  11.842  0.00  0.00    +0.000 A 
ATOM     19  C   UNL     1      45.568   9.299  12.443  0.00  0.00    +0.000 A 
ATOM     20  C   UNL     1      46.856   9.335  12.963  0.00  0.00    +0.000 A 
ATOM     21  C   UNL     1      47.671   8.205  12.870  0.00  0.00    +0.000 A 
ATOM     22  N   UNL     1      47.200   7.053  12.325  0.00  0.00    +0.000 NA
BRANCH  17  26
ATOM     23  C   UNL     1      44.997   3.292   9.881  0.00  0.00    +0.000 A 
ATOM     24  C   UNL     1      44.888   3.416  11.271  0.00  0.00    +0.000 A 
ATOM     25  C   UNL     1      45.177   4.636  11.887  0.00  0.00    +0.000 A 
ATOM     26  C   UNL     1      45.578   5.762  11.139  0.00  0.00    +0.000 A 
ATOM     27  C   UNL     1      45.661   5.620   9.747  0.00  0.00    +0.000 A 
ATOM     28  C   UNL     1      45.375   4.402   9.133  0.00  0.00    +0.000 A 
ATOM     29  F   UNL     1      45.484   4.319   7.800  0.00  0.00    +0.000 F 
BRANCH  23  31
ATOM     30  N   UNL     1      44.550   1.034   8.703  0.00  0.00    +0.000 NA
ATOM     31  C   UNL     1      44.735   2.049   9.241  0.00  0.00    +0.000 C 
ENDBRANCH  23  31
ENDBRANCH  17  26
ENDBRANCH   1  21
TORSDOF 5
ENDMDL
