MODEL 1
REMARK VINA RESULT:    -8.616      0.000      0.000
REMARK INTER + INTRA:         -10.674
REMARK INTER:                 -10.127
REMARK INTRA:                  -0.548
REMARK UNBOUND:                -0.548
REMARK  Name = 
REMARK  3 active torsions:
REMARK  status: ('A' for Active; 'I' for Inactive)
REMARK    1  A    between atoms: C_2  and  C_4
REMARK    2  A    between atoms: N_8  and  C_9
REMARK    3  A    between atoms: C_9  and  C_10
REMARK                            x       y       z     vdW  Elec       q    Type
REMARK                         _______ _______ _______ _____ _____    ______ ____
ROOT
ATOM      1  C   UNL     1      46.452   2.684   7.542  0.00  0.00    +0.000 A 
ATOM      2  C   UNL     1      46.089   4.016   7.617  0.00  0.00    +0.000 A 
ATOM      3  C   UNL     1      45.263   4.416   8.669  0.00  0.00    +0.000 A 
ATOM      4  C   UNL     1      44.826   3.477   9.590  0.00  0.00    +0.000 A 
ATOM      5  N   UNL     1      43.889   3.758  10.593  0.00  0.00    +0.000 N 
ATOM      6  N   UNL     1      45.225   2.187   9.481  0.00  0.00    +0.000 NA
ATOM      7  N   UNL     1      46.047   1.780   8.457  0.00  0.00    +0.000 NA
ATOM      8  H   UNL     1      43.800   2.898  11.134  0.00  0.00    +0.000 HD
ENDROOT
BRANCH   1  10
ATOM      9  N   UNL     1      47.339   2.971   5.296  0.00  0.00    +0.000 N 
ATOM     10  C   UNL     1      47.281   2.176   6.408  0.00  0.00    +0.000 C 
ATOM     11  O   UNL     1      47.886   1.117   6.473  0.00  0.00    +0.000 OA
ATOM     12  H   UNL     1      47.910   2.678   4.514  0.00  0.00    +0.000 HD
ATOM     13  H   UNL     1      46.857   3.862   5.260  0.00  0.00    +0.000 HD
ENDBRANCH   1  10
BRANCH   5  14
ATOM     14  C   UNL     1      43.864   4.995  11.394  0.00  0.00    +0.000 C 
ATOM     15  C   UNL     1      42.606   5.144  12.241  0.00  0.00    +0.000 C 
ATOM     16  C   UNL     1      42.894   6.134  11.163  0.00  0.00    +0.000 C 
BRANCH  14  17
ATOM     17  C   UNL     1      45.224   5.314  12.009  0.00  0.00    +0.000 A 
ATOM     18  C   UNL     1      46.017   6.375  11.538  0.00  0.00    +0.000 A 
ATOM     19  C   UNL     1      47.171   6.781  12.217  0.00  0.00    +0.000 A 
ATOM     20  C   UNL     1      47.562   6.130  13.387  0.00  0.00    +0.000 A 
ATOM     21 CL   UNL     1      48.937   6.744  14.231  0.00  0.00    +0.000 Cl
ATOM     22  C   UNL     1      46.821   5.038  13.847  0.00  0.00    +0.000 A 
ATOM     23 CL   UNL     1      47.237   4.176  15.286  0.00  0.00    +0.000 Cl
ATOM     24  C   UNL     1      45.674   4.632  13.154  0.00  0.00    +0.000 A 
ENDBRANCH  14  17
ENDBRANCH   5  14
TORSDOF 3
ENDMDL
MODEL 2
REMARK VINA RESULT:    -7.528      4.411      6.607
REMARK INTER + INTRA:          -9.396
REMARK INTER:                  -9.078
REMARK INTRA:                  -0.318
REMARK UNBOUND:                -0.548
REMARK  Name = 
REMARK  3 active torsions:
REMARK  status: ('A' for Active; 'I' for Inactive)
REMARK    1  A    between atoms: C_2  and  C_4
REMARK    2  A    between atoms: N_8  and  C_9
REMARK    3  A    between atoms: C_9  and  C_10
REMARK                            x       y       z     vdW  Elec       q    Type
REMARK                         _______ _______ _______ _____ _____    ______ ____
ROOT
ATOM      1  C   UNL     1      47.914   6.428  13.873  0.00  0.00    +0.000 A 
ATOM      2  C   UNL     1      47.163   5.306  14.168  0.00  0.00    +0.000 A 
ATOM      3  C   UNL     1      46.227   4.873  13.227  0.00  0.00    +0.000 A 
ATOM      4  C   UNL     1      46.070   5.578  12.045  0.00  0.00    +0.000 A 
ATOM      5  N   UNL     1      45.064   5.300  11.109  0.00  0.00    +0.000 N 
ATOM      6  N   UNL     1      46.843   6.662  11.796  0.00  0.00    +0.000 NA
ATOM      7  N   UNL     1      47.777   7.094  12.708  0.00  0.00    +0.000 NA
ATOM      8  H   UNL     1      45.225   5.944  10.335  0.00  0.00    +0.000 HD
ENDROOT
BRANCH   1  10
ATOM      9  N   UNL     1      48.365   7.439  16.038  0.00  0.00    +0.000 N 
ATOM     10  C   UNL     1      48.889   6.982  14.859  0.00  0.00    +0.000 C 
ATOM     11  O   UNL     1      50.089   7.013  14.635  0.00  0.00    +0.000 OA
ATOM     12  H   UNL     1      48.992   7.800  16.745  0.00  0.00    +0.000 HD
ATOM     13  H   UNL     1      47.371   7.383  16.229  0.00  0.00    +0.000 HD
ENDBRANCH   1  10
BRANCH   5  14
ATOM     14  C   UNL     1      44.644   3.946  10.706  0.00  0.00    +0.000 C 
ATOM     15  C   UNL     1      43.168   3.668  10.960  0.00  0.00    +0.000 C 
ATOM     16  C   UNL     1      44.205   2.872  11.678  0.00  0.00    +0.000 C 
BRANCH  14  17
ATOM     17  C   UNL     1      45.272   3.515   9.383  0.00  0.00    +0.000 A 
ATOM     18  C   UNL     1      45.739   4.454   8.447  0.00  0.00    +0.000 A 
ATOM     19  C   UNL     1      46.477   4.061   7.325  0.00  0.00    +0.000 A 
ATOM     20  C   UNL     1      46.765   2.713   7.113  0.00  0.00    +0.000 A 
ATOM     21 CL   UNL     1      47.766   2.305   5.766  0.00  0.00    +0.000 Cl
ATOM     22  C   UNL     1      46.268   1.755   7.999  0.00  0.00    +0.000 A 
ATOM     23 CL   UNL     1      46.578   0.066   7.808  0.00  0.00    +0.000 Cl
ATOM     24  C   UNL     1      45.520   2.157   9.113  0.00  0.00    +0.000 A 
ENDBRANCH  14  17
ENDBRANCH   5  14
TORSDOF 3
ENDMDL
MODEL 3
REMARK VINA RESULT:    -6.534      4.772      6.520
REMARK INTER + INTRA:          -8.227
REMARK INTER:                  -8.465
REMARK INTRA:                   0.238
REMARK UNBOUND:                -0.548
REMARK  Name = 
REMARK  3 active torsions:
REMARK  status: ('A' for Active; 'I' for Inactive)
REMARK    1  A    between atoms: C_2  and  C_4
REMARK    2  A    between atoms: N_8  and  C_9
REMARK    3  A    between atoms: C_9  and  C_10
REMARK                            x       y       z     vdW  Elec       q    Type
REMARK                         _______ _______ _______ _____ _____    ______ ____
ROOT
ATOM      1  C   UNL     1      48.835   6.910  14.300  0.00  0.00    +0.000 A 
ATOM      2  C   UNL     1      48.253   7.047  13.053  0.00  0.00    +0.000 A 
ATOM      3  C   UNL     1      47.256   6.142  12.688  0.00  0.00    +0.000 A 
ATOM      4  C   UNL     1      46.890   5.136  13.568  0.00  0.00    +0.000 A 
ATOM      5  N   UNL     1      46.003   4.104  13.235  0.00  0.00    +0.000 N 
ATOM      6  N   UNL     1      47.479   5.056  14.785  0.00  0.00    +0.000 NA
ATOM      7  N   UNL     1      48.455   5.947  15.164  0.00  0.00    +0.000 NA
ATOM      8  H   UNL     1      45.895   3.550  14.084  0.00  0.00    +0.000 HD
ENDROOT
BRANCH   1  10
ATOM      9  N   UNL     1      51.091   7.757  13.977  0.00  0.00    +0.000 N 
ATOM     10  C   UNL     1      49.950   7.805  14.731  0.00  0.00    +0.000 C 
ATOM     11  O   UNL     1      49.847   8.550  15.693  0.00  0.00    +0.000 OA
ATOM     12  H   UNL     1      51.863   8.365  14.218  0.00  0.00    +0.000 HD
ATOM     13  H   UNL     1      51.160   7.158  13.163  0.00  0.00    +0.000 HD
ENDBRANCH   1  10
BRANCH   5  14
ATOM     14  C   UNL     1      44.764   4.283  12.455  0.00  0.00    +0.000 C 
ATOM     15  C   UNL     1      43.900   5.438  12.944  0.00  0.00    +0.000 C 
ATOM     16  C   UNL     1      43.375   4.043  13.006  0.00  0.00    +0.000 C 
BRANCH  14  17
ATOM     17  C   UNL     1      44.992   4.099  10.957  0.00  0.00    +0.000 A 
ATOM     18  C   UNL     1      45.331   5.178  10.124  0.00  0.00    +0.000 A 
ATOM     19  C   UNL     1      45.719   4.981   8.794  0.00  0.00    +0.000 A 
ATOM     20  C   UNL     1      45.776   3.691   8.265  0.00  0.00    +0.000 A 
ATOM     21 CL   UNL     1      46.359   3.507   6.650  0.00  0.00    +0.000 Cl
ATOM     22  C   UNL     1      45.393   2.605   9.056  0.00  0.00    +0.000 A 
ATOM     23 CL   UNL     1      45.433   0.977   8.477  0.00  0.00    +0.000 Cl
ATOM     24  C   UNL     1      44.995   2.814  10.382  0.00  0.00    +0.000 A 
ENDBRANCH  14  17
ENDBRANCH   5  14
TORSDOF 3
ENDMDL
MODEL 4
REMARK VINA RESULT:    -5.887      2.043      2.859
REMARK INTER + INTRA:          -7.467
REMARK INTER:                  -7.811
REMARK INTRA:                   0.344
REMARK UNBOUND:                -0.548
REMARK  Name = 
REMARK  3 active torsions:
REMARK  status: ('A' for Active; 'I' for Inactive)
REMARK    1  A    between atoms: C_2  and  C_4
REMARK    2  A    between atoms: N_8  and  C_9
REMARK    3  A    between atoms: C_9  and  C_10
REMARK                            x       y       z     vdW  Elec       q    Type
REMARK                         _______ _______ _______ _____ _____    ______ ____
ROOT
ATOM      1  C   UNL     1      46.416   3.121   7.435  0.00  0.00    +0.000 A 
ATOM      2  C   UNL     1      46.382   4.374   8.019  0.00  0.00    +0.000 A 
ATOM      3  C   UNL     1      45.553   4.564   9.126  0.00  0.00    +0.000 A 
ATOM      4  C   UNL     1      44.786   3.508   9.595  0.00  0.00    +0.000 A 
ATOM      5  N   UNL     1      43.827   3.642  10.607  0.00  0.00    +0.000 N 
ATOM      6  N   UNL     1      44.869   2.295   8.997  0.00  0.00    +0.000 NA
ATOM      7  N   UNL     1      45.689   2.090   7.913  0.00  0.00    +0.000 NA
ATOM      8  H   UNL     1      43.463   2.702  10.765  0.00  0.00    +0.000 HD
ENDROOT
BRANCH   1  10
ATOM      9  N   UNL     1      48.545   2.537   6.418  0.00  0.00    +0.000 N 
ATOM     10  C   UNL     1      47.233   2.865   6.212  0.00  0.00    +0.000 C 
ATOM     11  O   UNL     1      46.755   2.929   5.090  0.00  0.00    +0.000 OA
ATOM     12  H   UNL     1      49.130   2.331   5.618  0.00  0.00    +0.000 HD
ATOM     13  H   UNL     1      48.928   2.458   7.353  0.00  0.00    +0.000 HD
ENDBRANCH   1  10
BRANCH   5  14
ATOM     14  C   UNL     1      44.003   4.448  11.829  0.00  0.00    +0.000 C 
ATOM     15  C   UNL     1      44.895   3.784  12.870  0.00  0.00    +0.000 C 
ATOM     16  C   UNL     1      43.463   4.055  13.187  0.00  0.00    +0.000 C 
BRANCH  14  17
ATOM     17  C   UNL     1      44.185   5.932  11.522  0.00  0.00    +0.000 A 
ATOM     18  C   UNL     1      43.123   6.724  11.053  0.00  0.00    +0.000 A 
ATOM     19  C   UNL     1      43.240   8.114  10.948  0.00  0.00    +0.000 A 
ATOM     20  C   UNL     1      44.430   8.747  11.312  0.00  0.00    +0.000 A 
ATOM     21 CL   UNL     1      44.475  10.472  11.257  0.00  0.00    +0.000 Cl
ATOM     22  C   UNL     1      45.518   7.978  11.731  0.00  0.00    +0.000 A 
ATOM     23 CL   UNL     1      47.025   8.681  12.198  0.00  0.00    +0.000 Cl
ATOM     24  C   UNL     1      45.394   6.586  11.821  0.00  0.00    +0.000 A 
ENDBRANCH  14  17
ENDBRANCH   5  14
TORSDOF 3
ENDMDL
MODEL 5
REMARK VINA RESULT:    -5.835      3.260      4.943
REMARK INTER + INTRA:          -7.406
REMARK INTER:                  -7.238
REMARK INTRA:                  -0.168
REMARK UNBOUND:                -0.548
REMARK  Name = 
REMARK  3 active torsions:
REMARK  status: ('A' for Active; 'I' for Inactive)
REMARK    1  A    between atoms: C_2  and  C_4
REMARK    2  A    between atoms: N_8  and  C_9
REMARK    3  A    between atoms: C_9  and  C_10
REMARK                            x       y       z     vdW  Elec       q    Type
REMARK                         _______ _______ _______ _____ _____    ______ ____
ROOT
ATOM      1  C   UNL     1      44.730   3.929  11.610  0.00  0.00    +0.000 A 
ATOM      2  C   UNL     1      45.326   4.907  10.834  0.00  0.00    +0.000 A 
ATOM      3  C   UNL     1      45.978   5.956  11.482  0.00  0.00    +0.000 A 
ATOM      4  C   UNL     1      46.000   5.996  12.868  0.00  0.00    +0.000 A 
ATOM      5  N   UNL     1      46.507   7.077  13.600  0.00  0.00    +0.000 N 
ATOM      6  N   UNL     1      45.415   5.004  13.581  0.00  0.00    +0.000 NA
ATOM      7  N   UNL     1      44.779   3.958  12.957  0.00  0.00    +0.000 NA
ATOM      8  H   UNL     1      46.430   6.805  14.580  0.00  0.00    +0.000 HD
ENDROOT
BRANCH   1  10
ATOM      9  N   UNL     1      44.504   2.265   9.851  0.00  0.00    +0.000 N 
ATOM     10  C   UNL     1      43.963   2.812  10.983  0.00  0.00    +0.000 C 
ATOM     11  O   UNL     1      42.917   2.398  11.460  0.00  0.00    +0.000 OA
ATOM     12  H   UNL     1      44.030   1.489   9.407  0.00  0.00    +0.000 HD
ATOM     13  H   UNL     1      45.386   2.595   9.477  0.00  0.00    +0.000 HD
ENDBRANCH   1  10
BRANCH   5  14
ATOM     14  C   UNL     1      47.737   7.816  13.262  0.00  0.00    +0.000 C 
ATOM     15  C   UNL     1      47.492   9.282  12.927  0.00  0.00    +0.000 C 
ATOM     16  C   UNL     1      48.042   8.367  11.885  0.00  0.00    +0.000 C 
BRANCH  14  17
ATOM     17  C   UNL     1      48.907   7.439  14.168  0.00  0.00    +0.000 A 
ATOM     18  C   UNL     1      50.210   7.903  13.922  0.00  0.00    +0.000 A 
ATOM     19  C   UNL     1      51.240   7.711  14.850  0.00  0.00    +0.000 A 
ATOM     20  C   UNL     1      50.988   7.045  16.049  0.00  0.00    +0.000 A 
ATOM     21 CL   UNL     1      52.275   6.930  17.194  0.00  0.00    +0.000 Cl
ATOM     22  C   UNL     1      49.714   6.527  16.294  0.00  0.00    +0.000 A 
ATOM     23 CL   UNL     1      49.319   5.689  17.753  0.00  0.00    +0.000 Cl
ATOM     24  C   UNL     1      48.693   6.714  15.355  0.00  0.00    +0.000 A 
ENDBRANCH  14  17
ENDBRANCH   5  14
TORSDOF 3
ENDMDL
MODEL 6
REMARK VINA RESULT:    -5.697      4.533      6.547
REMARK INTER + INTRA:          -7.244
REMARK INTER:                  -7.246
REMARK INTRA:                   0.001
REMARK UNBOUND:                -0.548
REMARK  Name = 
REMARK  3 active torsions:
REMARK  status: ('A' for Active; 'I' for Inactive)
REMARK    1  A    between atoms: C_2  and  C_4
REMARK    2  A    between atoms: N_8  and  C_9
REMARK    3  A    between atoms: C_9  and  C_10
REMARK                            x       y       z     vdW  Elec       q    Type
REMARK                         _______ _______ _______ _____ _____    ______ ____
ROOT
ATOM      1  C   UNL     1      45.765   5.035  12.254  0.00  0.00    +0.000 A 
ATOM      2  C   UNL     1      46.595   6.093  12.576  0.00  0.00    +0.000 A 
ATOM      3  C   UNL     1      47.184   6.107  13.841  0.00  0.00    +0.000 A 
ATOM      4  C   UNL     1      46.914   5.080  14.733  0.00  0.00    +0.000 A 
ATOM      5  N   UNL     1      47.348   5.082  16.065  0.00  0.00    +0.000 N 
ATOM      6  N   UNL     1      46.107   4.058  14.362  0.00  0.00    +0.000 NA
ATOM      7  N   UNL     1      45.529   4.024  13.115  0.00  0.00    +0.000 NA
ATOM      8  H   UNL     1      47.041   4.191  16.454  0.00  0.00    +0.000 HD
ENDROOT
BRANCH   1  10
ATOM      9  N   UNL     1      45.686   5.590   9.888  0.00  0.00    +0.000 N 
ATOM     10  C   UNL     1      45.054   4.988  10.942  0.00  0.00    +0.000 C 
ATOM     11  O   UNL     1      43.974   4.432  10.811  0.00  0.00    +0.000 OA
ATOM     12  H   UNL     1      45.251   5.561   8.975  0.00  0.00    +0.000 HD
ATOM     13  H   UNL     1      46.594   6.025   9.998  0.00  0.00    +0.000 HD
ENDBRANCH   1  10
BRANCH   5  14
ATOM     14  C   UNL     1      48.682   5.522  16.513  0.00  0.00    +0.000 C 
ATOM     15  C   UNL     1      48.656   6.818  17.315  0.00  0.00    +0.000 C 
ATOM     16  C   UNL     1      49.375   6.770  16.009  0.00  0.00    +0.000 C 
BRANCH  14  17
ATOM     17  C   UNL     1      49.543   4.358  16.996  0.00  0.00    +0.000 A 
ATOM     18  C   UNL     1      49.098   3.028  16.917  0.00  0.00    +0.000 A 
ATOM     19  C   UNL     1      49.954   1.955  17.186  0.00  0.00    +0.000 A 
ATOM     20  C   UNL     1      51.282   2.189  17.543  0.00  0.00    +0.000 A 
ATOM     21 CL   UNL     1      52.312   0.821  17.761  0.00  0.00    +0.000 Cl
ATOM     22  C   UNL     1      51.736   3.503  17.680  0.00  0.00    +0.000 A 
ATOM     23 CL   UNL     1      53.363   3.881  18.119  0.00  0.00    +0.000 Cl
ATOM     24  C   UNL     1      50.868   4.571  17.420  0.00  0.00    +0.000 A 
ENDBRANCH  14  17
ENDBRANCH   5  14
TORSDOF 3
ENDMDL
MODEL 7
REMARK VINA RESULT:    -5.639      4.656      6.864
REMARK INTER + INTRA:          -7.176
REMARK INTER:                  -7.351
REMARK INTRA:                   0.175
REMARK UNBOUND:                -0.548
REMARK  Name = 
REMARK  3 active torsions:
REMARK  status: ('A' for Active; 'I' for Inactive)
REMARK    1  A    between atoms: C_2  and  C_4
REMARK    2  A    between atoms: N_8  and  C_9
REMARK    3  A    between atoms: C_9  and  C_10
REMARK                            x       y       z     vdW  Elec       q    Type
REMARK                         _______ _______ _______ _____ _____    ______ ____
ROOT
ATOM      1  C   UNL     1      48.364   3.938  16.932  0.00  0.00    +0.000 A 
ATOM      2  C   UNL     1      47.975   5.183  16.475  0.00  0.00    +0.000 A 
ATOM      3  C   UNL     1      47.408   5.271  15.203  0.00  0.00    +0.000 A 
ATOM      4  C   UNL     1      47.264   4.125  14.437  0.00  0.00    +0.000 A 
ATOM      5  N   UNL     1      46.836   4.137  13.103  0.00  0.00    +0.000 N 
ATOM      6  N   UNL     1      47.646   2.926  14.938  0.00  0.00    +0.000 NA
ATOM      7  N   UNL     1      48.196   2.821  16.194  0.00  0.00    +0.000 NA
ATOM      8  H   UNL     1      46.786   3.157  12.823  0.00  0.00    +0.000 HD
ENDROOT
BRANCH   1  10
ATOM      9  N   UNL     1      48.283   3.215  19.252  0.00  0.00    +0.000 N 
ATOM     10  C   UNL     1      49.034   3.780  18.257  0.00  0.00    +0.000 C 
ATOM     11  O   UNL     1      50.192   4.122  18.441  0.00  0.00    +0.000 OA
ATOM     12  H   UNL     1      48.705   3.066  20.159  0.00  0.00    +0.000 HD
ATOM     13  H   UNL     1      47.332   2.908  19.084  0.00  0.00    +0.000 HD
ENDBRANCH   1  10
BRANCH   5  14
ATOM     14  C   UNL     1      45.749   4.983  12.579  0.00  0.00    +0.000 C 
ATOM     15  C   UNL     1      44.389   4.675  13.193  0.00  0.00    +0.000 C 
ATOM     16  C   UNL     1      44.605   4.464  11.733  0.00  0.00    +0.000 C 
BRANCH  14  17
ATOM     17  C   UNL     1      46.180   6.437  12.403  0.00  0.00    +0.000 A 
ATOM     18  C   UNL     1      45.366   7.504  12.818  0.00  0.00    +0.000 A 
ATOM     19  C   UNL     1      45.837   8.821  12.826  0.00  0.00    +0.000 A 
ATOM     20  C   UNL     1      47.140   9.102  12.417  0.00  0.00    +0.000 A 
ATOM     21 CL   UNL     1      47.693  10.733  12.548  0.00  0.00    +0.000 Cl
ATOM     22  C   UNL     1      47.953   8.067  11.950  0.00  0.00    +0.000 A 
ATOM     23 CL   UNL     1      49.578   8.329  11.424  0.00  0.00    +0.000 Cl
ATOM     24  C   UNL     1      47.469   6.753  11.934  0.00  0.00    +0.000 A 
ENDBRANCH  14  17
ENDBRANCH   5  14
TORSDOF 3
ENDMDL
MODEL 8
REMARK VINA RESULT:    -5.636      3.358      5.269
REMARK INTER + INTRA:          -7.172
REMARK INTER:                  -7.131
REMARK INTRA:                  -0.041
REMARK UNBOUND:                -0.548
REMARK  Name = 
REMARK  3 active torsions:
REMARK  status: ('A' for Active; 'I' for Inactive)
REMARK    1  A    between atoms: C_2  and  C_4
REMARK    2  A    between atoms: N_8  and  C_9
REMARK    3  A    between atoms: C_9  and  C_10
REMARK                            x       y       z     vdW  Elec       q    Type
REMARK                         _______ _______ _______ _____ _____    ______ ____
ROOT
ATOM      1  C   UNL     1      44.866   3.979  11.639  0.00  0.00    +0.000 A 
ATOM      2  C   UNL     1      45.383   5.032  10.908  0.00  0.00    +0.000 A 
ATOM      3  C   UNL     1      46.030   6.059  11.597  0.00  0.00    +0.000 A 
ATOM      4  C   UNL     1      46.124   6.002  12.979  0.00  0.00    +0.000 A 
ATOM      5  N   UNL     1      46.629   7.048  13.761  0.00  0.00    +0.000 N 
ATOM      6  N   UNL     1      45.615   4.939  13.647  0.00  0.00    +0.000 NA
ATOM      7  N   UNL     1      44.985   3.914  12.981  0.00  0.00    +0.000 NA
ATOM      8  H   UNL     1      46.614   6.704  14.721  0.00  0.00    +0.000 HD
ENDROOT
BRANCH   1  10
ATOM      9  N   UNL     1      44.709   2.300   9.887  0.00  0.00    +0.000 N 
ATOM     10  C   UNL     1      44.109   2.879  10.973  0.00  0.00    +0.000 C 
ATOM     11  O   UNL     1      43.019   2.504  11.380  0.00  0.00    +0.000 OA
ATOM     12  H   UNL     1      44.242   1.534   9.420  0.00  0.00    +0.000 HD
ATOM     13  H   UNL     1      45.625   2.597   9.572  0.00  0.00    +0.000 HD
ENDBRANCH   1  10
BRANCH   5  14
ATOM     14  C   UNL     1      47.812   7.858  13.416  0.00  0.00    +0.000 C 
ATOM     15  C   UNL     1      47.470   9.280  12.987  0.00  0.00    +0.000 C 
ATOM     16  C   UNL     1      48.121   8.352  12.019  0.00  0.00    +0.000 C 
BRANCH  14  17
ATOM     17  C   UNL     1      48.974   7.624  14.377  0.00  0.00    +0.000 A 
ATOM     18  C   UNL     1      48.826   6.849  15.540  0.00  0.00    +0.000 A 
ATOM     19  C   UNL     1      49.929   6.483  16.319  0.00  0.00    +0.000 A 
ATOM     20  C   UNL     1      51.213   6.887  15.950  0.00  0.00    +0.000 A 
ATOM     21 CL   UNL     1      52.541   6.317  16.895  0.00  0.00    +0.000 Cl
ATOM     22  C   UNL     1      51.382   7.702  14.829  0.00  0.00    +0.000 A 
ATOM     23 CL   UNL     1      52.935   8.248  14.305  0.00  0.00    +0.000 Cl
ATOM     24  C   UNL     1      50.270   8.074  14.062  0.00  0.00    +0.000 A 
ENDBRANCH  14  17
ENDBRANCH   5  14
TORSDOF 3
ENDMDL
