MODEL 1
REMARK VINA RESULT:    -7.618      0.000      0.000
REMARK INTER + INTRA:         -11.296
REMARK INTER:                 -10.290
REMARK INTRA:                  -1.006
REMARK UNBOUND:                -1.006
REMARK  Name = 
REMARK  6 active torsions:
REMARK  status: ('A' for Active; 'I' for Inactive)
REMARK    1  A    between atoms: C_2  and  C_3
REMARK    2  A    between atoms: N_10  and  C_11
REMARK    3  A    between atoms: C_11  and  C_12
REMARK    4  A    between atoms: C_15  and  C_16
REMARK    5  A    between atoms: C_16  and  N_17
REMARK    6  A    between atoms: C_18  and  C_20
REMARK                            x       y       z     vdW  Elec       q    Type
REMARK                         _______ _______ _______ _____ _____    ______ ____
ROOT
ATOM      1  C   UNL     1      49.761   6.487  16.481  0.00  0.00    +0.000 A 
ATOM      2  C   UNL     1      50.458   7.467  15.775  0.00  0.00    +0.000 A 
ATOM      3  C   UNL     1      50.014   7.844  14.507  0.00  0.00    +0.000 A 
ATOM      4  C   UNL     1      48.879   7.244  13.961  0.00  0.00    +0.000 A 
ATOM      5  C   UNL     1      48.257   6.265  14.728  0.00  0.00    +0.000 A 
ATOM      6  N   UNL     1      48.657   5.886  15.969  0.00  0.00    +0.000 NA
ENDROOT
BRANCH   1   7
ATOM      7  C   UNL     1      50.232   6.042  17.854  0.00  0.00    +0.000 C 
BRANCH   7  15
ATOM      8  C   UNL     1      51.613   1.853  17.479  0.00  0.00    +0.000 A 
ATOM      9  C   UNL     1      52.377   0.761  17.852  0.00  0.00    +0.000 A 
ATOM     10  C   UNL     1      53.579   1.249  18.410  0.00  0.00    +0.000 A 
ATOM     11  C   UNL     1      53.532   2.618  18.326  0.00  0.00    +0.000 A 
ATOM     12  N   UNL     1      52.314   3.008  17.792  0.00  0.00    +0.000 N 
ATOM     13  C   UNL     1      51.969   4.351  17.545  0.00  0.00    +0.000 C 
ATOM     14  O   UNL     1      52.825   5.120  17.140  0.00  0.00    +0.000 OA
ATOM     15  N   UNL     1      50.681   4.660  17.911  0.00  0.00    +0.000 N 
ATOM     16  H   UNL     1      50.159   4.042  18.520  0.00  0.00    +0.000 HD
BRANCH   8  18
ATOM     17  N   UNL     1      49.373   1.776  16.198  0.00  0.00    +0.000 NA
ATOM     18  C   UNL     1      50.380   1.809  16.770  0.00  0.00    +0.000 C 
ENDBRANCH   8  18
ENDBRANCH   7  15
ENDBRANCH   1   7
BRANCH   4  19
ATOM     19  C   UNL     1      48.367   7.615  12.598  0.00  0.00    +0.000 C 
BRANCH  19  20
ATOM     20  N   UNL     1      47.577   6.560  12.020  0.00  0.00    +0.000 N 
ATOM     21  C   UNL     1      46.310   6.809  11.547  0.00  0.00    +0.000 C 
ATOM     22  O   UNL     1      45.748   7.887  11.727  0.00  0.00    +0.000 OA
ATOM     23  H   UNL     1      48.071   5.739  11.682  0.00  0.00    +0.000 HD
BRANCH  21  24
ATOM     24  C   UNL     1      45.641   5.715  10.834  0.00  0.00    +0.000 A 
ATOM     25  C   UNL     1      45.869   5.521   9.479  0.00  0.00    +0.000 A 
ATOM     26  S   UNL     1      45.052   4.170   8.831  0.00  0.00    +0.000 S 
ATOM     27  C   UNL     1      44.428   3.748  10.357  0.00  0.00    +0.000 A 
ATOM     28  N   UNL     1      43.710   2.606  10.529  0.00  0.00    +0.000 NA
ATOM     29  C   UNL     1      43.319   2.401  11.743  0.00  0.00    +0.000 A 
ATOM     30  N   UNL     1      43.551   3.252  12.793  0.00  0.00    +0.000 N 
ATOM     31  C   UNL     1      44.235   4.436  12.657  0.00  0.00    +0.000 A 
ATOM     32  O   UNL     1      44.356   5.215  13.596  0.00  0.00    +0.000 OA
ATOM     33  C   UNL     1      44.759   4.678  11.327  0.00  0.00    +0.000 A 
ATOM     34  H   UNL     1      43.176   3.055  13.710  0.00  0.00    +0.000 HD
ENDBRANCH  21  24
ENDBRANCH  19  20
ENDBRANCH   4  19
TORSDOF 6
ENDMDL
MODEL 2
REMARK VINA RESULT:    -7.221      2.775      4.372
REMARK INTER + INTRA:         -10.760
REMARK INTER:                  -9.953
REMARK INTRA:                  -0.807
REMARK UNBOUND:                -1.006
REMARK  Name = 
REMARK  6 active torsions:
REMARK  status: ('A' for Active; 'I' for Inactive)
REMARK    1  A    between atoms: C_2  and  C_3
REMARK    2  A    between atoms: N_10  and  C_11
REMARK    3  A    between atoms: C_11  and  C_12
REMARK    4  A    between atoms: C_15  and  C_16
REMARK    5  A    between atoms: C_16  and  N_17
REMARK    6  A    between atoms: C_18  and  C_20
REMARK                            x       y       z     vdW  Elec       q    Type
REMARK                         _______ _______ _______ _____ _____    ______ ____
ROOT
ATOM      1  C   UNL     1      51.332   3.032  17.746  0.00  0.00    +0.000 A 
ATOM      2  C   UNL     1      50.661   1.991  17.106  0.00  0.00    +0.000 A 
ATOM      3  C   UNL     1      49.297   2.117  16.841  0.00  0.00    +0.000 A 
ATOM      4  C   UNL     1      48.621   3.281  17.210  0.00  0.00    +0.000 A 
ATOM      5  C   UNL     1      49.366   4.259  17.858  0.00  0.00    +0.000 A 
ATOM      6  N   UNL     1      50.696   4.171  18.120  0.00  0.00    +0.000 NA
ENDROOT
BRANCH   1   7
ATOM      7  C   UNL     1      52.812   2.915  18.067  0.00  0.00    +0.000 C 
BRANCH   7  15
ATOM      8  C   UNL     1      55.103  -0.703  16.948  0.00  0.00    +0.000 A 
ATOM      9  C   UNL     1      55.372  -2.060  16.983  0.00  0.00    +0.000 A 
ATOM     10  C   UNL     1      54.957  -2.549  18.240  0.00  0.00    +0.000 A 
ATOM     11  C   UNL     1      54.483  -1.473  18.950  0.00  0.00    +0.000 A 
ATOM     12  N   UNL     1      54.529  -0.338  18.157  0.00  0.00    +0.000 N 
ATOM     13  C   UNL     1      54.145   0.940  18.607  0.00  0.00    +0.000 C 
ATOM     14  O   UNL     1      54.399   1.267  19.755  0.00  0.00    +0.000 OA
ATOM     15  N   UNL     1      53.405   1.643  17.688  0.00  0.00    +0.000 N 
ATOM     16  H   UNL     1      52.986   1.169  16.897  0.00  0.00    +0.000 HD
BRANCH   8  18
ATOM     17  N   UNL     1      55.775   0.925  15.060  0.00  0.00    +0.000 NA
ATOM     18  C   UNL     1      55.472   0.197  15.911  0.00  0.00    +0.000 C 
ENDBRANCH   8  18
ENDBRANCH   7  15
ENDBRANCH   1   7
BRANCH   4  19
ATOM     19  C   UNL     1      47.152   3.458  16.949  0.00  0.00    +0.000 C 
BRANCH  19  20
ATOM     20  N   UNL     1      46.903   4.507  15.995  0.00  0.00    +0.000 N 
ATOM     21  C   UNL     1      46.907   4.246  14.646  0.00  0.00    +0.000 C 
ATOM     22  O   UNL     1      47.262   3.159  14.194  0.00  0.00    +0.000 OA
ATOM     23  H   UNL     1      46.421   5.336  16.330  0.00  0.00    +0.000 HD
BRANCH  21  24
ATOM     24  C   UNL     1      46.488   5.336  13.757  0.00  0.00    +0.000 A 
ATOM     25  C   UNL     1      47.356   6.382  13.478  0.00  0.00    +0.000 A 
ATOM     26  S   UNL     1      46.722   7.528  12.384  0.00  0.00    +0.000 S 
ATOM     27  C   UNL     1      45.295   6.624  12.182  0.00  0.00    +0.000 A 
ATOM     28  N   UNL     1      44.348   7.000  11.281  0.00  0.00    +0.000 NA
ATOM     29  C   UNL     1      43.329   6.209  11.217  0.00  0.00    +0.000 A 
ATOM     30  N   UNL     1      43.155   5.095  11.997  0.00  0.00    +0.000 N 
ATOM     31  C   UNL     1      44.064   4.701  12.949  0.00  0.00    +0.000 A 
ATOM     32  O   UNL     1      43.843   3.747  13.687  0.00  0.00    +0.000 OA
ATOM     33  C   UNL     1      45.262   5.515  13.009  0.00  0.00    +0.000 A 
ATOM     34  H   UNL     1      42.311   4.544  11.930  0.00  0.00    +0.000 HD
ENDBRANCH  21  24
ENDBRANCH  19  20
ENDBRANCH   4  19
TORSDOF 6
ENDMDL
MODEL 3
REMARK VINA RESULT:    -7.220      3.187      9.519
REMARK INTER + INTRA:         -10.759
REMARK INTER:                  -9.837
REMARK INTRA:                  -0.922
REMARK UNBOUND:                -1.006
REMARK  Name = 
REMARK  6 active torsions:
REMARK  status: ('A' for Active; 'I' for Inactive)
REMARK    1  A    between atoms: C_2  and  C_3
REMARK    2  A    between atoms: N_10  and  C_11
REMARK    3  A    between atoms: C_11  and  C_12
REMARK    4  A    between atoms: C_15  and  C_16
REMARK    5  A    between atoms: C_16  and  N_17
REMARK    6  A    between atoms: C_18  and  C_20
REMARK                            x       y       z     vdW  Elec       q    Type
REMARK                         _______ _______ _______ _____ _____    ______ ____
ROOT
ATOM      1  C   UNL     1      47.033   5.634  14.286  0.00  0.00    +0.000 A 
ATOM      2  C   UNL     1      48.079   6.366  14.847  0.00  0.00    +0.000 A 
ATOM      3  C   UNL     1      48.727   5.875  15.981  0.00  0.00    +0.000 A 
ATOM      4  C   UNL     1      48.330   4.658  16.537  0.00  0.00    +0.000 A 
ATOM      5  C   UNL     1      47.268   4.004  15.921  0.00  0.00    +0.000 A 
ATOM      6  N   UNL     1      46.625   4.451  14.811  0.00  0.00    +0.000 NA
ENDROOT
BRANCH   1   7
ATOM      7  C   UNL     1      46.295   6.154  13.065  0.00  0.00    +0.000 C 
BRANCH   7  15
ATOM      8  C   UNL     1      44.521   3.169  10.320  0.00  0.00    +0.000 A 
ATOM      9  C   UNL     1      44.482   2.429   9.151  0.00  0.00    +0.000 A 
ATOM     10  C   UNL     1      45.099   3.193   8.137  0.00  0.00    +0.000 A 
ATOM     11  C   UNL     1      45.461   4.389   8.703  0.00  0.00    +0.000 A 
ATOM     12  N   UNL     1      45.149   4.377  10.054  0.00  0.00    +0.000 N 
ATOM     13  C   UNL     1      45.365   5.473  10.911  0.00  0.00    +0.000 C 
ATOM     14  O   UNL     1      45.180   6.604  10.488  0.00  0.00    +0.000 OA
ATOM     15  N   UNL     1      45.881   5.117  12.133  0.00  0.00    +0.000 N 
ATOM     16  H   UNL     1      46.288   4.200  12.270  0.00  0.00    +0.000 HD
BRANCH   8  18
ATOM     17  N   UNL     1      43.403   2.528  12.557  0.00  0.00    +0.000 NA
ATOM     18  C   UNL     1      43.905   2.820  11.553  0.00  0.00    +0.000 C 
ENDBRANCH   8  18
ENDBRANCH   7  15
ENDBRANCH   1   7
BRANCH   4  19
ATOM     19  C   UNL     1      48.996   4.093  17.759  0.00  0.00    +0.000 C 
BRANCH  19  20
ATOM     20  N   UNL     1      50.381   3.786  17.519  0.00  0.00    +0.000 N 
ATOM     21  C   UNL     1      51.332   4.026  18.482  0.00  0.00    +0.000 C 
ATOM     22  O   UNL     1      51.071   4.637  19.516  0.00  0.00    +0.000 OA
ATOM     23  H   UNL     1      50.589   3.116  16.783  0.00  0.00    +0.000 HD
BRANCH  21  24
ATOM     24  C   UNL     1      52.689   3.537  18.210  0.00  0.00    +0.000 A 
ATOM     25  C   UNL     1      53.780   4.379  18.375  0.00  0.00    +0.000 A 
ATOM     26  S   UNL     1      55.281   3.626  18.070  0.00  0.00    +0.000 S 
ATOM     27  C   UNL     1      54.530   2.126  17.784  0.00  0.00    +0.000 A 
ATOM     28  N   UNL     1      55.267   1.003  17.563  0.00  0.00    +0.000 NA
ATOM     29  C   UNL     1      54.567  -0.067  17.384  0.00  0.00    +0.000 A 
ATOM     30  N   UNL     1      53.196  -0.111  17.372  0.00  0.00    +0.000 N 
ATOM     31  C   UNL     1      52.412   1.003  17.549  0.00  0.00    +0.000 A 
ATOM     32  O   UNL     1      51.191   0.947  17.452  0.00  0.00    +0.000 OA
ATOM     33  C   UNL     1      53.150   2.220  17.827  0.00  0.00    +0.000 A 
ATOM     34  H   UNL     1      52.709  -0.974  17.180  0.00  0.00    +0.000 HD
ENDBRANCH  21  24
ENDBRANCH  19  20
ENDBRANCH   4  19
TORSDOF 6
ENDMDL
MODEL 4
REMARK VINA RESULT:    -7.147      3.062      9.345
REMARK INTER + INTRA:         -10.659
REMARK INTER:                  -9.907
REMARK INTRA:                  -0.753
REMARK UNBOUND:                -1.006
REMARK  Name = 
REMARK  6 active torsions:
REMARK  status: ('A' for Active; 'I' for Inactive)
REMARK    1  A    between atoms: C_2  and  C_3
REMARK    2  A    between atoms: N_10  and  C_11
REMARK    3  A    between atoms: C_11  and  C_12
REMARK    4  A    between atoms: C_15  and  C_16
REMARK    5  A    between atoms: C_16  and  N_17
REMARK    6  A    between atoms: C_18  and  C_20
REMARK                            x       y       z     vdW  Elec       q    Type
REMARK                         _______ _______ _______ _____ _____    ______ ____
ROOT
ATOM      1  C   UNL     1      47.410   5.426  14.578  0.00  0.00    +0.000 A 
ATOM      2  C   UNL     1      48.278   6.069  15.460  0.00  0.00    +0.000 A 
ATOM      3  C   UNL     1      48.603   5.455  16.670  0.00  0.00    +0.000 A 
ATOM      4  C   UNL     1      48.066   4.206  16.983  0.00  0.00    +0.000 A 
ATOM      5  C   UNL     1      47.197   3.646  16.052  0.00  0.00    +0.000 A 
ATOM      6  N   UNL     1      46.871   4.214  14.862  0.00  0.00    +0.000 NA
ENDROOT
BRANCH   1   7
ATOM      7  C   UNL     1      47.021   6.079  13.263  0.00  0.00    +0.000 C 
BRANCH   7  15
ATOM      8  C   UNL     1      44.577   3.562  10.567  0.00  0.00    +0.000 A 
ATOM      9  C   UNL     1      44.303   2.939   9.361  0.00  0.00    +0.000 A 
ATOM     10  C   UNL     1      44.871   3.722   8.334  0.00  0.00    +0.000 A 
ATOM     11  C   UNL     1      45.441   4.817   8.935  0.00  0.00    +0.000 A 
ATOM     12  N   UNL     1      45.303   4.715  10.310  0.00  0.00    +0.000 N 
ATOM     13  C   UNL     1      45.753   5.700  11.211  0.00  0.00    +0.000 C 
ATOM     14  O   UNL     1      45.649   6.877  10.905  0.00  0.00    +0.000 OA
ATOM     15  N   UNL     1      46.374   5.182  12.321  0.00  0.00    +0.000 N 
ATOM     16  H   UNL     1      46.685   4.218  12.331  0.00  0.00    +0.000 HD
BRANCH   8  18
ATOM     17  N   UNL     1      43.688   2.854  12.885  0.00  0.00    +0.000 NA
ATOM     18  C   UNL     1      44.085   3.169  11.842  0.00  0.00    +0.000 C 
ENDBRANCH   8  18
ENDBRANCH   7  15
ENDBRANCH   1   7
BRANCH   4  19
ATOM     19  C   UNL     1      48.384   3.510  18.275  0.00  0.00    +0.000 C 
BRANCH  19  20
ATOM     20  N   UNL     1      49.790   3.229  18.398  0.00  0.00    +0.000 N 
ATOM     21  C   UNL     1      50.425   2.408  17.496  0.00  0.00    +0.000 C 
ATOM     22  O   UNL     1      49.805   1.770  16.649  0.00  0.00    +0.000 OA
ATOM     23  H   UNL     1      50.350   3.880  18.943  0.00  0.00    +0.000 HD
BRANCH  21  24
ATOM     24  C   UNL     1      51.885   2.306  17.605  0.00  0.00    +0.000 A 
ATOM     25  C   UNL     1      52.503   1.064  17.576  0.00  0.00    +0.000 A 
ATOM     26  S   UNL     1      54.206   1.141  17.657  0.00  0.00    +0.000 S 
ATOM     27  C   UNL     1      54.182   2.843  17.653  0.00  0.00    +0.000 A 
ATOM     28  N   UNL     1      55.337   3.560  17.605  0.00  0.00    +0.000 NA
ATOM     29  C   UNL     1      55.168   4.840  17.584  0.00  0.00    +0.000 A 
ATOM     30  N   UNL     1      53.951   5.469  17.642  0.00  0.00    +0.000 N 
ATOM     31  C   UNL     1      52.762   4.786  17.733  0.00  0.00    +0.000 A 
ATOM     32  O   UNL     1      51.694   5.376  17.865  0.00  0.00    +0.000 OA
ATOM     33  C   UNL     1      52.892   3.343  17.686  0.00  0.00    +0.000 A 
ATOM     34  H   UNL     1      53.890   6.477  17.669  0.00  0.00    +0.000 HD
ENDBRANCH  21  24
ENDBRANCH  19  20
ENDBRANCH   4  19
TORSDOF 6
ENDMDL
MODEL 5
REMARK VINA RESULT:    -7.046      3.077      8.503
REMARK INTER + INTRA:         -10.524
REMARK INTER:                  -9.417
REMARK INTRA:                  -1.107
REMARK UNBOUND:                -1.006
REMARK  Name = 
REMARK  6 active torsions:
REMARK  status: ('A' for Active; 'I' for Inactive)
REMARK    1  A    between atoms: C_2  and  C_3
REMARK    2  A    between atoms: N_10  and  C_11
REMARK    3  A    between atoms: C_11  and  C_12
REMARK    4  A    between atoms: C_15  and  C_16
REMARK    5  A    between atoms: C_16  and  N_17
REMARK    6  A    between atoms: C_18  and  C_20
REMARK                            x       y       z     vdW  Elec       q    Type
REMARK                         _______ _______ _______ _____ _____    ______ ____
ROOT
ATOM      1  C   UNL     1      48.360   7.745  13.685  0.00  0.00    +0.000 A 
ATOM      2  C   UNL     1      47.923   8.789  14.499  0.00  0.00    +0.000 A 
ATOM      3  C   UNL     1      48.446   8.918  15.787  0.00  0.00    +0.000 A 
ATOM      4  C   UNL     1      49.401   8.009  16.244  0.00  0.00    +0.000 A 
ATOM      5  C   UNL     1      49.766   6.991  15.371  0.00  0.00    +0.000 A 
ATOM      6  N   UNL     1      49.285   6.846  14.109  0.00  0.00    +0.000 NA
ENDROOT
BRANCH   1   7
ATOM      7  C   UNL     1      47.794   7.567  12.287  0.00  0.00    +0.000 C 
BRANCH   7  15
ATOM      8  C   UNL     1      45.256   3.942  12.311  0.00  0.00    +0.000 A 
ATOM      9  C   UNL     1      44.284   3.105  11.790  0.00  0.00    +0.000 A 
ATOM     10  C   UNL     1      43.369   3.904  11.071  0.00  0.00    +0.000 A 
ATOM     11  C   UNL     1      43.784   5.205  11.205  0.00  0.00    +0.000 A 
ATOM     12  N   UNL     1      44.964   5.243  11.932  0.00  0.00    +0.000 N 
ATOM     13  C   UNL     1      45.628   6.438  12.272  0.00  0.00    +0.000 C 
ATOM     14  O   UNL     1      44.969   7.422  12.567  0.00  0.00    +0.000 OA
ATOM     15  N   UNL     1      46.991   6.367  12.118  0.00  0.00    +0.000 N 
ATOM     16  H   UNL     1      47.408   5.619  11.576  0.00  0.00    +0.000 HD
BRANCH   8  18
ATOM     17  N   UNL     1      47.152   3.258  13.925  0.00  0.00    +0.000 NA
ATOM     18  C   UNL     1      46.300   3.561  13.199  0.00  0.00    +0.000 C 
ENDBRANCH   8  18
ENDBRANCH   7  15
ENDBRANCH   1   7
BRANCH   4  19
ATOM     19  C   UNL     1      49.988   8.107  17.624  0.00  0.00    +0.000 C 
BRANCH  19  20
ATOM     20  N   UNL     1      50.961   7.074  17.864  0.00  0.00    +0.000 N 
ATOM     21  C   UNL     1      50.634   5.953  18.589  0.00  0.00    +0.000 C 
ATOM     22  O   UNL     1      49.561   5.851  19.180  0.00  0.00    +0.000 OA
ATOM     23  H   UNL     1      51.761   7.034  17.238  0.00  0.00    +0.000 HD
BRANCH  21  24
ATOM     24  C   UNL     1      51.637   4.884  18.648  0.00  0.00    +0.000 A 
ATOM     25  C   UNL     1      52.815   5.070  19.357  0.00  0.00    +0.000 A 
ATOM     26  S   UNL     1      53.837   3.703  19.364  0.00  0.00    +0.000 S 
ATOM     27  C   UNL     1      52.704   2.786  18.485  0.00  0.00    +0.000 A 
ATOM     28  N   UNL     1      52.914   1.466  18.234  0.00  0.00    +0.000 NA
ATOM     29  C   UNL     1      51.962   0.891  17.578  0.00  0.00    +0.000 A 
ATOM     30  N   UNL     1      50.834   1.523  17.121  0.00  0.00    +0.000 N 
ATOM     31  C   UNL     1      50.600   2.863  17.315  0.00  0.00    +0.000 A 
ATOM     32  O   UNL     1      49.622   3.419  16.825  0.00  0.00    +0.000 OA
ATOM     33  C   UNL     1      51.606   3.541  18.111  0.00  0.00    +0.000 A 
ATOM     34  H   UNL     1      50.148   1.025  16.572  0.00  0.00    +0.000 HD
ENDBRANCH  21  24
ENDBRANCH  19  20
ENDBRANCH   4  19
TORSDOF 6
ENDMDL
MODEL 6
REMARK VINA RESULT:    -6.919      3.217      4.940
REMARK INTER + INTRA:         -10.351
REMARK INTER:                  -9.557
REMARK INTRA:                  -0.795
REMARK UNBOUND:                -1.006
REMARK  Name = 
REMARK  6 active torsions:
REMARK  status: ('A' for Active; 'I' for Inactive)
REMARK    1  A    between atoms: C_2  and  C_3
REMARK    2  A    between atoms: N_10  and  C_11
REMARK    3  A    between atoms: C_11  and  C_12
REMARK    4  A    between atoms: C_15  and  C_16
REMARK    5  A    between atoms: C_16  and  N_17
REMARK    6  A    between atoms: C_18  and  C_20
REMARK                            x       y       z     vdW  Elec       q    Type
REMARK                         _______ _______ _______ _____ _____    ______ ____
ROOT
ATOM      1  C   UNL     1      47.116   5.826  13.976  0.00  0.00    +0.000 A 
ATOM      2  C   UNL     1      46.256   6.518  13.125  0.00  0.00    +0.000 A 
ATOM      3  C   UNL     1      45.294   5.812  12.402  0.00  0.00    +0.000 A 
ATOM      4  C   UNL     1      45.198   4.426  12.540  0.00  0.00    +0.000 A 
ATOM      5  C   UNL     1      46.107   3.817  13.398  0.00  0.00    +0.000 A 
ATOM      6  N   UNL     1      47.045   4.478  14.124  0.00  0.00    +0.000 NA
ENDROOT
BRANCH   1   7
ATOM      7  C   UNL     1      48.186   6.565  14.760  0.00  0.00    +0.000 C 
BRANCH   7  15
ATOM      8  C   UNL     1      48.850   4.713  18.724  0.00  0.00    +0.000 A 
ATOM      9  C   UNL     1      49.247   4.730  20.050  0.00  0.00    +0.000 A 
ATOM     10  C   UNL     1      50.272   5.693  20.180  0.00  0.00    +0.000 A 
ATOM     11  C   UNL     1      50.497   6.207  18.927  0.00  0.00    +0.000 A 
ATOM     12  N   UNL     1      49.605   5.644  18.027  0.00  0.00    +0.000 N 
ATOM     13  C   UNL     1      49.601   5.939  16.650  0.00  0.00    +0.000 C 
ATOM     14  O   UNL     1      50.665   6.108  16.075  0.00  0.00    +0.000 OA
ATOM     15  N   UNL     1      48.341   6.110  16.132  0.00  0.00    +0.000 N 
ATOM     16  H   UNL     1      47.550   6.258  16.747  0.00  0.00    +0.000 HD
BRANCH   8  18
ATOM     17  N   UNL     1      47.176   3.061  17.660  0.00  0.00    +0.000 NA
ATOM     18  C   UNL     1      47.924   3.805  18.140  0.00  0.00    +0.000 C 
ENDBRANCH   8  18
ENDBRANCH   7  15
ENDBRANCH   1   7
BRANCH   4  19
ATOM     19  C   UNL     1      44.181   3.624  11.778  0.00  0.00    +0.000 C 
BRANCH  19  20
ATOM     20  N   UNL     1      44.803   2.743  10.825  0.00  0.00    +0.000 N 
ATOM     21  C   UNL     1      44.798   3.041   9.484  0.00  0.00    +0.000 C 
ATOM     22  O   UNL     1      44.148   3.979   9.028  0.00  0.00    +0.000 OA
ATOM     23  H   UNL     1      45.500   2.092  11.178  0.00  0.00    +0.000 HD
BRANCH  21  24
ATOM     24  C   UNL     1      45.590   2.170   8.607  0.00  0.00    +0.000 A 
ATOM     25  C   UNL     1      45.476   0.790   8.705  0.00  0.00    +0.000 A 
ATOM     26  S   UNL     1      46.426  -0.060   7.571  0.00  0.00    +0.000 S 
ATOM     27  C   UNL     1      46.963   1.388   6.855  0.00  0.00    +0.000 A 
ATOM     28  N   UNL     1      47.740   1.372   5.739  0.00  0.00    +0.000 NA
ATOM     29  C   UNL     1      48.053   2.543   5.292  0.00  0.00    +0.000 A 
ATOM     30  N   UNL     1      47.688   3.727   5.879  0.00  0.00    +0.000 N 
ATOM     31  C   UNL     1      46.939   3.790   7.029  0.00  0.00    +0.000 A 
ATOM     32  O   UNL     1      46.696   4.861   7.576  0.00  0.00    +0.000 OA
ATOM     33  C   UNL     1      46.499   2.502   7.532  0.00  0.00    +0.000 A 
ATOM     34  H   UNL     1      48.006   4.609   5.504  0.00  0.00    +0.000 HD
ENDBRANCH  21  24
ENDBRANCH  19  20
ENDBRANCH   4  19
TORSDOF 6
ENDMDL
MODEL 7
REMARK VINA RESULT:    -6.916      3.764      8.963
REMARK INTER + INTRA:         -10.347
REMARK INTER:                  -9.446
REMARK INTRA:                  -0.901
REMARK UNBOUND:                -1.006
REMARK  Name = 
REMARK  6 active torsions:
REMARK  status: ('A' for Active; 'I' for Inactive)
REMARK    1  A    between atoms: C_2  and  C_3
REMARK    2  A    between atoms: N_10  and  C_11
REMARK    3  A    between atoms: C_11  and  C_12
REMARK    4  A    between atoms: C_15  and  C_16
REMARK    5  A    between atoms: C_16  and  N_17
REMARK    6  A    between atoms: C_18  and  C_20
REMARK                            x       y       z     vdW  Elec       q    Type
REMARK                         _______ _______ _______ _____ _____    ______ ____
ROOT
ATOM      1  C   UNL     1      45.357   4.181  11.242  0.00  0.00    +0.000 A 
ATOM      2  C   UNL     1      45.790   3.947  12.546  0.00  0.00    +0.000 A 
ATOM      3  C   UNL     1      46.302   5.005  13.298  0.00  0.00    +0.000 A 
ATOM      4  C   UNL     1      46.369   6.284  12.744  0.00  0.00    +0.000 A 
ATOM      5  C   UNL     1      45.931   6.422  11.432  0.00  0.00    +0.000 A 
ATOM      6  N   UNL     1      45.417   5.415  10.679  0.00  0.00    +0.000 NA
ENDROOT
BRANCH   1   7
ATOM      7  C   UNL     1      44.816   3.045  10.392  0.00  0.00    +0.000 C 
BRANCH   7  15
ATOM      8  C   UNL     1      46.981   1.633   6.800  0.00  0.00    +0.000 A 
ATOM      9  C   UNL     1      47.801   1.806   5.699  0.00  0.00    +0.000 A 
ATOM     10  C   UNL     1      47.631   3.131   5.239  0.00  0.00    +0.000 A 
ATOM     11  C   UNL     1      46.686   3.714   6.047  0.00  0.00    +0.000 A 
ATOM     12  N   UNL     1      46.305   2.821   7.035  0.00  0.00    +0.000 N 
ATOM     13  C   UNL     1      45.323   3.107   8.003  0.00  0.00    +0.000 C 
ATOM     14  O   UNL     1      44.342   3.758   7.681  0.00  0.00    +0.000 OA
ATOM     15  N   UNL     1      45.663   2.687   9.266  0.00  0.00    +0.000 N 
ATOM     16  H   UNL     1      46.621   2.441   9.484  0.00  0.00    +0.000 HD
BRANCH   8  18
ATOM     17  N   UNL     1      46.571  -0.584   8.058  0.00  0.00    +0.000 NA
ATOM     18  C   UNL     1      46.759   0.411   7.494  0.00  0.00    +0.000 C 
ENDBRANCH   8  18
ENDBRANCH   7  15
ENDBRANCH   1   7
BRANCH   4  19
ATOM     19  C   UNL     1      46.917   7.452  13.514  0.00  0.00    +0.000 C 
BRANCH  19  20
ATOM     20  N   UNL     1      47.538   7.035  14.743  0.00  0.00    +0.000 N 
ATOM     21  C   UNL     1      48.897   6.842  14.814  0.00  0.00    +0.000 C 
ATOM     22  O   UNL     1      49.611   6.870  13.814  0.00  0.00    +0.000 OA
ATOM     23  H   UNL     1      47.023   7.198  15.605  0.00  0.00    +0.000 HD
BRANCH  21  24
ATOM     24  C   UNL     1      49.461   6.572  16.142  0.00  0.00    +0.000 A 
ATOM     25  C   UNL     1      50.524   7.328  16.616  0.00  0.00    +0.000 A 
ATOM     26  S   UNL     1      51.011   6.913  18.198  0.00  0.00    +0.000 S 
ATOM     27  C   UNL     1      49.766   5.762  18.336  0.00  0.00    +0.000 A 
ATOM     28  N   UNL     1      49.549   5.100  19.505  0.00  0.00    +0.000 NA
ATOM     29  C   UNL     1      48.557   4.274  19.473  0.00  0.00    +0.000 A 
ATOM     30  N   UNL     1      47.784   4.023  18.369  0.00  0.00    +0.000 N 
ATOM     31  C   UNL     1      47.993   4.636  17.156  0.00  0.00    +0.000 A 
ATOM     32  O   UNL     1      47.338   4.332  16.165  0.00  0.00    +0.000 OA
ATOM     33  C   UNL     1      49.050   5.629  17.159  0.00  0.00    +0.000 A 
ATOM     34  H   UNL     1      47.052   3.328  18.398  0.00  0.00    +0.000 HD
ENDBRANCH  21  24
ENDBRANCH  19  20
ENDBRANCH   4  19
TORSDOF 6
ENDMDL
MODEL 8
REMARK VINA RESULT:    -6.587      3.518      8.905
REMARK INTER + INTRA:          -9.904
REMARK INTER:                  -9.043
REMARK INTRA:                  -0.861
REMARK UNBOUND:                -1.006
REMARK  Name = 
REMARK  6 active torsions:
REMARK  status: ('A' for Active; 'I' for Inactive)
REMARK    1  A    between atoms: C_2  and  C_3
REMARK    2  A    between atoms: N_10  and  C_11
REMARK    3  A    between atoms: C_11  and  C_12
REMARK    4  A    between atoms: C_15  and  C_16
REMARK    5  A    between atoms: C_16  and  N_17
REMARK    6  A    between atoms: C_18  and  C_20
REMARK                            x       y       z     vdW  Elec       q    Type
REMARK                         _______ _______ _______ _____ _____    ______ ____
ROOT
ATOM      1  C   UNL     1      44.984   4.121  11.198  0.00  0.00    +0.000 A 
ATOM      2  C   UNL     1      45.575   4.077  12.459  0.00  0.00    +0.000 A 
ATOM      3  C   UNL     1      45.878   5.271  13.115  0.00  0.00    +0.000 A 
ATOM      4  C   UNL     1      45.581   6.493  12.509  0.00  0.00    +0.000 A 
ATOM      5  C   UNL     1      45.007   6.441  11.244  0.00  0.00    +0.000 A 
ATOM      6  N   UNL     1      44.690   5.296  10.585  0.00  0.00    +0.000 NA
ENDROOT
BRANCH   1   7
ATOM      7  C   UNL     1      44.662   2.839  10.451  0.00  0.00    +0.000 C 
BRANCH   7  15
ATOM      8  C   UNL     1      46.988   1.651   6.878  0.00  0.00    +0.000 A 
ATOM      9  C   UNL     1      47.839   1.897   5.814  0.00  0.00    +0.000 A 
ATOM     10  C   UNL     1      47.644   3.235   5.408  0.00  0.00    +0.000 A 
ATOM     11  C   UNL     1      46.656   3.755   6.207  0.00  0.00    +0.000 A 
ATOM     12  N   UNL     1      46.268   2.807   7.141  0.00  0.00    +0.000 N 
ATOM     13  C   UNL     1      45.246   3.021   8.086  0.00  0.00    +0.000 C 
ATOM     14  O   UNL     1      44.258   3.658   7.759  0.00  0.00    +0.000 OA
ATOM     15  N   UNL     1      45.556   2.555   9.341  0.00  0.00    +0.000 N 
ATOM     16  H   UNL     1      46.514   2.328   9.580  0.00  0.00    +0.000 HD
BRANCH   8  18
ATOM     17  N   UNL     1      46.604  -0.632   8.020  0.00  0.00    +0.000 NA
ATOM     18  C   UNL     1      46.780   0.394   7.510  0.00  0.00    +0.000 C 
ENDBRANCH   8  18
ENDBRANCH   7  15
ENDBRANCH   1   7
BRANCH   4  19
ATOM     19  C   UNL     1      45.894   7.803  13.175  0.00  0.00    +0.000 C 
BRANCH  19  20
ATOM     20  N   UNL     1      47.172   7.773  13.835  0.00  0.00    +0.000 N 
ATOM     21  C   UNL     1      48.338   7.885  13.116  0.00  0.00    +0.000 C 
ATOM     22  O   UNL     1      48.348   7.865  11.886  0.00  0.00    +0.000 OA
ATOM     23  H   UNL     1      47.190   7.991  14.828  0.00  0.00    +0.000 HD
BRANCH  21  24
ATOM     24  C   UNL     1      49.583   8.004  13.883  0.00  0.00    +0.000 A 
ATOM     25  C   UNL     1      50.546   8.933  13.513  0.00  0.00    +0.000 A 
ATOM     26  S   UNL     1      51.900   8.970  14.551  0.00  0.00    +0.000 S 
ATOM     27  C   UNL     1      51.211   7.802  15.579  0.00  0.00    +0.000 A 
ATOM     28  N   UNL     1      51.819   7.444  16.742  0.00  0.00    +0.000 NA
ATOM     29  C   UNL     1      51.173   6.565  17.432  0.00  0.00    +0.000 A 
ATOM     30  N   UNL     1      49.991   5.985  17.049  0.00  0.00    +0.000 N 
ATOM     31  C   UNL     1      49.362   6.284  15.865  0.00  0.00    +0.000 A 
ATOM     32  O   UNL     1      48.349   5.690  15.511  0.00  0.00    +0.000 OA
ATOM     33  C   UNL     1      50.010   7.322  15.085  0.00  0.00    +0.000 A 
ATOM     34  H   UNL     1      49.561   5.267  17.615  0.00  0.00    +0.000 HD
ENDBRANCH  21  24
ENDBRANCH  19  20
ENDBRANCH   4  19
TORSDOF 6
ENDMDL
MODEL 9
REMARK VINA RESULT:    -6.395      1.752      2.150
REMARK INTER + INTRA:          -9.644
REMARK INTER:                  -8.917
REMARK INTRA:                  -0.727
REMARK UNBOUND:                -1.006
REMARK  Name = 
REMARK  6 active torsions:
REMARK  status: ('A' for Active; 'I' for Inactive)
REMARK    1  A    between atoms: C_2  and  C_3
REMARK    2  A    between atoms: N_10  and  C_11
REMARK    3  A    between atoms: C_11  and  C_12
REMARK    4  A    between atoms: C_15  and  C_16
REMARK    5  A    between atoms: C_16  and  N_17
REMARK    6  A    between atoms: C_18  and  C_20
REMARK                            x       y       z     vdW  Elec       q    Type
REMARK                         _______ _______ _______ _____ _____    ______ ____
ROOT
ATOM      1  C   UNL     1      50.351   6.789  17.571  0.00  0.00    +0.000 A 
ATOM      2  C   UNL     1      49.509   7.858  17.874  0.00  0.00    +0.000 A 
ATOM      3  C   UNL     1      48.760   8.449  16.856  0.00  0.00    +0.000 A 
ATOM      4  C   UNL     1      48.855   7.964  15.551  0.00  0.00    +0.000 A 
ATOM      5  C   UNL     1      49.731   6.907  15.337  0.00  0.00    +0.000 A 
ATOM      6  N   UNL     1      50.464   6.303  16.308  0.00  0.00    +0.000 NA
ENDROOT
BRANCH   1   7
ATOM      7  C   UNL     1      51.194   6.139  18.653  0.00  0.00    +0.000 C 
BRANCH   7  15
ATOM      8  C   UNL     1      51.730   1.876  17.593  0.00  0.00    +0.000 A 
ATOM      9  C   UNL     1      52.317   0.629  17.726  0.00  0.00    +0.000 A 
ATOM     10  C   UNL     1      53.642   0.823  18.172  0.00  0.00    +0.000 A 
ATOM     11  C   UNL     1      53.838   2.179  18.262  0.00  0.00    +0.000 A 
ATOM     12  N   UNL     1      52.662   2.840  17.947  0.00  0.00    +0.000 N 
ATOM     13  C   UNL     1      52.545   4.243  17.913  0.00  0.00    +0.000 C 
ATOM     14  O   UNL     1      53.478   4.907  17.492  0.00  0.00    +0.000 OA
ATOM     15  N   UNL     1      51.384   4.708  18.482  0.00  0.00    +0.000 N 
ATOM     16  H   UNL     1      50.828   4.105  19.077  0.00  0.00    +0.000 HD
BRANCH   8  18
ATOM     17  N   UNL     1      49.391   2.353  16.609  0.00  0.00    +0.000 NA
ATOM     18  C   UNL     1      50.440   2.140  17.055  0.00  0.00    +0.000 C 
ENDBRANCH   8  18
ENDBRANCH   7  15
ENDBRANCH   1   7
BRANCH   4  19
ATOM     19  C   UNL     1      48.071   8.573  14.422  0.00  0.00    +0.000 C 
BRANCH  19  20
ATOM     20  N   UNL     1      47.079   7.664  13.911  0.00  0.00    +0.000 N 
ATOM     21  C   UNL     1      47.403   6.740  12.946  0.00  0.00    +0.000 C 
ATOM     22  O   UNL     1      48.494   6.746  12.379  0.00  0.00    +0.000 OA
ATOM     23  H   UNL     1      46.255   7.503  14.484  0.00  0.00    +0.000 HD
BRANCH  21  24
ATOM     24  C   UNL     1      46.373   5.753  12.599  0.00  0.00    +0.000 A 
ATOM     25  C   UNL     1      46.579   4.407  12.862  0.00  0.00    +0.000 A 
ATOM     26  S   UNL     1      45.255   3.415  12.446  0.00  0.00    +0.000 S 
ATOM     27  C   UNL     1      44.327   4.761  11.973  0.00  0.00    +0.000 A 
ATOM     28  N   UNL     1      43.026   4.620  11.599  0.00  0.00    +0.000 NA
ATOM     29  C   UNL     1      42.439   5.727  11.289  0.00  0.00    +0.000 A 
ATOM     30  N   UNL     1      43.043   6.958  11.285  0.00  0.00    +0.000 N 
ATOM     31  C   UNL     1      44.364   7.142  11.614  0.00  0.00    +0.000 A 
ATOM     32  O   UNL     1      44.898   8.242  11.523  0.00  0.00    +0.000 OA
ATOM     33  C   UNL     1      45.050   5.938  12.042  0.00  0.00    +0.000 A 
ATOM     34  H   UNL     1      42.538   7.780  10.986  0.00  0.00    +0.000 HD
ENDBRANCH  21  24
ENDBRANCH  19  20
ENDBRANCH   4  19
TORSDOF 6
ENDMDL
