MODEL 1
REMARK VINA RESULT:    -7.340      0.000      0.000
REMARK INTER + INTRA:         -11.196
REMARK INTER:                  -9.915
REMARK INTRA:                  -1.281
REMARK UNBOUND:                -1.281
REMARK  Name = 
REMARK  7 active torsions:
REMARK  status: ('A' for Active; 'I' for Inactive)
REMARK    1  A    between atoms: C_1  and  C_2
REMARK    2  A    between atoms: C_2  and  N_3
REMARK    3  A    between atoms: C_2  and  C_16
REMARK    4  A    between atoms: C_4  and  C_6
REMARK    5  A    between atoms: C_19  and  C_20
REMARK    6  A    between atoms: C_20  and  N_21
REMARK    7  A    between atoms: C_22  and  C_24
REMARK                            x       y       z     vdW  Elec       q    Type
REMARK                         _______ _______ _______ _____ _____    ______ ____
ROOT
ATOM      1  C   UNL     1      46.577   8.800  13.377  0.00  0.00    +0.000 C 
ATOM      2  C   UNL     1      47.261   7.433  13.272  0.00  0.00    +0.000 C 
ENDROOT
BRANCH   2   3
ATOM      3  C   UNL     1      46.471   6.455  12.411  0.00  0.00    +0.000 A 
ATOM      4  C   UNL     1      46.441   6.653  11.018  0.00  0.00    +0.000 A 
ATOM      5  C   UNL     1      45.651   5.845  10.189  0.00  0.00    +0.000 A 
ATOM      6  C   UNL     1      44.869   4.814  10.719  0.00  0.00    +0.000 A 
ATOM      7  C   UNL     1      44.947   4.568  12.099  0.00  0.00    +0.000 A 
ATOM      8  C   UNL     1      45.737   5.380  12.933  0.00  0.00    +0.000 A 
BRANCH   6   9
ATOM      9  C   UNL     1      43.953   4.012   9.826  0.00  0.00    +0.000 C 
BRANCH   9  10
ATOM     10  N   UNL     1      44.563   3.698   8.552  0.00  0.00    +0.000 N 
ATOM     11  C   UNL     1      45.340   2.564   8.404  0.00  0.00    +0.000 C 
ATOM     12  O   UNL     1      45.582   1.797   9.329  0.00  0.00    +0.000 OA
ATOM     13  H   UNL     1      44.179   4.144   7.731  0.00  0.00    +0.000 HD
BRANCH  11  14
ATOM     14  C   UNL     1      45.823   2.329   6.975  0.00  0.00    +0.000 C 
ATOM     15  C   UNL     1      46.764   1.149   6.830  0.00  0.00    +0.000 C 
ATOM     16  C   UNL     1      48.135   1.768   6.988  0.00  0.00    +0.000 C 
ATOM     17  O   UNL     1      48.039   3.113   6.511  0.00  0.00    +0.000 OA
ATOM     18  C   UNL     1      46.656   3.491   6.463  0.00  0.00    +0.000 C 
ENDBRANCH  11  14
ENDBRANCH   9  10
ENDBRANCH   6   9
ENDBRANCH   2   3
BRANCH   2  19
ATOM     19  N   UNL     1      47.530   6.898  14.591  0.00  0.00    +0.000 N 
ATOM     20  C   UNL     1      48.812   6.734  15.069  0.00  0.00    +0.000 C 
ATOM     21  O   UNL     1      49.802   6.980  14.388  0.00  0.00    +0.000 OA
ATOM     22  H   UNL     1      46.737   6.622  15.158  0.00  0.00    +0.000 HD
BRANCH  20  23
ATOM     23  C   UNL     1      48.934   6.301  16.463  0.00  0.00    +0.000 A 
ATOM     24  C   UNL     1      49.523   7.139  17.404  0.00  0.00    +0.000 A 
ATOM     25  S   UNL     1      49.575   6.474  18.974  0.00  0.00    +0.000 S 
ATOM     26  C   UNL     1      48.860   5.024  18.442  0.00  0.00    +0.000 A 
ATOM     27  N   UNL     1      48.652   3.989  19.299  0.00  0.00    +0.000 NA
ATOM     28  C   UNL     1      48.148   2.934  18.751  0.00  0.00    +0.000 A 
ATOM     29  N   UNL     1      47.818   2.827  17.424  0.00  0.00    +0.000 N 
ATOM     30  C   UNL     1      47.930   3.872  16.543  0.00  0.00    +0.000 A 
ATOM     31  O   UNL     1      47.485   3.785  15.404  0.00  0.00    +0.000 OA
ATOM     32  C   UNL     1      48.550   5.062  17.095  0.00  0.00    +0.000 A 
ATOM     33  H   UNL     1      47.389   1.987  17.062  0.00  0.00    +0.000 HD
ENDBRANCH  20  23
ENDBRANCH   2  19
TORSDOF 6
ENDMDL
MODEL 2
REMARK VINA RESULT:    -7.101      2.108      3.075
REMARK INTER + INTRA:         -10.873
REMARK INTER:                  -9.623
REMARK INTRA:                  -1.250
REMARK UNBOUND:                -1.281
REMARK  Name = 
REMARK  7 active torsions:
REMARK  status: ('A' for Active; 'I' for Inactive)
REMARK    1  A    between atoms: C_1  and  C_2
REMARK    2  A    between atoms: C_2  and  N_3
REMARK    3  A    between atoms: C_2  and  C_16
REMARK    4  A    between atoms: C_4  and  C_6
REMARK    5  A    between atoms: C_19  and  C_20
REMARK    6  A    between atoms: C_20  and  N_21
REMARK    7  A    between atoms: C_22  and  C_24
REMARK                            x       y       z     vdW  Elec       q    Type
REMARK                         _______ _______ _______ _____ _____    ______ ____
ROOT
ATOM      1  C   UNL     1      49.228   7.900  13.471  0.00  0.00    +0.000 C 
ATOM      2  C   UNL     1      48.523   6.623  13.940  0.00  0.00    +0.000 C 
ENDROOT
BRANCH   2   3
ATOM      3  C   UNL     1      47.365   6.232  13.029  0.00  0.00    +0.000 A 
ATOM      4  C   UNL     1      46.545   5.152  13.406  0.00  0.00    +0.000 A 
ATOM      5  C   UNL     1      45.530   4.686  12.560  0.00  0.00    +0.000 A 
ATOM      6  C   UNL     1      45.296   5.280  11.316  0.00  0.00    +0.000 A 
ATOM      7  C   UNL     1      46.066   6.400  10.965  0.00  0.00    +0.000 A 
ATOM      8  C   UNL     1      47.088   6.868  11.811  0.00  0.00    +0.000 A 
BRANCH   6   9
ATOM      9  C   UNL     1      44.262   4.709  10.377  0.00  0.00    +0.000 C 
BRANCH   9  10
ATOM     10  N   UNL     1      44.803   4.436   9.063  0.00  0.00    +0.000 N 
ATOM     11  C   UNL     1      45.325   3.191   8.761  0.00  0.00    +0.000 C 
ATOM     12  O   UNL     1      45.392   2.281   9.580  0.00  0.00    +0.000 OA
ATOM     13  H   UNL     1      44.529   5.051   8.311  0.00  0.00    +0.000 HD
BRANCH  11  14
ATOM     14  C   UNL     1      45.760   3.040   7.306  0.00  0.00    +0.000 C 
ATOM     15  C   UNL     1      46.181   1.633   6.933  0.00  0.00    +0.000 C 
ATOM     16  C   UNL     1      47.673   1.632   7.179  0.00  0.00    +0.000 C 
ATOM     17  O   UNL     1      48.130   2.970   6.958  0.00  0.00    +0.000 OA
ATOM     18  C   UNL     1      47.004   3.857   7.002  0.00  0.00    +0.000 C 
ENDBRANCH  11  14
ENDBRANCH   9  10
ENDBRANCH   6   9
ENDBRANCH   2   3
BRANCH   2  19
ATOM     19  N   UNL     1      48.105   6.753  15.321  0.00  0.00    +0.000 N 
ATOM     20  C   UNL     1      48.883   6.312  16.369  0.00  0.00    +0.000 C 
ATOM     21  O   UNL     1      49.951   5.735  16.194  0.00  0.00    +0.000 OA
ATOM     22  H   UNL     1      47.198   7.166  15.501  0.00  0.00    +0.000 HD
BRANCH  20  23
ATOM     23  C   UNL     1      48.395   6.620  17.715  0.00  0.00    +0.000 A 
ATOM     24  C   UNL     1      48.163   5.592  18.624  0.00  0.00    +0.000 A 
ATOM     25  S   UNL     1      47.603   6.135  20.141  0.00  0.00    +0.000 S 
ATOM     26  C   UNL     1      47.601   7.755  19.621  0.00  0.00    +0.000 A 
ATOM     27  N   UNL     1      47.181   8.755  20.441  0.00  0.00    +0.000 NA
ATOM     28  C   UNL     1      47.186   9.927  19.902  0.00  0.00    +0.000 A 
ATOM     29  N   UNL     1      47.589  10.194  18.618  0.00  0.00    +0.000 N 
ATOM     30  C   UNL     1      48.101   9.232  17.785  0.00  0.00    +0.000 A 
ATOM     31  O   UNL     1      48.590   9.533  16.702  0.00  0.00    +0.000 OA
ATOM     32  C   UNL     1      48.059   7.885  18.322  0.00  0.00    +0.000 A 
ATOM     33  H   UNL     1      47.607  11.140  18.265  0.00  0.00    +0.000 HD
ENDBRANCH  20  23
ENDBRANCH   2  19
TORSDOF 6
ENDMDL
MODEL 3
REMARK VINA RESULT:    -6.973      3.679      5.284
REMARK INTER + INTRA:         -10.700
REMARK INTER:                  -9.335
REMARK INTRA:                  -1.365
REMARK UNBOUND:                -1.281
REMARK  Name = 
REMARK  7 active torsions:
REMARK  status: ('A' for Active; 'I' for Inactive)
REMARK    1  A    between atoms: C_1  and  C_2
REMARK    2  A    between atoms: C_2  and  N_3
REMARK    3  A    between atoms: C_2  and  C_16
REMARK    4  A    between atoms: C_4  and  C_6
REMARK    5  A    between atoms: C_19  and  C_20
REMARK    6  A    between atoms: C_20  and  N_21
REMARK    7  A    between atoms: C_22  and  C_24
REMARK                            x       y       z     vdW  Elec       q    Type
REMARK                         _______ _______ _______ _____ _____    ______ ____
ROOT
ATOM      1  C   UNL     1      47.765   2.923  17.690  0.00  0.00    +0.000 C 
ATOM      2  C   UNL     1      48.563   4.195  17.388  0.00  0.00    +0.000 C 
ENDROOT
BRANCH   2   3
ATOM      3  C   UNL     1      48.105   4.877  16.105  0.00  0.00    +0.000 A 
ATOM      4  C   UNL     1      47.109   4.256  15.329  0.00  0.00    +0.000 A 
ATOM      5  C   UNL     1      46.720   4.786  14.091  0.00  0.00    +0.000 A 
ATOM      6  C   UNL     1      47.307   5.951  13.589  0.00  0.00    +0.000 A 
ATOM      7  C   UNL     1      48.252   6.613  14.389  0.00  0.00    +0.000 A 
ATOM      8  C   UNL     1      48.646   6.080  15.631  0.00  0.00    +0.000 A 
BRANCH   6   9
ATOM      9  C   UNL     1      46.946   6.459  12.214  0.00  0.00    +0.000 C 
BRANCH   9  10
ATOM     10  N   UNL     1      45.940   5.640  11.573  0.00  0.00    +0.000 N 
ATOM     11  C   UNL     1      44.656   6.117  11.386  0.00  0.00    +0.000 C 
ATOM     12  O   UNL     1      44.293   7.221  11.777  0.00  0.00    +0.000 OA
ATOM     13  H   UNL     1      46.263   4.861  11.016  0.00  0.00    +0.000 HD
BRANCH  11  14
ATOM     14  C   UNL     1      43.752   5.168  10.605  0.00  0.00    +0.000 C 
ATOM     15  C   UNL     1      42.906   4.265  11.481  0.00  0.00    +0.000 C 
ATOM     16  C   UNL     1      43.755   3.023  11.634  0.00  0.00    +0.000 C 
ATOM     17  O   UNL     1      44.544   2.913  10.446  0.00  0.00    +0.000 OA
ATOM     18  C   UNL     1      44.553   4.181   9.775  0.00  0.00    +0.000 C 
ENDBRANCH  11  14
ENDBRANCH   9  10
ENDBRANCH   6   9
ENDBRANCH   2   3
BRANCH   2  19
ATOM     19  N   UNL     1      49.984   3.910  17.372  0.00  0.00    +0.000 N 
ATOM     20  C   UNL     1      50.798   4.174  18.451  0.00  0.00    +0.000 C 
ATOM     21  O   UNL     1      50.382   4.716  19.469  0.00  0.00    +0.000 OA
ATOM     22  H   UNL     1      50.376   3.522  16.522  0.00  0.00    +0.000 HD
BRANCH  20  23
ATOM     23  C   UNL     1      52.188   3.721  18.342  0.00  0.00    +0.000 A 
ATOM     24  C   UNL     1      53.230   4.595  18.635  0.00  0.00    +0.000 A 
ATOM     25  S   UNL     1      54.776   3.896  18.460  0.00  0.00    +0.000 S 
ATOM     26  C   UNL     1      54.109   2.420  17.938  0.00  0.00    +0.000 A 
ATOM     27  N   UNL     1      54.906   1.378  17.577  0.00  0.00    +0.000 NA
ATOM     28  C   UNL     1      54.268   0.338  17.155  0.00  0.00    +0.000 A 
ATOM     29  N   UNL     1      52.902   0.239  17.077  0.00  0.00    +0.000 N 
ATOM     30  C   UNL     1      52.059   1.231  17.510  0.00  0.00    +0.000 A 
ATOM     31  O   UNL     1      50.848   1.047  17.564  0.00  0.00    +0.000 OA
ATOM     32  C   UNL     1      52.726   2.447  17.935  0.00  0.00    +0.000 A 
ATOM     33  H   UNL     1      52.461  -0.617  16.775  0.00  0.00    +0.000 HD
ENDBRANCH  20  23
ENDBRANCH   2  19
TORSDOF 6
ENDMDL
MODEL 4
REMARK VINA RESULT:    -6.936      2.316      3.431
REMARK INTER + INTRA:         -10.650
REMARK INTER:                  -9.292
REMARK INTRA:                  -1.357
REMARK UNBOUND:                -1.281
REMARK  Name = 
REMARK  7 active torsions:
REMARK  status: ('A' for Active; 'I' for Inactive)
REMARK    1  A    between atoms: C_1  and  C_2
REMARK    2  A    between atoms: C_2  and  N_3
REMARK    3  A    between atoms: C_2  and  C_16
REMARK    4  A    between atoms: C_4  and  C_6
REMARK    5  A    between atoms: C_19  and  C_20
REMARK    6  A    between atoms: C_20  and  N_21
REMARK    7  A    between atoms: C_22  and  C_24
REMARK                            x       y       z     vdW  Elec       q    Type
REMARK                         _______ _______ _______ _____ _____    ______ ____
ROOT
ATOM      1  C   UNL     1      47.940   2.879  15.864  0.00  0.00    +0.000 C 
ATOM      2  C   UNL     1      47.265   4.253  15.837  0.00  0.00    +0.000 C 
ENDROOT
BRANCH   2   3
ATOM      3  C   UNL     1      46.830   4.657  14.434  0.00  0.00    +0.000 A 
ATOM      4  C   UNL     1      47.313   5.866  13.899  0.00  0.00    +0.000 A 
ATOM      5  C   UNL     1      46.869   6.336  12.655  0.00  0.00    +0.000 A 
ATOM      6  C   UNL     1      45.933   5.618  11.905  0.00  0.00    +0.000 A 
ATOM      7  C   UNL     1      45.499   4.379  12.402  0.00  0.00    +0.000 A 
ATOM      8  C   UNL     1      45.941   3.907  13.651  0.00  0.00    +0.000 A 
BRANCH   6   9
ATOM      9  C   UNL     1      45.395   6.180  10.612  0.00  0.00    +0.000 C 
BRANCH   9  10
ATOM     10  N   UNL     1      44.898   5.148   9.728  0.00  0.00    +0.000 N 
ATOM     11  C   UNL     1      45.628   4.759   8.619  0.00  0.00    +0.000 C 
ATOM     12  O   UNL     1      46.693   5.280   8.308  0.00  0.00    +0.000 OA
ATOM     13  H   UNL     1      44.184   4.532  10.089  0.00  0.00    +0.000 HD
BRANCH  11  14
ATOM     14  C   UNL     1      45.012   3.592   7.853  0.00  0.00    +0.000 C 
ATOM     15  C   UNL     1      44.774   2.357   8.700  0.00  0.00    +0.000 C 
ATOM     16  C   UNL     1      46.043   1.556   8.521  0.00  0.00    +0.000 C 
ATOM     17  O   UNL     1      46.551   1.868   7.221  0.00  0.00    +0.000 OA
ATOM     18  C   UNL     1      45.938   3.081   6.763  0.00  0.00    +0.000 C 
ENDBRANCH  11  14
ENDBRANCH   9  10
ENDBRANCH   6   9
ENDBRANCH   2   3
BRANCH   2  19
ATOM     19  N   UNL     1      48.120   5.251  16.448  0.00  0.00    +0.000 N 
ATOM     20  C   UNL     1      47.988   5.623  17.767  0.00  0.00    +0.000 C 
ATOM     21  O   UNL     1      47.105   5.173  18.490  0.00  0.00    +0.000 OA
ATOM     22  H   UNL     1      48.819   5.693  15.862  0.00  0.00    +0.000 HD
BRANCH  20  23
ATOM     23  C   UNL     1      48.998   6.550  18.284  0.00  0.00    +0.000 A 
ATOM     24  C   UNL     1      48.607   7.685  18.987  0.00  0.00    +0.000 A 
ATOM     25  S   UNL     1      49.915   8.643  19.518  0.00  0.00    +0.000 S 
ATOM     26  C   UNL     1      51.045   7.605  18.783  0.00  0.00    +0.000 A 
ATOM     27  N   UNL     1      52.377   7.875  18.825  0.00  0.00    +0.000 NA
ATOM     28  C   UNL     1      53.114   7.031  18.186  0.00  0.00    +0.000 A 
ATOM     29  N   UNL     1      52.640   5.929  17.519  0.00  0.00    +0.000 N 
ATOM     30  C   UNL     1      51.316   5.571  17.523  0.00  0.00    +0.000 A 
ATOM     31  O   UNL     1      50.952   4.502  17.046  0.00  0.00    +0.000 OA
ATOM     32  C   UNL     1      50.436   6.521  18.176  0.00  0.00    +0.000 A 
ATOM     33  H   UNL     1      53.272   5.283  17.070  0.00  0.00    +0.000 HD
ENDBRANCH  20  23
ENDBRANCH   2  19
TORSDOF 6
ENDMDL
MODEL 5
REMARK VINA RESULT:    -6.830      1.862      2.336
REMARK INTER + INTRA:         -10.507
REMARK INTER:                  -9.489
REMARK INTRA:                  -1.017
REMARK UNBOUND:                -1.281
REMARK  Name = 
REMARK  7 active torsions:
REMARK  status: ('A' for Active; 'I' for Inactive)
REMARK    1  A    between atoms: C_1  and  C_2
REMARK    2  A    between atoms: C_2  and  N_3
REMARK    3  A    between atoms: C_2  and  C_16
REMARK    4  A    between atoms: C_4  and  C_6
REMARK    5  A    between atoms: C_19  and  C_20
REMARK    6  A    between atoms: C_20  and  N_21
REMARK    7  A    between atoms: C_22  and  C_24
REMARK                            x       y       z     vdW  Elec       q    Type
REMARK                         _______ _______ _______ _____ _____    ______ ____
ROOT
ATOM      1  C   UNL     1      49.633   8.167  13.037  0.00  0.00    +0.000 C 
ATOM      2  C   UNL     1      49.002   7.006  13.814  0.00  0.00    +0.000 C 
ENDROOT
BRANCH   2   3
ATOM      3  C   UNL     1      47.745   6.473  13.138  0.00  0.00    +0.000 A 
ATOM      4  C   UNL     1      47.389   6.981  11.875  0.00  0.00    +0.000 A 
ATOM      5  C   UNL     1      46.193   6.601  11.252  0.00  0.00    +0.000 A 
ATOM      6  C   UNL     1      45.314   5.702  11.864  0.00  0.00    +0.000 A 
ATOM      7  C   UNL     1      45.696   5.139  13.093  0.00  0.00    +0.000 A 
ATOM      8  C   UNL     1      46.895   5.522  13.721  0.00  0.00    +0.000 A 
BRANCH   6   9
ATOM      9  C   UNL     1      43.987   5.373  11.225  0.00  0.00    +0.000 C 
BRANCH   9  10
ATOM     10  N   UNL     1      44.140   4.624   9.996  0.00  0.00    +0.000 N 
ATOM     11  C   UNL     1      44.440   3.275  10.026  0.00  0.00    +0.000 C 
ATOM     12  O   UNL     1      44.627   2.657  11.069  0.00  0.00    +0.000 OA
ATOM     13  H   UNL     1      43.741   5.023   9.158  0.00  0.00    +0.000 HD
BRANCH  11  14
ATOM     14  C   UNL     1      44.465   2.617   8.649  0.00  0.00    +0.000 C 
ATOM     15  C   UNL     1      45.522   1.541   8.500  0.00  0.00    +0.000 C 
ATOM     16  C   UNL     1      46.716   2.290   7.953  0.00  0.00    +0.000 C 
ATOM     17  O   UNL     1      46.203   3.386   7.190  0.00  0.00    +0.000 OA
ATOM     18  C   UNL     1      44.835   3.607   7.558  0.00  0.00    +0.000 C 
ENDBRANCH  11  14
ENDBRANCH   9  10
ENDBRANCH   6   9
ENDBRANCH   2   3
BRANCH   2  19
ATOM     19  N   UNL     1      48.756   7.390  15.189  0.00  0.00    +0.000 N 
ATOM     20  C   UNL     1      49.539   6.939  16.229  0.00  0.00    +0.000 C 
ATOM     21  O   UNL     1      50.456   6.142  16.060  0.00  0.00    +0.000 OA
ATOM     22  H   UNL     1      47.965   7.996  15.374  0.00  0.00    +0.000 HD
BRANCH  20  23
ATOM     23  C   UNL     1      49.253   7.505  17.549  0.00  0.00    +0.000 A 
ATOM     24  C   UNL     1      49.800   8.731  17.914  0.00  0.00    +0.000 A 
ATOM     25  S   UNL     1      49.357   9.237  19.482  0.00  0.00    +0.000 S 
ATOM     26  C   UNL     1      48.463   7.813  19.747  0.00  0.00    +0.000 A 
ATOM     27  N   UNL     1      47.844   7.585  20.936  0.00  0.00    +0.000 NA
ATOM     28  C   UNL     1      47.244   6.445  21.017  0.00  0.00    +0.000 A 
ATOM     29  N   UNL     1      47.194   5.517  20.007  0.00  0.00    +0.000 N 
ATOM     30  C   UNL     1      47.730   5.741  18.765  0.00  0.00    +0.000 A 
ATOM     31  O   UNL     1      47.535   4.954  17.845  0.00  0.00    +0.000 OA
ATOM     32  C   UNL     1      48.470   6.982  18.642  0.00  0.00    +0.000 A 
ATOM     33  H   UNL     1      46.674   4.658  20.118  0.00  0.00    +0.000 HD
ENDBRANCH  20  23
ENDBRANCH   2  19
TORSDOF 6
ENDMDL
MODEL 6
REMARK VINA RESULT:    -6.797      2.970      8.670
REMARK INTER + INTRA:         -10.462
REMARK INTER:                  -9.228
REMARK INTRA:                  -1.234
REMARK UNBOUND:                -1.281
REMARK  Name = 
REMARK  7 active torsions:
REMARK  status: ('A' for Active; 'I' for Inactive)
REMARK    1  A    between atoms: C_1  and  C_2
REMARK    2  A    between atoms: C_2  and  N_3
REMARK    3  A    between atoms: C_2  and  C_16
REMARK    4  A    between atoms: C_4  and  C_6
REMARK    5  A    between atoms: C_19  and  C_20
REMARK    6  A    between atoms: C_20  and  N_21
REMARK    7  A    between atoms: C_22  and  C_24
REMARK                            x       y       z     vdW  Elec       q    Type
REMARK                         _______ _______ _______ _____ _____    ______ ____
ROOT
ATOM      1  C   UNL     1      48.977   7.744  11.354  0.00  0.00    +0.000 C 
ATOM      2  C   UNL     1      47.762   7.697  12.286  0.00  0.00    +0.000 C 
ENDROOT
BRANCH   2   3
ATOM      3  C   UNL     1      48.146   7.882  13.749  0.00  0.00    +0.000 A 
ATOM      4  C   UNL     1      48.671   6.782  14.453  0.00  0.00    +0.000 A 
ATOM      5  C   UNL     1      48.948   6.866  15.825  0.00  0.00    +0.000 A 
ATOM      6  C   UNL     1      48.714   8.047  16.537  0.00  0.00    +0.000 A 
ATOM      7  C   UNL     1      48.255   9.167  15.826  0.00  0.00    +0.000 A 
ATOM      8  C   UNL     1      47.974   9.084  14.450  0.00  0.00    +0.000 A 
BRANCH   6   9
ATOM      9  C   UNL     1      48.930   8.095  18.030  0.00  0.00    +0.000 C 
BRANCH   9  10
ATOM     10  N   UNL     1      49.394   6.831  18.559  0.00  0.00    +0.000 N 
ATOM     11  C   UNL     1      48.494   5.879  19.004  0.00  0.00    +0.000 C 
ATOM     12  O   UNL     1      47.282   6.062  19.010  0.00  0.00    +0.000 OA
ATOM     13  H   UNL     1      50.336   6.548  18.326  0.00  0.00    +0.000 HD
BRANCH  11  14
ATOM     14  C   UNL     1      49.145   4.568  19.434  0.00  0.00    +0.000 C 
ATOM     15  C   UNL     1      50.611   4.458  19.065  0.00  0.00    +0.000 C 
ATOM     16  C   UNL     1      50.586   3.780  17.714  0.00  0.00    +0.000 C 
ATOM     17  O   UNL     1      49.421   2.951  17.688  0.00  0.00    +0.000 OA
ATOM     18  C   UNL     1      48.528   3.373  18.728  0.00  0.00    +0.000 C 
ENDBRANCH  11  14
ENDBRANCH   9  10
ENDBRANCH   6   9
ENDBRANCH   2   3
BRANCH   2  19
ATOM     19  N   UNL     1      47.007   6.479  12.074  0.00  0.00    +0.000 N 
ATOM     20  C   UNL     1      45.634   6.438  12.182  0.00  0.00    +0.000 C 
ATOM     21  O   UNL     1      44.973   7.416  12.516  0.00  0.00    +0.000 OA
ATOM     22  H   UNL     1      47.525   5.636  11.860  0.00  0.00    +0.000 HD
BRANCH  20  23
ATOM     23  C   UNL     1      44.992   5.172  11.819  0.00  0.00    +0.000 A 
ATOM     24  C   UNL     1      44.260   4.466  12.768  0.00  0.00    +0.000 A 
ATOM     25  S   UNL     1      43.580   3.020  12.169  0.00  0.00    +0.000 S 
ATOM     26  C   UNL     1      44.283   3.261  10.638  0.00  0.00    +0.000 A 
ATOM     27  N   UNL     1      44.126   2.348   9.642  0.00  0.00    +0.000 NA
ATOM     28  C   UNL     1      44.753   2.633   8.551  0.00  0.00    +0.000 A 
ATOM     29  N   UNL     1      45.512   3.760   8.359  0.00  0.00    +0.000 N 
ATOM     30  C   UNL     1      45.628   4.748   9.304  0.00  0.00    +0.000 A 
ATOM     31  O   UNL     1      46.189   5.806   9.042  0.00  0.00    +0.000 OA
ATOM     32  C   UNL     1      44.993   4.446  10.572  0.00  0.00    +0.000 A 
ATOM     33  H   UNL     1      45.947   3.947   7.467  0.00  0.00    +0.000 HD
ENDBRANCH  20  23
ENDBRANCH   2  19
TORSDOF 6
ENDMDL
MODEL 7
REMARK VINA RESULT:    -6.228      3.910      6.353
REMARK INTER + INTRA:          -9.693
REMARK INTER:                  -8.466
REMARK INTRA:                  -1.227
REMARK UNBOUND:                -1.281
REMARK  Name = 
REMARK  7 active torsions:
REMARK  status: ('A' for Active; 'I' for Inactive)
REMARK    1  A    between atoms: C_1  and  C_2
REMARK    2  A    between atoms: C_2  and  N_3
REMARK    3  A    between atoms: C_2  and  C_16
REMARK    4  A    between atoms: C_4  and  C_6
REMARK    5  A    between atoms: C_19  and  C_20
REMARK    6  A    between atoms: C_20  and  N_21
REMARK    7  A    between atoms: C_22  and  C_24
REMARK                            x       y       z     vdW  Elec       q    Type
REMARK                         _______ _______ _______ _____ _____    ______ ____
ROOT
ATOM      1  C   UNL     1      48.718   4.802  20.495  0.00  0.00    +0.000 C 
ATOM      2  C   UNL     1      49.777   5.215  19.469  0.00  0.00    +0.000 C 
ENDROOT
BRANCH   2   3
ATOM      3  C   UNL     1      49.181   5.468  18.090  0.00  0.00    +0.000 A 
ATOM      4  C   UNL     1      48.237   4.555  17.585  0.00  0.00    +0.000 A 
ATOM      5  C   UNL     1      47.731   4.682  16.284  0.00  0.00    +0.000 A 
ATOM      6  C   UNL     1      48.146   5.723  15.447  0.00  0.00    +0.000 A 
ATOM      7  C   UNL     1      49.036   6.675  15.968  0.00  0.00    +0.000 A 
ATOM      8  C   UNL     1      49.548   6.547  17.273  0.00  0.00    +0.000 A 
BRANCH   6   9
ATOM      9  C   UNL     1      47.664   5.795  14.018  0.00  0.00    +0.000 C 
BRANCH   9  10
ATOM     10  N   UNL     1      46.535   4.922  13.775  0.00  0.00    +0.000 N 
ATOM     11  C   UNL     1      45.356   5.425  13.256  0.00  0.00    +0.000 C 
ATOM     12  O   UNL     1      45.190   6.615  13.013  0.00  0.00    +0.000 OA
ATOM     13  H   UNL     1      46.720   3.932  13.710  0.00  0.00    +0.000 HD
BRANCH  11  14
ATOM     14  C   UNL     1      44.305   4.357  12.966  0.00  0.00    +0.000 C 
ATOM     15  C   UNL     1      44.434   3.722  11.595  0.00  0.00    +0.000 C 
ATOM     16  C   UNL     1      43.536   4.571  10.725  0.00  0.00    +0.000 C 
ATOM     17  O   UNL     1      42.493   5.070  11.569  0.00  0.00    +0.000 OA
ATOM     18  C   UNL     1      42.902   4.939  12.938  0.00  0.00    +0.000 C 
ENDBRANCH  11  14
ENDBRANCH   9  10
ENDBRANCH   6   9
ENDBRANCH   2   3
BRANCH   2  19
ATOM     19  N   UNL     1      50.848   4.240  19.426  0.00  0.00    +0.000 N 
ATOM     20  C   UNL     1      52.155   4.595  19.175  0.00  0.00    +0.000 C 
ATOM     21  O   UNL     1      52.483   5.749  18.920  0.00  0.00    +0.000 OA
ATOM     22  H   UNL     1      50.604   3.267  19.567  0.00  0.00    +0.000 HD
BRANCH  20  23
ATOM     23  C   UNL     1      53.151   3.526  19.284  0.00  0.00    +0.000 A 
ATOM     24  C   UNL     1      54.252   3.683  20.120  0.00  0.00    +0.000 A 
ATOM     25  S   UNL     1      55.301   2.338  20.126  0.00  0.00    +0.000 S 
ATOM     26  C   UNL     1      54.350   1.522  18.975  0.00  0.00    +0.000 A 
ATOM     27  N   UNL     1      54.716   0.301  18.501  0.00  0.00    +0.000 NA
ATOM     28  C   UNL     1      53.930  -0.179  17.597  0.00  0.00    +0.000 A 
ATOM     29  N   UNL     1      52.799   0.445  17.135  0.00  0.00    +0.000 N 
ATOM     30  C   UNL     1      52.345   1.634  17.646  0.00  0.00    +0.000 A 
ATOM     31  O   UNL     1      51.254   2.086  17.315  0.00  0.00    +0.000 OA
ATOM     32  C   UNL     1      53.227   2.247  18.621  0.00  0.00    +0.000 A 
ATOM     33  H   UNL     1      52.201  -0.001  16.454  0.00  0.00    +0.000 HD
ENDBRANCH  20  23
ENDBRANCH   2  19
TORSDOF 6
ENDMDL
MODEL 8
REMARK VINA RESULT:    -5.695      4.086      9.225
REMARK INTER + INTRA:          -8.973
REMARK INTER:                  -7.716
REMARK INTRA:                  -1.257
REMARK UNBOUND:                -1.281
REMARK  Name = 
REMARK  7 active torsions:
REMARK  status: ('A' for Active; 'I' for Inactive)
REMARK    1  A    between atoms: C_1  and  C_2
REMARK    2  A    between atoms: C_2  and  N_3
REMARK    3  A    between atoms: C_2  and  C_16
REMARK    4  A    between atoms: C_4  and  C_6
REMARK    5  A    between atoms: C_19  and  C_20
REMARK    6  A    between atoms: C_20  and  N_21
REMARK    7  A    between atoms: C_22  and  C_24
REMARK                            x       y       z     vdW  Elec       q    Type
REMARK                         _______ _______ _______ _____ _____    ______ ____
ROOT
ATOM      1  C   UNL     1      46.177   3.977  13.307  0.00  0.00    +0.000 C 
ATOM      2  C   UNL     1      47.138   5.097  13.718  0.00  0.00    +0.000 C 
ENDROOT
BRANCH   2   3
ATOM      3  C   UNL     1      47.521   5.020  15.191  0.00  0.00    +0.000 A 
ATOM      4  C   UNL     1      48.348   6.025  15.726  0.00  0.00    +0.000 A 
ATOM      5  C   UNL     1      48.814   5.952  17.047  0.00  0.00    +0.000 A 
ATOM      6  C   UNL     1      48.469   4.879  17.875  0.00  0.00    +0.000 A 
ATOM      7  C   UNL     1      47.590   3.909  17.368  0.00  0.00    +0.000 A 
ATOM      8  C   UNL     1      47.124   3.978  16.042  0.00  0.00    +0.000 A 
BRANCH   6   9
ATOM      9  C   UNL     1      49.052   4.766  19.263  0.00  0.00    +0.000 C 
BRANCH   9  10
ATOM     10  N   UNL     1      50.357   4.140  19.261  0.00  0.00    +0.000 N 
ATOM     11  C   UNL     1      51.474   4.840  19.678  0.00  0.00    +0.000 C 
ATOM     12  O   UNL     1      51.431   6.015  20.028  0.00  0.00    +0.000 OA
ATOM     13  H   UNL     1      50.387   3.131  19.239  0.00  0.00    +0.000 HD
BRANCH  11  14
ATOM     14  C   UNL     1      52.750   4.004  19.710  0.00  0.00    +0.000 C 
ATOM     15  C   UNL     1      54.018   4.808  19.499  0.00  0.00    +0.000 C 
ATOM     16  C   UNL     1      54.237   4.737  18.004  0.00  0.00    +0.000 C 
ATOM     17  O   UNL     1      53.684   3.493  17.564  0.00  0.00    +0.000 OA
ATOM     18  C   UNL     1      52.794   2.998  18.574  0.00  0.00    +0.000 C 
ENDBRANCH  11  14
ENDBRANCH   9  10
ENDBRANCH   6   9
ENDBRANCH   2   3
BRANCH   2  19
ATOM     19  N   UNL     1      46.588   6.391  13.368  0.00  0.00    +0.000 N 
ATOM     20  C   UNL     1      47.242   7.264  12.529  0.00  0.00    +0.000 C 
ATOM     21  O   UNL     1      48.354   7.023  12.069  0.00  0.00    +0.000 OA
ATOM     22  H   UNL     1      45.701   6.652  13.782  0.00  0.00    +0.000 HD
BRANCH  20  23
ATOM     23  C   UNL     1      46.514   8.482  12.163  0.00  0.00    +0.000 A 
ATOM     24  C   UNL     1      47.108   9.728  12.340  0.00  0.00    +0.000 A 
ATOM     25  S   UNL     1      46.118  11.030  11.856  0.00  0.00    +0.000 S 
ATOM     26  C   UNL     1      44.845   9.980  11.444  0.00  0.00    +0.000 A 
ATOM     27  N   UNL     1      43.657  10.462  10.989  0.00  0.00    +0.000 NA
ATOM     28  C   UNL     1      42.765   9.558  10.761  0.00  0.00    +0.000 A 
ATOM     29  N   UNL     1      42.958   8.211  10.932  0.00  0.00    +0.000 N 
ATOM     30  C   UNL     1      44.164   7.674  11.306  0.00  0.00    +0.000 A 
ATOM     31  O   UNL     1      44.341   6.461  11.302  0.00  0.00    +0.000 OA
ATOM     32  C   UNL     1      45.183   8.653  11.634  0.00  0.00    +0.000 A 
ATOM     33  H   UNL     1      42.232   7.549  10.699  0.00  0.00    +0.000 HD
ENDBRANCH  20  23
ENDBRANCH   2  19
TORSDOF 6
ENDMDL
MODEL 9
REMARK VINA RESULT:    -5.532      4.212      9.806
REMARK INTER + INTRA:          -8.753
REMARK INTER:                  -7.390
REMARK INTRA:                  -1.364
REMARK UNBOUND:                -1.281
REMARK  Name = 
REMARK  7 active torsions:
REMARK  status: ('A' for Active; 'I' for Inactive)
REMARK    1  A    between atoms: C_1  and  C_2
REMARK    2  A    between atoms: C_2  and  N_3
REMARK    3  A    between atoms: C_2  and  C_16
REMARK    4  A    between atoms: C_4  and  C_6
REMARK    5  A    between atoms: C_19  and  C_20
REMARK    6  A    between atoms: C_20  and  N_21
REMARK    7  A    between atoms: C_22  and  C_24
REMARK                            x       y       z     vdW  Elec       q    Type
REMARK                         _______ _______ _______ _____ _____    ______ ____
ROOT
ATOM      1  C   UNL     1      46.199   4.095  13.462  0.00  0.00    +0.000 C 
ATOM      2  C   UNL     1      47.171   5.237  13.775  0.00  0.00    +0.000 C 
ENDROOT
BRANCH   2   3
ATOM      3  C   UNL     1      47.616   5.236  15.232  0.00  0.00    +0.000 A 
ATOM      4  C   UNL     1      47.153   4.212  16.079  0.00  0.00    +0.000 A 
ATOM      5  C   UNL     1      47.448   4.217  17.450  0.00  0.00    +0.000 A 
ATOM      6  C   UNL     1      48.215   5.239  18.019  0.00  0.00    +0.000 A 
ATOM      7  C   UNL     1      48.735   6.226  17.168  0.00  0.00    +0.000 A 
ATOM      8  C   UNL     1      48.438   6.225  15.793  0.00  0.00    +0.000 A 
BRANCH   6   9
ATOM      9  C   UNL     1      48.447   5.281  19.510  0.00  0.00    +0.000 C 
BRANCH   9  10
ATOM     10  N   UNL     1      48.052   6.546  20.091  0.00  0.00    +0.000 N 
ATOM     11  C   UNL     1      48.994   7.387  20.655  0.00  0.00    +0.000 C 
ATOM     12  O   UNL     1      50.184   7.099  20.727  0.00  0.00    +0.000 OA
ATOM     13  H   UNL     1      47.155   6.923  19.818  0.00  0.00    +0.000 HD
BRANCH  11  14
ATOM     14  C   UNL     1      48.426   8.721  21.130  0.00  0.00    +0.000 C 
ATOM     15  C   UNL     1      47.356   9.293  20.221  0.00  0.00    +0.000 C 
ATOM     16  C   UNL     1      48.133  10.179  19.274  0.00  0.00    +0.000 C 
ATOM     17  O   UNL     1      49.277  10.650  19.992  0.00  0.00    +0.000 OA
ATOM     18  C   UNL     1      49.481   9.813  21.139  0.00  0.00    +0.000 C 
ENDBRANCH  11  14
ENDBRANCH   9  10
ENDBRANCH   6   9
ENDBRANCH   2   3
BRANCH   2  19
ATOM     19  N   UNL     1      46.602   6.510  13.383  0.00  0.00    +0.000 N 
ATOM     20  C   UNL     1      47.273   7.395  12.568  0.00  0.00    +0.000 C 
ATOM     21  O   UNL     1      48.413   7.183  12.169  0.00  0.00    +0.000 OA
ATOM     22  H   UNL     1      45.687   6.748  13.747  0.00  0.00    +0.000 HD
BRANCH  20  23
ATOM     23  C   UNL     1      46.529   8.586  12.152  0.00  0.00    +0.000 A 
ATOM     24  C   UNL     1      47.106   9.846  12.273  0.00  0.00    +0.000 A 
ATOM     25  S   UNL     1      46.099  11.114  11.735  0.00  0.00    +0.000 S 
ATOM     26  C   UNL     1      44.839  10.031  11.371  0.00  0.00    +0.000 A 
ATOM     27  N   UNL     1      43.644  10.477  10.897  0.00  0.00    +0.000 NA
ATOM     28  C   UNL     1      42.764   9.552  10.711  0.00  0.00    +0.000 A 
ATOM     29  N   UNL     1      42.975   8.216  10.939  0.00  0.00    +0.000 N 
ATOM     30  C   UNL     1      44.188   7.712  11.333  0.00  0.00    +0.000 A 
ATOM     31  O   UNL     1      44.381   6.502  11.382  0.00  0.00    +0.000 OA
ATOM     32  C   UNL     1      45.195   8.717  11.618  0.00  0.00    +0.000 A 
ATOM     33  H   UNL     1      42.257   7.535  10.736  0.00  0.00    +0.000 HD
ENDBRANCH  20  23
ENDBRANCH   2  19
TORSDOF 6
ENDMDL
