MODEL 1
REMARK VINA RESULT:    -8.475      0.000      0.000
REMARK INTER + INTRA:         -12.367
REMARK INTER:                 -11.447
REMARK INTRA:                  -0.919
REMARK UNBOUND:                -0.919
REMARK  Name = 
REMARK  6 active torsions:
REMARK  status: ('A' for Active; 'I' for Inactive)
REMARK    1  A    between atoms: C_2  and  C_19
REMARK    2  A    between atoms: N_3  and  C_4
REMARK    3  A    between atoms: C_4  and  C_5
REMARK    4  A    between atoms: C_8  and  C_9
REMARK    5  A    between atoms: C_9  and  C_10
REMARK    6  A    between atoms: C_10  and  C_11
REMARK                            x       y       z     vdW  Elec       q    Type
REMARK                         _______ _______ _______ _____ _____    ______ ____
ROOT
ATOM      1  O   UNL     1      49.059   6.445  13.291  0.00  0.00    +0.000 OA
ATOM      2  C   UNL     1      48.407   6.604  14.320  0.00  0.00    +0.000 C 
ATOM      3  N   UNL     1      47.113   7.065  14.300  0.00  0.00    +0.000 N 
ATOM      4  H   UNL     1      46.723   7.449  15.154  0.00  0.00    +0.000 HD
ENDROOT
BRANCH   2   5
ATOM      5  C   UNL     1      48.963   6.273  15.634  0.00  0.00    +0.000 A 
ATOM      6  C   UNL     1      50.026   7.000  16.152  0.00  0.00    +0.000 A 
ATOM      7  S   UNL     1      50.517   6.477  17.700  0.00  0.00    +0.000 S 
ATOM      8  C   UNL     1      49.305   5.283  17.742  0.00  0.00    +0.000 A 
ATOM      9  N   UNL     1      49.140   4.481  18.831  0.00  0.00    +0.000 NA
ATOM     10  C   UNL     1      48.153   3.654  18.738  0.00  0.00    +0.000 A 
ATOM     11  N   UNL     1      47.323   3.546  17.654  0.00  0.00    +0.000 N 
ATOM     12  C   UNL     1      47.493   4.284  16.508  0.00  0.00    +0.000 A 
ATOM     13  O   UNL     1      46.812   4.079  15.513  0.00  0.00    +0.000 OA
ATOM     14  C   UNL     1      48.557   5.263  16.579  0.00  0.00    +0.000 A 
ATOM     15  H   UNL     1      46.585   2.855  17.627  0.00  0.00    +0.000 HD
ENDBRANCH   2   5
BRANCH   3  16
ATOM     16  C   UNL     1      46.551   7.563  13.065  0.00  0.00    +0.000 C 
BRANCH  16  17
ATOM     17  C   UNL     1      45.984   6.475  12.195  0.00  0.00    +0.000 A 
ATOM     18  C   UNL     1      45.233   5.446  12.749  0.00  0.00    +0.000 A 
ATOM     19  N   UNL     1      44.716   4.430  12.017  0.00  0.00    +0.000 NA
ATOM     20  C   UNL     1      44.952   4.474  10.682  0.00  0.00    +0.000 A 
ATOM     21  C   UNL     1      45.703   5.503  10.127  0.00  0.00    +0.000 A 
ATOM     22  N   UNL     1      46.220   6.521  10.859  0.00  0.00    +0.000 NA
BRANCH  20  23
ATOM     23  C   UNL     1      44.442   3.342   9.824  0.00  0.00    +0.000 C 
BRANCH  23  24
ATOM     24  C   UNL     1      44.655   3.595   8.327  0.00  0.00    +0.000 C 
BRANCH  24  25
ATOM     25  C   UNL     1      45.812   2.810   7.762  0.00  0.00    +0.000 A 
ATOM     26  C   UNL     1      46.030   1.491   8.168  0.00  0.00    +0.000 A 
ATOM     27  C   UNL     1      47.100   0.793   7.624  0.00  0.00    +0.000 A 
ATOM     28  N   UNL     1      47.954   1.317   6.722  0.00  0.00    +0.000 NA
ATOM     29  C   UNL     1      47.726   2.593   6.343  0.00  0.00    +0.000 A 
ATOM     30  C   UNL     1      46.686   3.374   6.825  0.00  0.00    +0.000 A 
ENDBRANCH  24  25
ENDBRANCH  23  24
ENDBRANCH  20  23
ENDBRANCH  16  17
ENDBRANCH   3  16
TORSDOF 6
ENDMDL
MODEL 2
REMARK VINA RESULT:    -7.923      2.333      4.080
REMARK INTER + INTRA:         -11.622
REMARK INTER:                 -10.583
REMARK INTRA:                  -1.039
REMARK UNBOUND:                -0.919
REMARK  Name = 
REMARK  6 active torsions:
REMARK  status: ('A' for Active; 'I' for Inactive)
REMARK    1  A    between atoms: C_2  and  C_19
REMARK    2  A    between atoms: N_3  and  C_4
REMARK    3  A    between atoms: C_4  and  C_5
REMARK    4  A    between atoms: C_8  and  C_9
REMARK    5  A    between atoms: C_9  and  C_10
REMARK    6  A    between atoms: C_10  and  C_11
REMARK                            x       y       z     vdW  Elec       q    Type
REMARK                         _______ _______ _______ _____ _____    ______ ____
ROOT
ATOM      1  O   UNL     1      49.126   5.792  15.899  0.00  0.00    +0.000 OA
ATOM      2  C   UNL     1      48.577   6.593  15.146  0.00  0.00    +0.000 C 
ATOM      3  N   UNL     1      47.406   6.296  14.492  0.00  0.00    +0.000 N 
ATOM      4  H   UNL     1      47.151   6.851  13.682  0.00  0.00    +0.000 HD
ENDROOT
BRANCH   2   5
ATOM      5  C   UNL     1      49.125   7.935  14.931  0.00  0.00    +0.000 A 
ATOM      6  C   UNL     1      49.323   8.794  16.003  0.00  0.00    +0.000 A 
ATOM      7  S   UNL     1      49.987  10.300  15.553  0.00  0.00    +0.000 S 
ATOM      8  C   UNL     1      50.060   9.841  13.916  0.00  0.00    +0.000 A 
ATOM      9  N   UNL     1      50.577  10.675  12.971  0.00  0.00    +0.000 NA
ATOM     10  C   UNL     1      50.610  10.175  11.781  0.00  0.00    +0.000 A 
ATOM     11  N   UNL     1      50.165   8.924  11.447  0.00  0.00    +0.000 N 
ATOM     12  C   UNL     1      49.574   8.076  12.351  0.00  0.00    +0.000 A 
ATOM     13  O   UNL     1      49.076   7.016  11.997  0.00  0.00    +0.000 OA
ATOM     14  C   UNL     1      49.557   8.570  13.712  0.00  0.00    +0.000 A 
ATOM     15  H   UNL     1      50.188   8.600  10.489  0.00  0.00    +0.000 HD
ENDBRANCH   2   5
BRANCH   3  16
ATOM     16  C   UNL     1      46.892   4.946  14.526  0.00  0.00    +0.000 C 
BRANCH  16  17
ATOM     17  C   UNL     1      46.216   4.541  13.244  0.00  0.00    +0.000 A 
ATOM     18  C   UNL     1      45.970   5.478  12.248  0.00  0.00    +0.000 A 
ATOM     19  N   UNL     1      45.347   5.172  11.085  0.00  0.00    +0.000 NA
ATOM     20  C   UNL     1      44.983   3.877  10.922  0.00  0.00    +0.000 A 
ATOM     21  C   UNL     1      45.229   2.939  11.918  0.00  0.00    +0.000 A 
ATOM     22  N   UNL     1      45.854   3.242  13.083  0.00  0.00    +0.000 NA
BRANCH  20  23
ATOM     23  C   UNL     1      44.241   3.490   9.666  0.00  0.00    +0.000 C 
BRANCH  23  24
ATOM     24  C   UNL     1      44.937   3.988   8.393  0.00  0.00    +0.000 C 
BRANCH  24  25
ATOM     25  C   UNL     1      45.948   3.005   7.860  0.00  0.00    +0.000 A 
ATOM     26  C   UNL     1      46.954   3.433   6.990  0.00  0.00    +0.000 A 
ATOM     27  C   UNL     1      47.873   2.504   6.523  0.00  0.00    +0.000 A 
ATOM     28  N   UNL     1      47.853   1.198   6.857  0.00  0.00    +0.000 NA
ATOM     29  C   UNL     1      46.873   0.804   7.698  0.00  0.00    +0.000 A 
ATOM     30  C   UNL     1      45.908   1.652   8.222  0.00  0.00    +0.000 A 
ENDBRANCH  24  25
ENDBRANCH  23  24
ENDBRANCH  20  23
ENDBRANCH  16  17
ENDBRANCH   3  16
TORSDOF 6
ENDMDL
MODEL 3
REMARK VINA RESULT:    -7.727      1.869      2.380
REMARK INTER + INTRA:         -11.356
REMARK INTER:                 -10.637
REMARK INTRA:                  -0.719
REMARK UNBOUND:                -0.919
REMARK  Name = 
REMARK  6 active torsions:
REMARK  status: ('A' for Active; 'I' for Inactive)
REMARK    1  A    between atoms: C_2  and  C_19
REMARK    2  A    between atoms: N_3  and  C_4
REMARK    3  A    between atoms: C_4  and  C_5
REMARK    4  A    between atoms: C_8  and  C_9
REMARK    5  A    between atoms: C_9  and  C_10
REMARK    6  A    between atoms: C_10  and  C_11
REMARK                            x       y       z     vdW  Elec       q    Type
REMARK                         _______ _______ _______ _____ _____    ______ ____
ROOT
ATOM      1  O   UNL     1      49.744   7.150  14.938  0.00  0.00    +0.000 OA
ATOM      2  C   UNL     1      48.773   6.613  15.465  0.00  0.00    +0.000 C 
ATOM      3  N   UNL     1      47.593   6.416  14.789  0.00  0.00    +0.000 N 
ATOM      4  H   UNL     1      46.750   6.244  15.328  0.00  0.00    +0.000 HD
ENDROOT
BRANCH   2   5
ATOM      5  C   UNL     1      48.830   6.116  16.842  0.00  0.00    +0.000 A 
ATOM      6  C   UNL     1      49.196   4.803  17.101  0.00  0.00    +0.000 A 
ATOM      7  S   UNL     1      49.224   4.421  18.764  0.00  0.00    +0.000 S 
ATOM      8  C   UNL     1      48.777   6.006  19.192  0.00  0.00    +0.000 A 
ATOM      9  N   UNL     1      48.656   6.377  20.498  0.00  0.00    +0.000 NA
ATOM     10  C   UNL     1      48.356   7.622  20.671  0.00  0.00    +0.000 A 
ATOM     11  N   UNL     1      48.155   8.525  19.661  0.00  0.00    +0.000 N 
ATOM     12  C   UNL     1      48.198   8.180  18.333  0.00  0.00    +0.000 A 
ATOM     13  O   UNL     1      47.894   8.980  17.458  0.00  0.00    +0.000 OA
ATOM     14  C   UNL     1      48.580   6.806  18.082  0.00  0.00    +0.000 A 
ATOM     15  H   UNL     1      47.890   9.480  19.860  0.00  0.00    +0.000 HD
ENDBRANCH   2   5
BRANCH   3  16
ATOM     16  C   UNL     1      47.405   7.017  13.489  0.00  0.00    +0.000 C 
BRANCH  16  17
ATOM     17  C   UNL     1      46.627   6.144  12.543  0.00  0.00    +0.000 A 
ATOM     18  C   UNL     1      46.089   4.939  12.974  0.00  0.00    +0.000 A 
ATOM     19  N   UNL     1      45.398   4.104  12.160  0.00  0.00    +0.000 NA
ATOM     20  C   UNL     1      45.233   4.517  10.880  0.00  0.00    +0.000 A 
ATOM     21  C   UNL     1      45.771   5.724  10.447  0.00  0.00    +0.000 A 
ATOM     22  N   UNL     1      46.462   6.561  11.261  0.00  0.00    +0.000 NA
BRANCH  20  23
ATOM     23  C   UNL     1      44.514   3.605   9.916  0.00  0.00    +0.000 C 
BRANCH  23  24
ATOM     24  C   UNL     1      44.849   3.912   8.452  0.00  0.00    +0.000 C 
BRANCH  24  25
ATOM     25  C   UNL     1      45.857   2.952   7.872  0.00  0.00    +0.000 A 
ATOM     26  C   UNL     1      46.767   3.388   6.905  0.00  0.00    +0.000 A 
ATOM     27  C   UNL     1      47.686   2.481   6.396  0.00  0.00    +0.000 A 
ATOM     28  N   UNL     1      47.754   1.190   6.779  0.00  0.00    +0.000 NA
ATOM     29  C   UNL     1      46.867   0.789   7.713  0.00  0.00    +0.000 A 
ATOM     30  C   UNL     1      45.910   1.615   8.285  0.00  0.00    +0.000 A 
ENDBRANCH  24  25
ENDBRANCH  23  24
ENDBRANCH  20  23
ENDBRANCH  16  17
ENDBRANCH   3  16
TORSDOF 6
ENDMDL
MODEL 4
REMARK VINA RESULT:    -7.591      1.644      2.287
REMARK INTER + INTRA:         -11.173
REMARK INTER:                 -10.743
REMARK INTRA:                  -0.430
REMARK UNBOUND:                -0.919
REMARK  Name = 
REMARK  6 active torsions:
REMARK  status: ('A' for Active; 'I' for Inactive)
REMARK    1  A    between atoms: C_2  and  C_19
REMARK    2  A    between atoms: N_3  and  C_4
REMARK    3  A    between atoms: C_4  and  C_5
REMARK    4  A    between atoms: C_8  and  C_9
REMARK    5  A    between atoms: C_9  and  C_10
REMARK    6  A    between atoms: C_10  and  C_11
REMARK                            x       y       z     vdW  Elec       q    Type
REMARK                         _______ _______ _______ _____ _____    ______ ____
ROOT
ATOM      1  O   UNL     1      49.171   7.675  15.290  0.00  0.00    +0.000 OA
ATOM      2  C   UNL     1      48.661   6.583  15.528  0.00  0.00    +0.000 C 
ATOM      3  N   UNL     1      47.755   5.999  14.676  0.00  0.00    +0.000 N 
ATOM      4  H   UNL     1      47.157   5.263  15.037  0.00  0.00    +0.000 HD
ENDROOT
BRANCH   2   5
ATOM      5  C   UNL     1      49.022   5.817  16.724  0.00  0.00    +0.000 A 
ATOM      6  C   UNL     1      48.038   5.222  17.502  0.00  0.00    +0.000 A 
ATOM      7  S   UNL     1      48.658   4.359  18.837  0.00  0.00    +0.000 S 
ATOM      8  C   UNL     1      50.261   4.725  18.401  0.00  0.00    +0.000 A 
ATOM      9  N   UNL     1      51.316   4.249  19.120  0.00  0.00    +0.000 NA
ATOM     10  C   UNL     1      52.473   4.570  18.644  0.00  0.00    +0.000 A 
ATOM     11  N   UNL     1      52.673   5.332  17.525  0.00  0.00    +0.000 N 
ATOM     12  C   UNL     1      51.643   5.891  16.809  0.00  0.00    +0.000 A 
ATOM     13  O   UNL     1      51.856   6.667  15.887  0.00  0.00    +0.000 OA
ATOM     14  C   UNL     1      50.322   5.520  17.271  0.00  0.00    +0.000 A 
ATOM     15  H   UNL     1      53.605   5.578  17.220  0.00  0.00    +0.000 HD
ENDBRANCH   2   5
BRANCH   3  16
ATOM     16  C   UNL     1      47.230   6.757  13.564  0.00  0.00    +0.000 C 
BRANCH  16  17
ATOM     17  C   UNL     1      46.472   5.909  12.579  0.00  0.00    +0.000 A 
ATOM     18  C   UNL     1      45.936   4.686  12.964  0.00  0.00    +0.000 A 
ATOM     19  N   UNL     1      45.264   3.874  12.114  0.00  0.00    +0.000 NA
ATOM     20  C   UNL     1      45.114   4.326  10.845  0.00  0.00    +0.000 A 
ATOM     21  C   UNL     1      45.649   5.550  10.459  0.00  0.00    +0.000 A 
ATOM     22  N   UNL     1      46.322   6.365  11.309  0.00  0.00    +0.000 NA
BRANCH  20  23
ATOM     23  C   UNL     1      44.416   3.440   9.843  0.00  0.00    +0.000 C 
BRANCH  23  24
ATOM     24  C   UNL     1      44.740   3.820   8.393  0.00  0.00    +0.000 C 
BRANCH  24  25
ATOM     25  C   UNL     1      45.825   2.960   7.794  0.00  0.00    +0.000 A 
ATOM     26  C   UNL     1      45.998   1.644   8.229  0.00  0.00    +0.000 A 
ATOM     27  C   UNL     1      47.001   0.877   7.653  0.00  0.00    +0.000 A 
ATOM     28  N   UNL     1      47.831   1.329   6.692  0.00  0.00    +0.000 NA
ATOM     29  C   UNL     1      47.648   2.604   6.286  0.00  0.00    +0.000 A 
ATOM     30  C   UNL     1      46.675   3.452   6.796  0.00  0.00    +0.000 A 
ENDBRANCH  24  25
ENDBRANCH  23  24
ENDBRANCH  20  23
ENDBRANCH  16  17
ENDBRANCH   3  16
TORSDOF 6
ENDMDL
MODEL 5
REMARK VINA RESULT:    -7.002      3.759      7.610
REMARK INTER + INTRA:         -10.377
REMARK INTER:                  -9.145
REMARK INTRA:                  -1.232
REMARK UNBOUND:                -0.919
REMARK  Name = 
REMARK  6 active torsions:
REMARK  status: ('A' for Active; 'I' for Inactive)
REMARK    1  A    between atoms: C_2  and  C_19
REMARK    2  A    between atoms: N_3  and  C_4
REMARK    3  A    between atoms: C_4  and  C_5
REMARK    4  A    between atoms: C_8  and  C_9
REMARK    5  A    between atoms: C_9  and  C_10
REMARK    6  A    between atoms: C_10  and  C_11
REMARK                            x       y       z     vdW  Elec       q    Type
REMARK                         _______ _______ _______ _____ _____    ______ ____
ROOT
ATOM      1  O   UNL     1      47.960   7.377  11.855  0.00  0.00    +0.000 OA
ATOM      2  C   UNL     1      46.948   7.481  12.544  0.00  0.00    +0.000 C 
ATOM      3  N   UNL     1      46.881   8.335  13.618  0.00  0.00    +0.000 N 
ATOM      4  H   UNL     1      46.158   8.183  14.313  0.00  0.00    +0.000 HD
ENDROOT
BRANCH   2   5
ATOM      5  C   UNL     1      45.733   6.723  12.235  0.00  0.00    +0.000 A 
ATOM      6  C   UNL     1      44.644   7.349  11.645  0.00  0.00    +0.000 A 
ATOM      7  S   UNL     1      43.336   6.296  11.344  0.00  0.00    +0.000 S 
ATOM      8  C   UNL     1      44.194   4.963  11.964  0.00  0.00    +0.000 A 
ATOM      9  N   UNL     1      43.651   3.713  11.968  0.00  0.00    +0.000 NA
ATOM     10  C   UNL     1      44.436   2.795  12.425  0.00  0.00    +0.000 A 
ATOM     11  N   UNL     1      45.706   3.011  12.889  0.00  0.00    +0.000 N 
ATOM     12  C   UNL     1      46.267   4.262  12.968  0.00  0.00    +0.000 A 
ATOM     13  O   UNL     1      47.355   4.437  13.500  0.00  0.00    +0.000 OA
ATOM     14  C   UNL     1      45.448   5.323  12.421  0.00  0.00    +0.000 A 
ATOM     15  H   UNL     1      46.260   2.254  13.266  0.00  0.00    +0.000 HD
ENDBRANCH   2   5
BRANCH   3  16
ATOM     16  C   UNL     1      48.080   8.995  14.081  0.00  0.00    +0.000 C 
BRANCH  16  17
ATOM     17  C   UNL     1      48.756   8.263  15.208  0.00  0.00    +0.000 A 
ATOM     18  C   UNL     1      49.743   7.320  14.948  0.00  0.00    +0.000 A 
ATOM     19  N   UNL     1      50.369   6.617  15.922  0.00  0.00    +0.000 NA
ATOM     20  C   UNL     1      49.997   6.895  17.196  0.00  0.00    +0.000 A 
ATOM     21  C   UNL     1      49.009   7.839  17.457  0.00  0.00    +0.000 A 
ATOM     22  N   UNL     1      48.383   8.544  16.483  0.00  0.00    +0.000 NA
BRANCH  20  23
ATOM     23  C   UNL     1      50.626   6.107  18.318  0.00  0.00    +0.000 C 
BRANCH  23  24
ATOM     24  C   UNL     1      49.704   5.004  18.853  0.00  0.00    +0.000 C 
BRANCH  24  25
ATOM     25  C   UNL     1      49.597   3.829  17.914  0.00  0.00    +0.000 A 
ATOM     26  C   UNL     1      50.691   2.982  17.721  0.00  0.00    +0.000 A 
ATOM     27  C   UNL     1      50.557   1.905  16.856  0.00  0.00    +0.000 A 
ATOM     28  N   UNL     1      49.426   1.624  16.179  0.00  0.00    +0.000 NA
ATOM     29  C   UNL     1      48.380   2.455  16.379  0.00  0.00    +0.000 A 
ATOM     30  C   UNL     1      48.410   3.557  17.222  0.00  0.00    +0.000 A 
ENDBRANCH  24  25
ENDBRANCH  23  24
ENDBRANCH  20  23
ENDBRANCH  16  17
ENDBRANCH   3  16
TORSDOF 6
ENDMDL
MODEL 6
REMARK VINA RESULT:    -6.996      1.846      2.025
REMARK INTER + INTRA:         -10.369
REMARK INTER:                  -9.557
REMARK INTRA:                  -0.812
REMARK UNBOUND:                -0.919
REMARK  Name = 
REMARK  6 active torsions:
REMARK  status: ('A' for Active; 'I' for Inactive)
REMARK    1  A    between atoms: C_2  and  C_19
REMARK    2  A    between atoms: N_3  and  C_4
REMARK    3  A    between atoms: C_4  and  C_5
REMARK    4  A    between atoms: C_8  and  C_9
REMARK    5  A    between atoms: C_9  and  C_10
REMARK    6  A    between atoms: C_10  and  C_11
REMARK                            x       y       z     vdW  Elec       q    Type
REMARK                         _______ _______ _______ _____ _____    ______ ____
ROOT
ATOM      1  O   UNL     1      48.693   9.816  14.954  0.00  0.00    +0.000 OA
ATOM      2  C   UNL     1      48.245   8.784  15.447  0.00  0.00    +0.000 C 
ATOM      3  N   UNL     1      47.670   7.799  14.680  0.00  0.00    +0.000 N 
ATOM      4  H   UNL     1      47.069   7.120  15.136  0.00  0.00    +0.000 HD
ENDROOT
BRANCH   2   5
ATOM      5  C   UNL     1      48.333   8.524  16.886  0.00  0.00    +0.000 A 
ATOM      6  C   UNL     1      47.967   9.503  17.801  0.00  0.00    +0.000 A 
ATOM      7  S   UNL     1      48.119   9.004  19.425  0.00  0.00    +0.000 S 
ATOM      8  C   UNL     1      48.648   7.456  18.959  0.00  0.00    +0.000 A 
ATOM      9  N   UNL     1      48.924   6.494  19.885  0.00  0.00    +0.000 NA
ATOM     10  C   UNL     1      49.270   5.356  19.382  0.00  0.00    +0.000 A 
ATOM     11  N   UNL     1      49.377   5.093  18.043  0.00  0.00    +0.000 N 
ATOM     12  C   UNL     1      49.176   6.048  17.077  0.00  0.00    +0.000 A 
ATOM     13  O   UNL     1      49.398   5.815  15.896  0.00  0.00    +0.000 OA
ATOM     14  C   UNL     1      48.737   7.331  17.585  0.00  0.00    +0.000 A 
ATOM     15  H   UNL     1      49.685   4.189  17.711  0.00  0.00    +0.000 HD
ENDBRANCH   2   5
BRANCH   3  16
ATOM     16  C   UNL     1      47.402   8.048  13.282  0.00  0.00    +0.000 C 
BRANCH  16  17
ATOM     17  C   UNL     1      46.647   6.928  12.619  0.00  0.00    +0.000 A 
ATOM     18  C   UNL     1      46.445   5.723  13.279  0.00  0.00    +0.000 A 
ATOM     19  N   UNL     1      45.791   4.676  12.723  0.00  0.00    +0.000 NA
ATOM     20  C   UNL     1      45.312   4.867  11.469  0.00  0.00    +0.000 A 
ATOM     21  C   UNL     1      45.513   6.073  10.807  0.00  0.00    +0.000 A 
ATOM     22  N   UNL     1      46.166   7.123  11.364  0.00  0.00    +0.000 NA
BRANCH  20  23
ATOM     23  C   UNL     1      44.618   3.716  10.780  0.00  0.00    +0.000 C 
BRANCH  23  24
ATOM     24  C   UNL     1      44.472   3.935   9.270  0.00  0.00    +0.000 C 
BRANCH  24  25
ATOM     25  C   UNL     1      45.477   3.147   8.468  0.00  0.00    +0.000 A 
ATOM     26  C   UNL     1      45.609   1.770   8.665  0.00  0.00    +0.000 A 
ATOM     27  C   UNL     1      46.539   1.073   7.907  0.00  0.00    +0.000 A 
ATOM     28  N   UNL     1      47.334   1.648   6.983  0.00  0.00    +0.000 NA
ATOM     29  C   UNL     1      47.192   2.980   6.808  0.00  0.00    +0.000 A 
ATOM     30  C   UNL     1      46.293   3.766   7.513  0.00  0.00    +0.000 A 
ENDBRANCH  24  25
ENDBRANCH  23  24
ENDBRANCH  20  23
ENDBRANCH  16  17
ENDBRANCH   3  16
TORSDOF 6
ENDMDL
MODEL 7
REMARK VINA RESULT:    -6.950      4.197      8.684
REMARK INTER + INTRA:         -10.308
REMARK INTER:                  -9.610
REMARK INTRA:                  -0.697
REMARK UNBOUND:                -0.919
REMARK  Name = 
REMARK  6 active torsions:
REMARK  status: ('A' for Active; 'I' for Inactive)
REMARK    1  A    between atoms: C_2  and  C_19
REMARK    2  A    between atoms: N_3  and  C_4
REMARK    3  A    between atoms: C_4  and  C_5
REMARK    4  A    between atoms: C_8  and  C_9
REMARK    5  A    between atoms: C_9  and  C_10
REMARK    6  A    between atoms: C_10  and  C_11
REMARK                            x       y       z     vdW  Elec       q    Type
REMARK                         _______ _______ _______ _____ _____    ______ ____
ROOT
ATOM      1  O   UNL     1      47.349   3.132  14.056  0.00  0.00    +0.000 OA
ATOM      2  C   UNL     1      46.843   4.165  14.487  0.00  0.00    +0.000 C 
ATOM      3  N   UNL     1      46.766   4.432  15.833  0.00  0.00    +0.000 N 
ATOM      4  H   UNL     1      46.103   5.132  16.149  0.00  0.00    +0.000 HD
ENDROOT
BRANCH   2   5
ATOM      5  C   UNL     1      46.325   5.195  13.584  0.00  0.00    +0.000 A 
ATOM      6  C   UNL     1      47.101   6.298  13.255  0.00  0.00    +0.000 A 
ATOM      7  S   UNL     1      46.332   7.372  12.176  0.00  0.00    +0.000 S 
ATOM      8  C   UNL     1      44.949   6.384  12.089  0.00  0.00    +0.000 A 
ATOM      9  N   UNL     1      43.896   6.710  11.289  0.00  0.00    +0.000 NA
ATOM     10  C   UNL     1      42.939   5.843  11.290  0.00  0.00    +0.000 A 
ATOM     11  N   UNL     1      42.932   4.688  12.024  0.00  0.00    +0.000 N 
ATOM     12  C   UNL     1      43.939   4.352  12.895  0.00  0.00    +0.000 A 
ATOM     13  O   UNL     1      43.847   3.375  13.627  0.00  0.00    +0.000 OA
ATOM     14  C   UNL     1      45.061   5.266  12.895  0.00  0.00    +0.000 A 
ATOM     15  H   UNL     1      42.137   4.063  12.007  0.00  0.00    +0.000 HD
ENDBRANCH   2   5
BRANCH   3  16
ATOM     16  C   UNL     1      47.107   3.403  16.787  0.00  0.00    +0.000 C 
BRANCH  16  17
ATOM     17  C   UNL     1      48.568   3.394  17.147  0.00  0.00    +0.000 A 
ATOM     18  C   UNL     1      49.138   4.469  17.817  0.00  0.00    +0.000 A 
ATOM     19  N   UNL     1      50.450   4.523  18.147  0.00  0.00    +0.000 NA
ATOM     20  C   UNL     1      51.199   3.445  17.804  0.00  0.00    +0.000 A 
ATOM     21  C   UNL     1      50.630   2.369  17.133  0.00  0.00    +0.000 A 
ATOM     22  N   UNL     1      49.316   2.313  16.804  0.00  0.00    +0.000 NA
BRANCH  20  23
ATOM     23  C   UNL     1      52.678   3.472  18.102  0.00  0.00    +0.000 C 
BRANCH  23  24
ATOM     24  C   UNL     1      53.207   2.117  18.587  0.00  0.00    +0.000 C 
BRANCH  24  25
ATOM     25  C   UNL     1      54.059   1.422  17.555  0.00  0.00    +0.000 A 
ATOM     26  C   UNL     1      53.890   0.058  17.307  0.00  0.00    +0.000 A 
ATOM     27  C   UNL     1      54.686  -0.550  16.346  0.00  0.00    +0.000 A 
ATOM     28  N   UNL     1      55.626   0.101  15.632  0.00  0.00    +0.000 NA
ATOM     29  C   UNL     1      55.775   1.419  15.887  0.00  0.00    +0.000 A 
ATOM     30  C   UNL     1      55.030   2.119  16.825  0.00  0.00    +0.000 A 
ENDBRANCH  24  25
ENDBRANCH  23  24
ENDBRANCH  20  23
ENDBRANCH  16  17
ENDBRANCH   3  16
TORSDOF 6
ENDMDL
MODEL 8
REMARK VINA RESULT:    -6.814      3.080      4.196
REMARK INTER + INTRA:         -10.124
REMARK INTER:                  -9.365
REMARK INTRA:                  -0.759
REMARK UNBOUND:                -0.919
REMARK  Name = 
REMARK  6 active torsions:
REMARK  status: ('A' for Active; 'I' for Inactive)
REMARK    1  A    between atoms: C_2  and  C_19
REMARK    2  A    between atoms: N_3  and  C_4
REMARK    3  A    between atoms: C_4  and  C_5
REMARK    4  A    between atoms: C_8  and  C_9
REMARK    5  A    between atoms: C_9  and  C_10
REMARK    6  A    between atoms: C_10  and  C_11
REMARK                            x       y       z     vdW  Elec       q    Type
REMARK                         _______ _______ _______ _____ _____    ______ ____
ROOT
ATOM      1  O   UNL     1      50.624   6.380  18.915  0.00  0.00    +0.000 OA
ATOM      2  C   UNL     1      51.001   5.597  18.047  0.00  0.00    +0.000 C 
ATOM      3  N   UNL     1      50.531   5.656  16.758  0.00  0.00    +0.000 N 
ATOM      4  H   UNL     1      50.640   4.839  16.166  0.00  0.00    +0.000 HD
ENDROOT
BRANCH   2   5
ATOM      5  C   UNL     1      52.010   4.573  18.330  0.00  0.00    +0.000 A 
ATOM      6  C   UNL     1      53.176   4.902  19.007  0.00  0.00    +0.000 A 
ATOM      7  S   UNL     1      54.214   3.571  19.259  0.00  0.00    +0.000 S 
ATOM      8  C   UNL     1      53.124   2.507  18.500  0.00  0.00    +0.000 A 
ATOM      9  N   UNL     1      53.388   1.173  18.407  0.00  0.00    +0.000 NA
ATOM     10  C   UNL     1      52.450   0.484  17.847  0.00  0.00    +0.000 A 
ATOM     11  N   UNL     1      51.280   1.004  17.362  0.00  0.00    +0.000 N 
ATOM     12  C   UNL     1      51.002   2.349  17.371  0.00  0.00    +0.000 A 
ATOM     13  O   UNL     1      50.005   2.796  16.821  0.00  0.00    +0.000 OA
ATOM     14  C   UNL     1      52.000   3.163  18.034  0.00  0.00    +0.000 A 
ATOM     15  H   UNL     1      50.597   0.416  16.904  0.00  0.00    +0.000 HD
ENDBRANCH   2   5
BRANCH   3  16
ATOM     16  C   UNL     1      49.424   6.528  16.440  0.00  0.00    +0.000 C 
BRANCH  16  17
ATOM     17  C   UNL     1      48.421   5.894  15.516  0.00  0.00    +0.000 A 
ATOM     18  C   UNL     1      47.635   4.832  15.947  0.00  0.00    +0.000 A 
ATOM     19  N   UNL     1      46.732   4.210  15.151  0.00  0.00    +0.000 NA
ATOM     20  C   UNL     1      46.610   4.695  13.891  0.00  0.00    +0.000 A 
ATOM     21  C   UNL     1      47.395   5.758  13.459  0.00  0.00    +0.000 A 
ATOM     22  N   UNL     1      48.299   6.382  14.255  0.00  0.00    +0.000 NA
BRANCH  20  23
ATOM     23  C   UNL     1      45.654   4.009  12.946  0.00  0.00    +0.000 C 
BRANCH  23  24
ATOM     24  C   UNL     1      45.148   4.942  11.839  0.00  0.00    +0.000 C 
BRANCH  24  25
ATOM     25  C   UNL     1      45.175   4.297  10.476  0.00  0.00    +0.000 A 
ATOM     26  C   UNL     1      44.735   2.981  10.313  0.00  0.00    +0.000 A 
ATOM     27  C   UNL     1      44.767   2.418   9.045  0.00  0.00    +0.000 A 
ATOM     28  N   UNL     1      45.204   3.069   7.948  0.00  0.00    +0.000 NA
ATOM     29  C   UNL     1      45.626   4.340   8.127  0.00  0.00    +0.000 A 
ATOM     30  C   UNL     1      45.633   4.993   9.351  0.00  0.00    +0.000 A 
ENDBRANCH  24  25
ENDBRANCH  23  24
ENDBRANCH  20  23
ENDBRANCH  16  17
ENDBRANCH   3  16
TORSDOF 6
ENDMDL
MODEL 9
REMARK VINA RESULT:    -6.764      3.276      7.852
REMARK INTER + INTRA:         -10.056
REMARK INTER:                  -9.140
REMARK INTRA:                  -0.916
REMARK UNBOUND:                -0.919
REMARK  Name = 
REMARK  6 active torsions:
REMARK  status: ('A' for Active; 'I' for Inactive)
REMARK    1  A    between atoms: C_2  and  C_19
REMARK    2  A    between atoms: N_3  and  C_4
REMARK    3  A    between atoms: C_4  and  C_5
REMARK    4  A    between atoms: C_8  and  C_9
REMARK    5  A    between atoms: C_9  and  C_10
REMARK    6  A    between atoms: C_10  and  C_11
REMARK                            x       y       z     vdW  Elec       q    Type
REMARK                         _______ _______ _______ _____ _____    ______ ____
ROOT
ATOM      1  O   UNL     1      45.329   7.844  11.895  0.00  0.00    +0.000 OA
ATOM      2  C   UNL     1      46.063   6.936  11.513  0.00  0.00    +0.000 C 
ATOM      3  N   UNL     1      47.417   6.946  11.743  0.00  0.00    +0.000 N 
ATOM      4  H   UNL     1      48.009   6.346  11.177  0.00  0.00    +0.000 HD
ENDROOT
BRANCH   2   5
ATOM      5  C   UNL     1      45.526   5.762  10.819  0.00  0.00    +0.000 A 
ATOM      6  C   UNL     1      45.800   5.555   9.474  0.00  0.00    +0.000 A 
ATOM      7  S   UNL     1      45.105   4.126   8.852  0.00  0.00    +0.000 S 
ATOM      8  C   UNL     1      44.443   3.722  10.367  0.00  0.00    +0.000 A 
ATOM      9  N   UNL     1      43.740   2.569  10.547  0.00  0.00    +0.000 NA
ATOM     10  C   UNL     1      43.339   2.374  11.759  0.00  0.00    +0.000 A 
ATOM     11  N   UNL     1      43.565   3.229  12.804  0.00  0.00    +0.000 N 
ATOM     12  C   UNL     1      44.207   4.434  12.656  0.00  0.00    +0.000 A 
ATOM     13  O   UNL     1      44.286   5.230  13.582  0.00  0.00    +0.000 OA
ATOM     14  C   UNL     1      44.722   4.679  11.325  0.00  0.00    +0.000 A 
ATOM     15  H   UNL     1      43.196   3.037  13.725  0.00  0.00    +0.000 HD
ENDBRANCH   2   5
BRANCH   3  16
ATOM     16  C   UNL     1      48.042   8.135  12.276  0.00  0.00    +0.000 C 
BRANCH  16  17
ATOM     17  C   UNL     1      48.492   7.975  13.703  0.00  0.00    +0.000 A 
ATOM     18  C   UNL     1      49.429   7.009  14.045  0.00  0.00    +0.000 A 
ATOM     19  N   UNL     1      49.854   6.808  15.315  0.00  0.00    +0.000 NA
ATOM     20  C   UNL     1      49.326   7.625  16.260  0.00  0.00    +0.000 A 
ATOM     21  C   UNL     1      48.388   8.592  15.919  0.00  0.00    +0.000 A 
ATOM     22  N   UNL     1      47.963   8.796  14.647  0.00  0.00    +0.000 NA
BRANCH  20  23
ATOM     23  C   UNL     1      49.726   7.412  17.700  0.00  0.00    +0.000 C 
BRANCH  23  24
ATOM     24  C   UNL     1      48.801   6.430  18.429  0.00  0.00    +0.000 C 
BRANCH  24  25
ATOM     25  C   UNL     1      48.815   5.053  17.816  0.00  0.00    +0.000 A 
ATOM     26  C   UNL     1      49.976   4.276  17.859  0.00  0.00    +0.000 A 
ATOM     27  C   UNL     1      49.954   3.010  17.291  0.00  0.00    +0.000 A 
ATOM     28  N   UNL     1      48.871   2.478  16.691  0.00  0.00    +0.000 NA
ATOM     29  C   UNL     1      47.759   3.244  16.659  0.00  0.00    +0.000 A 
ATOM     30  C   UNL     1      47.678   4.520  17.197  0.00  0.00    +0.000 A 
ENDBRANCH  24  25
ENDBRANCH  23  24
ENDBRANCH  20  23
ENDBRANCH  16  17
ENDBRANCH   3  16
TORSDOF 6
ENDMDL
