MODEL 1
REMARK VINA RESULT:    -7.657      0.000      0.000
REMARK INTER + INTRA:         -12.735
REMARK INTER:                 -11.461
REMARK INTRA:                  -1.273
REMARK UNBOUND:                -1.273
REMARK  Name = 
REMARK  10 active torsions:
REMARK  status: ('A' for Active; 'I' for Inactive)
REMARK    1  A    between atoms: C_1  and  C_2
REMARK    2  A    between atoms: C_2  and  N_3
REMARK    3  A    between atoms: C_2  and  C_19
REMARK    4  A    between atoms: N_3  and  C_4
REMARK    5  A    between atoms: C_4  and  C_5
REMARK    6  A    between atoms: C_8  and  C_9
REMARK    7  A    between atoms: C_9  and  O_10
REMARK    8  A    between atoms: C_9  and  C_11
REMARK    9  A    between atoms: C_11  and  N_12
REMARK   10  A    between atoms: C_19  and  C_21
REMARK                            x       y       z     vdW  Elec       q    Type
REMARK                         _______ _______ _______ _____ _____    ______ ____
ROOT
ATOM      1  N   UNL     1      46.956   6.699  11.803  0.00  0.00    +0.000 NA
ATOM      2  H   UNL     1      46.838   5.685  11.718  0.00  0.00    +0.000 HD
ENDROOT
BRANCH   1   4
ATOM      3  C   UNL     1      45.780   8.791  12.203  0.00  0.00    +0.000 C 
ATOM      4  C   UNL     1      45.713   7.274  12.357  0.00  0.00    +0.000 C 
BRANCH   4   5
ATOM      5  C   UNL     1      44.470   6.726  11.618  0.00  0.00    +0.000 C 
ATOM      6  O   UNL     1      43.640   7.491  11.123  0.00  0.00    +0.000 OA
BRANCH   5   7
ATOM      7  C   UNL     1      44.285   5.272  11.548  0.00  0.00    +0.000 A 
ATOM      8  C   UNL     1      43.716   4.526  12.567  0.00  0.00    +0.000 A 
ATOM      9  S   UNL     1      43.477   2.888  12.145  0.00  0.00    +0.000 S 
ATOM     10  C   UNL     1      44.141   3.130  10.598  0.00  0.00    +0.000 A 
ATOM     11  N   UNL     1      44.189   2.124   9.686  0.00  0.00    +0.000 NA
ATOM     12  C   UNL     1      44.710   2.463   8.551  0.00  0.00    +0.000 A 
ATOM     13  N   UNL     1      45.222   3.703   8.263  0.00  0.00    +0.000 N 
ATOM     14  C   UNL     1      45.329   4.703   9.206  0.00  0.00    +0.000 A 
ATOM     15  O   UNL     1      46.055   5.674   9.027  0.00  0.00    +0.000 OA
ATOM     16  C   UNL     1      44.614   4.419  10.436  0.00  0.00    +0.000 A 
ATOM     17  H   UNL     1      45.711   3.864   7.395  0.00  0.00    +0.000 HD
ENDBRANCH   5   7
ENDBRANCH   4   5
ENDBRANCH   1   4
BRANCH   1  18
ATOM     18  C   UNL     1      48.103   6.942  12.680  0.00  0.00    +0.000 C 
BRANCH  18  19
ATOM     19  C   UNL     1      47.945   6.191  13.974  0.00  0.00    +0.000 A 
ATOM     20  C   UNL     1      48.555   6.655  15.145  0.00  0.00    +0.000 A 
ATOM     21  C   UNL     1      48.430   5.942  16.337  0.00  0.00    +0.000 A 
ATOM     22  C   UNL     1      47.694   4.749  16.384  0.00  0.00    +0.000 A 
ATOM     23  C   UNL     1      47.084   4.289  15.207  0.00  0.00    +0.000 A 
ATOM     24  C   UNL     1      47.208   5.002  14.016  0.00  0.00    +0.000 A 
BRANCH  22  25
ATOM     25  C   UNL     1      47.606   3.974  17.682  0.00  0.00    +0.000 C 
BRANCH  25  26
ATOM     26  O   UNL     1      46.595   2.961  17.585  0.00  0.00    +0.000 OA
ATOM     27  H   UNL     1      45.734   3.402  17.663  0.00  0.00    +0.000 HD
ENDBRANCH  25  26
BRANCH  25  28
ATOM     28  C   UNL     1      48.943   3.301  18.101  0.00  0.00    +0.000 C 
BRANCH  28  29
ATOM     29  N   UNL     1      49.993   3.232  17.065  0.00  0.00    +0.000 NA
ATOM     30  C   UNL     1      50.257   1.836  16.676  0.00  0.00    +0.000 C 
ATOM     31  C   UNL     1      51.261   1.344  17.700  0.00  0.00    +0.000 C 
ATOM     32  C   UNL     1      52.154   2.552  17.901  0.00  0.00    +0.000 C 
ATOM     33  C   UNL     1      51.288   3.753  17.532  0.00  0.00    +0.000 C 
ENDBRANCH  28  29
ENDBRANCH  25  28
ENDBRANCH  22  25
ENDBRANCH  18  19
ENDBRANCH   1  18
TORSDOF 9
ENDMDL
MODEL 2
REMARK VINA RESULT:    -7.650      2.821      8.847
REMARK INTER + INTRA:         -12.724
REMARK INTER:                 -11.872
REMARK INTRA:                  -0.852
REMARK UNBOUND:                -1.273
REMARK  Name = 
REMARK  10 active torsions:
REMARK  status: ('A' for Active; 'I' for Inactive)
REMARK    1  A    between atoms: C_1  and  C_2
REMARK    2  A    between atoms: C_2  and  N_3
REMARK    3  A    between atoms: C_2  and  C_19
REMARK    4  A    between atoms: N_3  and  C_4
REMARK    5  A    between atoms: C_4  and  C_5
REMARK    6  A    between atoms: C_8  and  C_9
REMARK    7  A    between atoms: C_9  and  O_10
REMARK    8  A    between atoms: C_9  and  C_11
REMARK    9  A    between atoms: C_11  and  N_12
REMARK   10  A    between atoms: C_19  and  C_21
REMARK                            x       y       z     vdW  Elec       q    Type
REMARK                         _______ _______ _______ _____ _____    ______ ____
ROOT
ATOM      1  N   UNL     1      48.030   5.468  15.876  0.00  0.00    +0.000 NA
ATOM      2  H   UNL     1      48.244   4.547  15.482  0.00  0.00    +0.000 HD
ENDROOT
BRANCH   1   4
ATOM      3  C   UNL     1      48.454   6.887  17.806  0.00  0.00    +0.000 C 
ATOM      4  C   UNL     1      49.019   5.772  16.929  0.00  0.00    +0.000 C 
BRANCH   4   5
ATOM      5  C   UNL     1      49.314   4.524  17.794  0.00  0.00    +0.000 C 
ATOM      6  O   UNL     1      48.396   3.850  18.264  0.00  0.00    +0.000 OA
BRANCH   5   7
ATOM      7  C   UNL     1      50.715   4.180  18.066  0.00  0.00    +0.000 A 
ATOM      8  C   UNL     1      51.599   5.037  18.700  0.00  0.00    +0.000 A 
ATOM      9  S   UNL     1      53.111   4.312  19.032  0.00  0.00    +0.000 S 
ATOM     10  C   UNL     1      52.627   2.843  18.325  0.00  0.00    +0.000 A 
ATOM     11  N   UNL     1      53.445   1.759  18.321  0.00  0.00    +0.000 NA
ATOM     12  C   UNL     1      52.934   0.712  17.759  0.00  0.00    +0.000 A 
ATOM     13  N   UNL     1      51.697   0.666  17.165  0.00  0.00    +0.000 N 
ATOM     14  C   UNL     1      50.900   1.780  17.015  0.00  0.00    +0.000 A 
ATOM     15  O   UNL     1      49.962   1.793  16.226  0.00  0.00    +0.000 OA
ATOM     16  C   UNL     1      51.363   2.929  17.770  0.00  0.00    +0.000 A 
ATOM     17  H   UNL     1      51.408  -0.153  16.651  0.00  0.00    +0.000 HD
ENDBRANCH   5   7
ENDBRANCH   4   5
ENDBRANCH   1   4
BRANCH   1  18
ATOM     18  C   UNL     1      48.083   6.441  14.784  0.00  0.00    +0.000 C 
BRANCH  18  19
ATOM     19  C   UNL     1      47.243   5.979  13.625  0.00  0.00    +0.000 A 
ATOM     20  C   UNL     1      47.187   6.727  12.443  0.00  0.00    +0.000 A 
ATOM     21  C   UNL     1      46.386   6.311  11.381  0.00  0.00    +0.000 A 
ATOM     22  C   UNL     1      45.621   5.138  11.477  0.00  0.00    +0.000 A 
ATOM     23  C   UNL     1      45.681   4.393  12.664  0.00  0.00    +0.000 A 
ATOM     24  C   UNL     1      46.484   4.808  13.725  0.00  0.00    +0.000 A 
BRANCH  22  25
ATOM     25  C   UNL     1      44.730   4.729  10.323  0.00  0.00    +0.000 C 
BRANCH  25  26
ATOM     26  O   UNL     1      43.553   5.550  10.294  0.00  0.00    +0.000 OA
ATOM     27  H   UNL     1      43.557   6.092  11.099  0.00  0.00    +0.000 HD
ENDBRANCH  25  26
BRANCH  25  28
ATOM     28  C   UNL     1      45.426   4.812   8.935  0.00  0.00    +0.000 C 
BRANCH  28  29
ATOM     29  N   UNL     1      44.978   3.837   7.921  0.00  0.00    +0.000 NA
ATOM     30  C   UNL     1      44.560   2.574   8.552  0.00  0.00    +0.000 C 
ATOM     31  C   UNL     1      45.847   1.789   8.712  0.00  0.00    +0.000 C 
ATOM     32  C   UNL     1      46.597   2.113   7.434  0.00  0.00    +0.000 C 
ATOM     33  C   UNL     1      46.048   3.462   6.981  0.00  0.00    +0.000 C 
ENDBRANCH  28  29
ENDBRANCH  25  28
ENDBRANCH  22  25
ENDBRANCH  18  19
ENDBRANCH   1  18
TORSDOF 9
ENDMDL
MODEL 3
REMARK VINA RESULT:    -6.846      2.274      8.152
REMARK INTER + INTRA:         -11.521
REMARK INTER:                 -10.515
REMARK INTRA:                  -1.007
REMARK UNBOUND:                -1.273
REMARK  Name = 
REMARK  10 active torsions:
REMARK  status: ('A' for Active; 'I' for Inactive)
REMARK    1  A    between atoms: C_1  and  C_2
REMARK    2  A    between atoms: C_2  and  N_3
REMARK    3  A    between atoms: C_2  and  C_19
REMARK    4  A    between atoms: N_3  and  C_4
REMARK    5  A    between atoms: C_4  and  C_5
REMARK    6  A    between atoms: C_8  and  C_9
REMARK    7  A    between atoms: C_9  and  O_10
REMARK    8  A    between atoms: C_9  and  C_11
REMARK    9  A    between atoms: C_11  and  N_12
REMARK   10  A    between atoms: C_19  and  C_21
REMARK                            x       y       z     vdW  Elec       q    Type
REMARK                         _______ _______ _______ _____ _____    ______ ____
ROOT
ATOM      1  N   UNL     1      48.333   7.421  15.499  0.00  0.00    +0.000 NA
ATOM      2  H   UNL     1      47.516   6.914  15.852  0.00  0.00    +0.000 HD
ENDROOT
BRANCH   1   4
ATOM      3  C   UNL     1      50.133   8.348  16.850  0.00  0.00    +0.000 C 
ATOM      4  C   UNL     1      49.505   7.060  16.322  0.00  0.00    +0.000 C 
BRANCH   4   5
ATOM      5  C   UNL     1      49.095   6.153  17.506  0.00  0.00    +0.000 C 
ATOM      6  O   UNL     1      48.845   6.634  18.613  0.00  0.00    +0.000 OA
BRANCH   5   7
ATOM      7  C   UNL     1      49.041   4.703  17.288  0.00  0.00    +0.000 A 
ATOM      8  C   UNL     1      47.950   4.057  16.730  0.00  0.00    +0.000 A 
ATOM      9  S   UNL     1      48.231   2.396  16.442  0.00  0.00    +0.000 S 
ATOM     10  C   UNL     1      49.809   2.495  17.070  0.00  0.00    +0.000 A 
ATOM     11  N   UNL     1      50.636   1.418  17.071  0.00  0.00    +0.000 NA
ATOM     12  C   UNL     1      51.807   1.651  17.568  0.00  0.00    +0.000 A 
ATOM     13  N   UNL     1      52.209   2.850  18.100  0.00  0.00    +0.000 N 
ATOM     14  C   UNL     1      51.354   3.921  18.255  0.00  0.00    +0.000 A 
ATOM     15  O   UNL     1      51.630   4.856  18.998  0.00  0.00    +0.000 OA
ATOM     16  C   UNL     1      50.088   3.755  17.567  0.00  0.00    +0.000 A 
ATOM     17  H   UNL     1      53.099   2.928  18.569  0.00  0.00    +0.000 HD
ENDBRANCH   5   7
ENDBRANCH   4   5
ENDBRANCH   1   4
BRANCH   1  18
ATOM     18  C   UNL     1      48.519   7.044  14.096  0.00  0.00    +0.000 C 
BRANCH  18  19
ATOM     19  C   UNL     1      47.196   6.713  13.461  0.00  0.00    +0.000 A 
ATOM     20  C   UNL     1      46.507   5.548  13.817  0.00  0.00    +0.000 A 
ATOM     21  C   UNL     1      45.295   5.229  13.206  0.00  0.00    +0.000 A 
ATOM     22  C   UNL     1      44.745   6.068  12.224  0.00  0.00    +0.000 A 
ATOM     23  C   UNL     1      45.441   7.234  11.871  0.00  0.00    +0.000 A 
ATOM     24  C   UNL     1      46.652   7.553  12.483  0.00  0.00    +0.000 A 
BRANCH  22  25
ATOM     25  C   UNL     1      43.447   5.678  11.549  0.00  0.00    +0.000 C 
BRANCH  25  26
ATOM     26  O   UNL     1      42.686   6.852  11.231  0.00  0.00    +0.000 OA
ATOM     27  H   UNL     1      43.236   7.622  11.445  0.00  0.00    +0.000 HD
ENDBRANCH  25  26
BRANCH  25  28
ATOM     28  C   UNL     1      43.641   4.846  10.251  0.00  0.00    +0.000 C 
BRANCH  28  29
ATOM     29  N   UNL     1      44.961   4.206  10.076  0.00  0.00    +0.000 NA
ATOM     30  C   UNL     1      45.506   4.481   8.736  0.00  0.00    +0.000 C 
ATOM     31  C   UNL     1      44.891   3.413   7.853  0.00  0.00    +0.000 C 
ATOM     32  C   UNL     1      44.905   2.189   8.749  0.00  0.00    +0.000 C 
ATOM     33  C   UNL     1      44.898   2.738  10.172  0.00  0.00    +0.000 C 
ENDBRANCH  28  29
ENDBRANCH  25  28
ENDBRANCH  22  25
ENDBRANCH  18  19
ENDBRANCH   1  18
TORSDOF 9
ENDMDL
MODEL 4
REMARK VINA RESULT:    -6.821      2.926      7.635
REMARK INTER + INTRA:         -11.484
REMARK INTER:                  -9.730
REMARK INTRA:                  -1.753
REMARK UNBOUND:                -1.273
REMARK  Name = 
REMARK  10 active torsions:
REMARK  status: ('A' for Active; 'I' for Inactive)
REMARK    1  A    between atoms: C_1  and  C_2
REMARK    2  A    between atoms: C_2  and  N_3
REMARK    3  A    between atoms: C_2  and  C_19
REMARK    4  A    between atoms: N_3  and  C_4
REMARK    5  A    between atoms: C_4  and  C_5
REMARK    6  A    between atoms: C_8  and  C_9
REMARK    7  A    between atoms: C_9  and  O_10
REMARK    8  A    between atoms: C_9  and  C_11
REMARK    9  A    between atoms: C_11  and  N_12
REMARK   10  A    between atoms: C_19  and  C_21
REMARK                            x       y       z     vdW  Elec       q    Type
REMARK                         _______ _______ _______ _____ _____    ______ ____
ROOT
ATOM      1  N   UNL     1      50.441   7.524  14.494  0.00  0.00    +0.000 NA
ATOM      2  H   UNL     1      51.351   7.232  14.126  0.00  0.00    +0.000 HD
ENDROOT
BRANCH   1   4
ATOM      3  C   UNL     1      50.782   9.570  15.766  0.00  0.00    +0.000 C 
ATOM      4  C   UNL     1      50.631   8.054  15.860  0.00  0.00    +0.000 C 
BRANCH   4   5
ATOM      5  C   UNL     1      49.427   7.703  16.766  0.00  0.00    +0.000 C 
ATOM      6  O   UNL     1      48.451   8.450  16.838  0.00  0.00    +0.000 OA
BRANCH   5   7
ATOM      7  C   UNL     1      49.491   6.471  17.562  0.00  0.00    +0.000 A 
ATOM      8  C   UNL     1      50.244   6.350  18.718  0.00  0.00    +0.000 A 
ATOM      9  S   UNL     1      49.999   4.864  19.525  0.00  0.00    +0.000 S 
ATOM     10  C   UNL     1      48.894   4.339  18.343  0.00  0.00    +0.000 A 
ATOM     11  N   UNL     1      48.253   3.147  18.456  0.00  0.00    +0.000 NA
ATOM     12  C   UNL     1      47.435   2.891  17.487  0.00  0.00    +0.000 A 
ATOM     13  N   UNL     1      47.231   3.702  16.399  0.00  0.00    +0.000 N 
ATOM     14  C   UNL     1      47.969   4.844  16.171  0.00  0.00    +0.000 A 
ATOM     15  O   UNL     1      47.996   5.378  15.068  0.00  0.00    +0.000 OA
ATOM     16  C   UNL     1      48.777   5.248  17.307  0.00  0.00    +0.000 A 
ATOM     17  H   UNL     1      46.660   3.389  15.628  0.00  0.00    +0.000 HD
ENDBRANCH   5   7
ENDBRANCH   4   5
ENDBRANCH   1   4
BRANCH   1  18
ATOM     18  C   UNL     1      49.899   8.540  13.590  0.00  0.00    +0.000 C 
BRANCH  18  19
ATOM     19  C   UNL     1      48.531   8.140  13.107  0.00  0.00    +0.000 A 
ATOM     20  C   UNL     1      48.383   7.139  12.140  0.00  0.00    +0.000 A 
ATOM     21  C   UNL     1      47.115   6.789  11.674  0.00  0.00    +0.000 A 
ATOM     22  C   UNL     1      45.969   7.434  12.164  0.00  0.00    +0.000 A 
ATOM     23  C   UNL     1      46.125   8.438  13.132  0.00  0.00    +0.000 A 
ATOM     24  C   UNL     1      47.392   8.785  13.600  0.00  0.00    +0.000 A 
BRANCH  22  25
ATOM     25  C   UNL     1      44.609   7.062  11.613  0.00  0.00    +0.000 C 
BRANCH  25  26
ATOM     26  O   UNL     1      44.092   8.134  10.812  0.00  0.00    +0.000 OA
ATOM     27  H   UNL     1      43.987   7.798   9.908  0.00  0.00    +0.000 HD
ENDBRANCH  25  26
BRANCH  25  28
ATOM     28  C   UNL     1      44.613   5.763  10.759  0.00  0.00    +0.000 C 
BRANCH  28  29
ATOM     29  N   UNL     1      43.395   4.933  10.826  0.00  0.00    +0.000 NA
ATOM     30  C   UNL     1      42.692   5.132  12.104  0.00  0.00    +0.000 C 
ATOM     31  C   UNL     1      43.375   4.177  13.064  0.00  0.00    +0.000 C 
ATOM     32  C   UNL     1      43.628   2.958  12.198  0.00  0.00    +0.000 C 
ATOM     33  C   UNL     1      43.686   3.490  10.769  0.00  0.00    +0.000 C 
ENDBRANCH  28  29
ENDBRANCH  25  28
ENDBRANCH  22  25
ENDBRANCH  18  19
ENDBRANCH   1  18
TORSDOF 9
ENDMDL
MODEL 5
REMARK VINA RESULT:    -6.520      3.111      8.505
REMARK INTER + INTRA:         -11.033
REMARK INTER:                  -9.842
REMARK INTRA:                  -1.191
REMARK UNBOUND:                -1.273
REMARK  Name = 
REMARK  10 active torsions:
REMARK  status: ('A' for Active; 'I' for Inactive)
REMARK    1  A    between atoms: C_1  and  C_2
REMARK    2  A    between atoms: C_2  and  N_3
REMARK    3  A    between atoms: C_2  and  C_19
REMARK    4  A    between atoms: N_3  and  C_4
REMARK    5  A    between atoms: C_4  and  C_5
REMARK    6  A    between atoms: C_8  and  C_9
REMARK    7  A    between atoms: C_9  and  O_10
REMARK    8  A    between atoms: C_9  and  C_11
REMARK    9  A    between atoms: C_11  and  N_12
REMARK   10  A    between atoms: C_19  and  C_21
REMARK                            x       y       z     vdW  Elec       q    Type
REMARK                         _______ _______ _______ _____ _____    ______ ____
ROOT
ATOM      1  N   UNL     1      47.933   6.800  15.024  0.00  0.00    +0.000 NA
ATOM      2  H   UNL     1      47.533   7.145  15.902  0.00  0.00    +0.000 HD
ENDROOT
BRANCH   1   4
ATOM      3  C   UNL     1      49.794   7.715  13.751  0.00  0.00    +0.000 C 
ATOM      4  C   UNL     1      49.393   7.020  15.050  0.00  0.00    +0.000 C 
BRANCH   4   5
ATOM      5  C   UNL     1      49.802   7.894  16.259  0.00  0.00    +0.000 C 
ATOM      6  O   UNL     1      50.636   8.792  16.137  0.00  0.00    +0.000 OA
BRANCH   5   7
ATOM      7  C   UNL     1      49.194   7.606  17.564  0.00  0.00    +0.000 A 
ATOM      8  C   UNL     1      48.388   8.504  18.244  0.00  0.00    +0.000 A 
ATOM      9  S   UNL     1      47.687   7.841  19.653  0.00  0.00    +0.000 S 
ATOM     10  C   UNL     1      48.455   6.344  19.400  0.00  0.00    +0.000 A 
ATOM     11  N   UNL     1      48.237   5.291  20.229  0.00  0.00    +0.000 NA
ATOM     12  C   UNL     1      48.880   4.217  19.901  0.00  0.00    +0.000 A 
ATOM     13  N   UNL     1      49.750   4.117  18.845  0.00  0.00    +0.000 N 
ATOM     14  C   UNL     1      50.114   5.199  18.072  0.00  0.00    +0.000 A 
ATOM     15  O   UNL     1      51.103   5.165  17.350  0.00  0.00    +0.000 OA
ATOM     16  C   UNL     1      49.297   6.376  18.304  0.00  0.00    +0.000 A 
ATOM     17  H   UNL     1      50.300   3.280  18.713  0.00  0.00    +0.000 HD
ENDBRANCH   5   7
ENDBRANCH   4   5
ENDBRANCH   1   4
BRANCH   1  18
ATOM     18  C   UNL     1      47.600   5.379  14.911  0.00  0.00    +0.000 C 
BRANCH  18  19
ATOM     19  C   UNL     1      46.810   5.121  13.656  0.00  0.00    +0.000 A 
ATOM     20  C   UNL     1      46.683   6.114  12.679  0.00  0.00    +0.000 A 
ATOM     21  C   UNL     1      45.926   5.882  11.530  0.00  0.00    +0.000 A 
ATOM     22  C   UNL     1      45.280   4.652  11.335  0.00  0.00    +0.000 A 
ATOM     23  C   UNL     1      45.411   3.661  12.319  0.00  0.00    +0.000 A 
ATOM     24  C   UNL     1      46.169   3.892  13.466  0.00  0.00    +0.000 A 
BRANCH  22  25
ATOM     25  C   UNL     1      44.433   4.440  10.097  0.00  0.00    +0.000 C 
BRANCH  25  26
ATOM     26  O   UNL     1      43.347   5.377  10.076  0.00  0.00    +0.000 OA
ATOM     27  H   UNL     1      43.385   5.885  10.903  0.00  0.00    +0.000 HD
ENDBRANCH  25  26
BRANCH  25  28
ATOM     28  C   UNL     1      45.227   4.572   8.767  0.00  0.00    +0.000 C 
BRANCH  28  29
ATOM     29  N   UNL     1      44.940   3.558   7.732  0.00  0.00    +0.000 NA
ATOM     30  C   UNL     1      44.665   2.246   8.342  0.00  0.00    +0.000 C 
ATOM     31  C   UNL     1      46.035   1.629   8.543  0.00  0.00    +0.000 C 
ATOM     32  C   UNL     1      46.780   2.056   7.294  0.00  0.00    +0.000 C 
ATOM     33  C   UNL     1      46.081   3.330   6.829  0.00  0.00    +0.000 C 
ENDBRANCH  28  29
ENDBRANCH  25  28
ENDBRANCH  22  25
ENDBRANCH  18  19
ENDBRANCH   1  18
TORSDOF 9
ENDMDL
MODEL 6
REMARK VINA RESULT:    -6.484      2.884      8.081
REMARK INTER + INTRA:         -10.979
REMARK INTER:                  -9.847
REMARK INTRA:                  -1.133
REMARK UNBOUND:                -1.273
REMARK  Name = 
REMARK  10 active torsions:
REMARK  status: ('A' for Active; 'I' for Inactive)
REMARK    1  A    between atoms: C_1  and  C_2
REMARK    2  A    between atoms: C_2  and  N_3
REMARK    3  A    between atoms: C_2  and  C_19
REMARK    4  A    between atoms: N_3  and  C_4
REMARK    5  A    between atoms: C_4  and  C_5
REMARK    6  A    between atoms: C_8  and  C_9
REMARK    7  A    between atoms: C_9  and  O_10
REMARK    8  A    between atoms: C_9  and  C_11
REMARK    9  A    between atoms: C_11  and  N_12
REMARK   10  A    between atoms: C_19  and  C_21
REMARK                            x       y       z     vdW  Elec       q    Type
REMARK                         _______ _______ _______ _____ _____    ______ ____
ROOT
ATOM      1  N   UNL     1      47.782   8.374  15.348  0.00  0.00    +0.000 NA
ATOM      2  H   UNL     1      47.547   7.379  15.419  0.00  0.00    +0.000 HD
ENDROOT
BRANCH   1   4
ATOM      3  C   UNL     1      49.414  10.064  15.982  0.00  0.00    +0.000 C 
ATOM      4  C   UNL     1      49.170   8.566  15.816  0.00  0.00    +0.000 C 
BRANCH   4   5
ATOM      5  C   UNL     1      49.407   7.845  17.164  0.00  0.00    +0.000 C 
ATOM      6  O   UNL     1      48.851   8.229  18.193  0.00  0.00    +0.000 OA
BRANCH   5   7
ATOM      7  C   UNL     1      50.338   6.709  17.192  0.00  0.00    +0.000 A 
ATOM      8  C   UNL     1      51.710   6.853  17.312  0.00  0.00    +0.000 A 
ATOM      9  S   UNL     1      52.527   5.362  17.484  0.00  0.00    +0.000 S 
ATOM     10  C   UNL     1      51.071   4.488  17.386  0.00  0.00    +0.000 A 
ATOM     11  N   UNL     1      51.049   3.136  17.518  0.00  0.00    +0.000 NA
ATOM     12  C   UNL     1      49.868   2.615  17.433  0.00  0.00    +0.000 A 
ATOM     13  N   UNL     1      48.716   3.319  17.189  0.00  0.00    +0.000 N 
ATOM     14  C   UNL     1      48.713   4.667  16.900  0.00  0.00    +0.000 A 
ATOM     15  O   UNL     1      47.740   5.208  16.387  0.00  0.00    +0.000 OA
ATOM     16  C   UNL     1      49.989   5.314  17.143  0.00  0.00    +0.000 A 
ATOM     17  H   UNL     1      47.846   2.834  17.027  0.00  0.00    +0.000 HD
ENDBRANCH   5   7
ENDBRANCH   4   5
ENDBRANCH   1   4
BRANCH   1  18
ATOM     18  C   UNL     1      47.622   8.770  13.949  0.00  0.00    +0.000 C 
BRANCH  18  19
ATOM     19  C   UNL     1      46.767   7.774  13.213  0.00  0.00    +0.000 A 
ATOM     20  C   UNL     1      45.618   8.189  12.531  0.00  0.00    +0.000 A 
ATOM     21  C   UNL     1      44.813   7.259  11.873  0.00  0.00    +0.000 A 
ATOM     22  C   UNL     1      45.138   5.894  11.886  0.00  0.00    +0.000 A 
ATOM     23  C   UNL     1      46.291   5.484  12.572  0.00  0.00    +0.000 A 
ATOM     24  C   UNL     1      47.097   6.414  13.227  0.00  0.00    +0.000 A 
BRANCH  22  25
ATOM     25  C   UNL     1      44.225   4.901  11.197  0.00  0.00    +0.000 C 
BRANCH  25  26
ATOM     26  O   UNL     1      43.394   5.576  10.242  0.00  0.00    +0.000 OA
ATOM     27  H   UNL     1      43.368   5.030   9.441  0.00  0.00    +0.000 HD
ENDBRANCH  25  26
BRANCH  25  28
ATOM     28  C   UNL     1      44.983   3.754  10.470  0.00  0.00    +0.000 C 
BRANCH  28  29
ATOM     29  N   UNL     1      44.477   3.381   9.134  0.00  0.00    +0.000 NA
ATOM     30  C   UNL     1      44.528   1.922   8.941  0.00  0.00    +0.000 C 
ATOM     31  C   UNL     1      45.941   1.654   8.462  0.00  0.00    +0.000 C 
ATOM     32  C   UNL     1      46.212   2.833   7.546  0.00  0.00    +0.000 C 
ATOM     33  C   UNL     1      45.289   3.942   8.042  0.00  0.00    +0.000 C 
ENDBRANCH  28  29
ENDBRANCH  25  28
ENDBRANCH  22  25
ENDBRANCH  18  19
ENDBRANCH   1  18
TORSDOF 9
ENDMDL
MODEL 7
REMARK VINA RESULT:    -6.223      2.507      8.036
REMARK INTER + INTRA:         -10.588
REMARK INTER:                  -9.355
REMARK INTRA:                  -1.234
REMARK UNBOUND:                -1.273
REMARK  Name = 
REMARK  10 active torsions:
REMARK  status: ('A' for Active; 'I' for Inactive)
REMARK    1  A    between atoms: C_1  and  C_2
REMARK    2  A    between atoms: C_2  and  N_3
REMARK    3  A    between atoms: C_2  and  C_19
REMARK    4  A    between atoms: N_3  and  C_4
REMARK    5  A    between atoms: C_4  and  C_5
REMARK    6  A    between atoms: C_8  and  C_9
REMARK    7  A    between atoms: C_9  and  O_10
REMARK    8  A    between atoms: C_9  and  C_11
REMARK    9  A    between atoms: C_11  and  N_12
REMARK   10  A    between atoms: C_19  and  C_21
REMARK                            x       y       z     vdW  Elec       q    Type
REMARK                         _______ _______ _______ _____ _____    ______ ____
ROOT
ATOM      1  N   UNL     1      50.108   7.095  15.250  0.00  0.00    +0.000 NA
ATOM      2  H   UNL     1      50.850   6.768  14.624  0.00  0.00    +0.000 HD
ENDROOT
BRANCH   1   4
ATOM      3  C   UNL     1      50.587   8.877  16.835  0.00  0.00    +0.000 C 
ATOM      4  C   UNL     1      50.697   7.377  16.574  0.00  0.00    +0.000 C 
BRANCH   4   5
ATOM      5  C   UNL     1      49.959   6.597  17.688  0.00  0.00    +0.000 C 
ATOM      6  O   UNL     1      49.810   7.084  18.809  0.00  0.00    +0.000 OA
BRANCH   5   7
ATOM      7  C   UNL     1      49.469   5.247  17.385  0.00  0.00    +0.000 A 
ATOM      8  C   UNL     1      48.199   4.990  16.895  0.00  0.00    +0.000 A 
ATOM      9  S   UNL     1      47.961   3.350  16.478  0.00  0.00    +0.000 S 
ATOM     10  C   UNL     1      49.541   2.940  16.956  0.00  0.00    +0.000 A 
ATOM     11  N   UNL     1      50.016   1.676  16.810  0.00  0.00    +0.000 NA
ATOM     12  C   UNL     1      51.238   1.520  17.206  0.00  0.00    +0.000 A 
ATOM     13  N   UNL     1      52.010   2.504  17.771  0.00  0.00    +0.000 N 
ATOM     14  C   UNL     1      51.518   3.756  18.074  0.00  0.00    +0.000 A 
ATOM     15  O   UNL     1      52.109   4.505  18.844  0.00  0.00    +0.000 OA
ATOM     16  C   UNL     1      50.211   4.019  17.502  0.00  0.00    +0.000 A 
ATOM     17  H   UNL     1      52.916   2.284  18.156  0.00  0.00    +0.000 HD
ENDBRANCH   5   7
ENDBRANCH   4   5
ENDBRANCH   1   4
BRANCH   1  18
ATOM     18  C   UNL     1      49.519   8.294  14.652  0.00  0.00    +0.000 C 
BRANCH  18  19
ATOM     19  C   UNL     1      48.239   7.952  13.938  0.00  0.00    +0.000 A 
ATOM     20  C   UNL     1      47.903   6.619  13.680  0.00  0.00    +0.000 A 
ATOM     21  C   UNL     1      46.729   6.306  12.994  0.00  0.00    +0.000 A 
ATOM     22  C   UNL     1      45.867   7.320  12.550  0.00  0.00    +0.000 A 
ATOM     23  C   UNL     1      46.210   8.655  12.812  0.00  0.00    +0.000 A 
ATOM     24  C   UNL     1      47.382   8.968  13.500  0.00  0.00    +0.000 A 
BRANCH  22  25
ATOM     25  C   UNL     1      44.619   6.955  11.774  0.00  0.00    +0.000 C 
BRANCH  25  26
ATOM     26  O   UNL     1      44.240   8.037  10.912  0.00  0.00    +0.000 OA
ATOM     27  H   UNL     1      44.073   8.811  11.473  0.00  0.00    +0.000 HD
ENDBRANCH  25  26
BRANCH  25  28
ATOM     28  C   UNL     1      44.770   5.667  10.916  0.00  0.00    +0.000 C 
BRANCH  28  29
ATOM     29  N   UNL     1      43.551   4.855  10.736  0.00  0.00    +0.000 NA
ATOM     30  C   UNL     1      42.637   5.016  11.879  0.00  0.00    +0.000 C 
ATOM     31  C   UNL     1      43.133   4.012  12.902  0.00  0.00    +0.000 C 
ATOM     32  C   UNL     1      43.521   2.824  12.042  0.00  0.00    +0.000 C 
ATOM     33  C   UNL     1      43.833   3.411  10.669  0.00  0.00    +0.000 C 
ENDBRANCH  28  29
ENDBRANCH  25  28
ENDBRANCH  22  25
ENDBRANCH  18  19
ENDBRANCH   1  18
TORSDOF 9
ENDMDL
MODEL 8
REMARK VINA RESULT:    -6.140      3.198      7.835
REMARK INTER + INTRA:         -10.464
REMARK INTER:                  -9.360
REMARK INTRA:                  -1.104
REMARK UNBOUND:                -1.273
REMARK  Name = 
REMARK  10 active torsions:
REMARK  status: ('A' for Active; 'I' for Inactive)
REMARK    1  A    between atoms: C_1  and  C_2
REMARK    2  A    between atoms: C_2  and  N_3
REMARK    3  A    between atoms: C_2  and  C_19
REMARK    4  A    between atoms: N_3  and  C_4
REMARK    5  A    between atoms: C_4  and  C_5
REMARK    6  A    between atoms: C_8  and  C_9
REMARK    7  A    between atoms: C_9  and  O_10
REMARK    8  A    between atoms: C_9  and  C_11
REMARK    9  A    between atoms: C_11  and  N_12
REMARK   10  A    between atoms: C_19  and  C_21
REMARK                            x       y       z     vdW  Elec       q    Type
REMARK                         _______ _______ _______ _____ _____    ______ ____
ROOT
ATOM      1  N   UNL     1      47.773   8.901  15.278  0.00  0.00    +0.000 NA
ATOM      2  H   UNL     1      47.842   7.935  15.612  0.00  0.00    +0.000 HD
ENDROOT
BRANCH   1   4
ATOM      3  C   UNL     1      48.355  10.938  16.475  0.00  0.00    +0.000 C 
ATOM      4  C   UNL     1      48.908   9.672  15.824  0.00  0.00    +0.000 C 
BRANCH   4   5
ATOM      5  C   UNL     1      49.690   8.844  16.871  0.00  0.00    +0.000 C 
ATOM      6  O   UNL     1      50.921   8.850  16.890  0.00  0.00    +0.000 OA
BRANCH   5   7
ATOM      7  C   UNL     1      48.928   8.026  17.822  0.00  0.00    +0.000 A 
ATOM      8  C   UNL     1      48.492   8.494  19.051  0.00  0.00    +0.000 A 
ATOM      9  S   UNL     1      47.490   7.381  19.874  0.00  0.00    +0.000 S 
ATOM     10  C   UNL     1      47.627   6.241  18.619  0.00  0.00    +0.000 A 
ATOM     11  N   UNL     1      46.956   5.061  18.662  0.00  0.00    +0.000 NA
ATOM     12  C   UNL     1      47.149   4.305  17.630  0.00  0.00    +0.000 A 
ATOM     13  N   UNL     1      47.983   4.606  16.582  0.00  0.00    +0.000 N 
ATOM     14  C   UNL     1      48.794   5.720  16.571  0.00  0.00    +0.000 A 
ATOM     15  O   UNL     1      49.740   5.815  15.797  0.00  0.00    +0.000 OA
ATOM     16  C   UNL     1      48.489   6.669  17.626  0.00  0.00    +0.000 A 
ATOM     17  H   UNL     1      48.169   3.921  15.865  0.00  0.00    +0.000 HD
ENDBRANCH   5   7
ENDBRANCH   4   5
ENDBRANCH   1   4
BRANCH   1  18
ATOM     18  C   UNL     1      47.794   8.869  13.814  0.00  0.00    +0.000 C 
BRANCH  18  19
ATOM     19  C   UNL     1      46.894   7.778  13.299  0.00  0.00    +0.000 A 
ATOM     20  C   UNL     1      47.234   6.432  13.475  0.00  0.00    +0.000 A 
ATOM     21  C   UNL     1      46.412   5.424  12.972  0.00  0.00    +0.000 A 
ATOM     22  C   UNL     1      45.233   5.740  12.280  0.00  0.00    +0.000 A 
ATOM     23  C   UNL     1      44.898   7.091  12.106  0.00  0.00    +0.000 A 
ATOM     24  C   UNL     1      45.718   8.099  12.611  0.00  0.00    +0.000 A 
BRANCH  22  25
ATOM     25  C   UNL     1      44.379   4.627  11.711  0.00  0.00    +0.000 C 
BRANCH  25  26
ATOM     26  O   UNL     1      43.253   5.177  11.013  0.00  0.00    +0.000 OA
ATOM     27  H   UNL     1      42.532   5.274  11.655  0.00  0.00    +0.000 HD
ENDBRANCH  25  26
BRANCH  25  28
ATOM     28  C   UNL     1      45.147   3.681  10.745  0.00  0.00    +0.000 C 
BRANCH  28  29
ATOM     29  N   UNL     1      44.489   3.390   9.455  0.00  0.00    +0.000 NA
ATOM     30  C   UNL     1      44.634   1.969   9.099  0.00  0.00    +0.000 C 
ATOM     31  C   UNL     1      45.982   1.889   8.409  0.00  0.00    +0.000 C 
ATOM     32  C   UNL     1      46.020   3.171   7.600  0.00  0.00    +0.000 C 
ATOM     33  C   UNL     1      45.087   4.131   8.332  0.00  0.00    +0.000 C 
ENDBRANCH  28  29
ENDBRANCH  25  28
ENDBRANCH  22  25
ENDBRANCH  18  19
ENDBRANCH   1  18
TORSDOF 9
ENDMDL
MODEL 9
REMARK VINA RESULT:    -5.899      2.563      3.536
REMARK INTER + INTRA:         -10.104
REMARK INTER:                  -8.508
REMARK INTRA:                  -1.596
REMARK UNBOUND:                -1.273
REMARK  Name = 
REMARK  10 active torsions:
REMARK  status: ('A' for Active; 'I' for Inactive)
REMARK    1  A    between atoms: C_1  and  C_2
REMARK    2  A    between atoms: C_2  and  N_3
REMARK    3  A    between atoms: C_2  and  C_19
REMARK    4  A    between atoms: N_3  and  C_4
REMARK    5  A    between atoms: C_4  and  C_5
REMARK    6  A    between atoms: C_8  and  C_9
REMARK    7  A    between atoms: C_9  and  O_10
REMARK    8  A    between atoms: C_9  and  C_11
REMARK    9  A    between atoms: C_11  and  N_12
REMARK   10  A    between atoms: C_19  and  C_21
REMARK                            x       y       z     vdW  Elec       q    Type
REMARK                         _______ _______ _______ _____ _____    ______ ____
ROOT
ATOM      1  N   UNL     1      47.650   8.533  14.823  0.00  0.00    +0.000 NA
ATOM      2  H   UNL     1      47.291   9.284  15.421  0.00  0.00    +0.000 HD
ENDROOT
BRANCH   1   4
ATOM      3  C   UNL     1      48.015  10.048  12.955  0.00  0.00    +0.000 C 
ATOM      4  C   UNL     1      47.256   8.811  13.427  0.00  0.00    +0.000 C 
BRANCH   4   5
ATOM      5  C   UNL     1      47.585   7.611  12.508  0.00  0.00    +0.000 C 
ATOM      6  O   UNL     1      48.326   7.747  11.533  0.00  0.00    +0.000 OA
BRANCH   5   7
ATOM      7  C   UNL     1      46.968   6.313  12.807  0.00  0.00    +0.000 A 
ATOM      8  C   UNL     1      47.671   5.237  13.324  0.00  0.00    +0.000 A 
ATOM      9  S   UNL     1      46.668   3.915  13.728  0.00  0.00    +0.000 S 
ATOM     10  C   UNL     1      45.273   4.740  13.209  0.00  0.00    +0.000 A 
ATOM     11  N   UNL     1      44.040   4.185  13.331  0.00  0.00    +0.000 NA
ATOM     12  C   UNL     1      43.077   4.937  12.905  0.00  0.00    +0.000 A 
ATOM     13  N   UNL     1      43.243   6.174  12.333  0.00  0.00    +0.000 N 
ATOM     14  C   UNL     1      44.483   6.706  12.055  0.00  0.00    +0.000 A 
ATOM     15  O   UNL     1      44.615   7.646  11.280  0.00  0.00    +0.000 OA
ATOM     16  C   UNL     1      45.578   5.972  12.660  0.00  0.00    +0.000 A 
ATOM     17  H   UNL     1      42.456   6.657  11.925  0.00  0.00    +0.000 HD
ENDBRANCH   5   7
ENDBRANCH   4   5
ENDBRANCH   1   4
BRANCH   1  18
ATOM     18  C   UNL     1      49.105   8.499  14.979  0.00  0.00    +0.000 C 
BRANCH  18  19
ATOM     19  C   UNL     1      49.518   7.312  15.809  0.00  0.00    +0.000 A 
ATOM     20  C   UNL     1      48.555   6.519  16.443  0.00  0.00    +0.000 A 
ATOM     21  C   UNL     1      48.942   5.436  17.233  0.00  0.00    +0.000 A 
ATOM     22  C   UNL     1      50.299   5.126  17.408  0.00  0.00    +0.000 A 
ATOM     23  C   UNL     1      51.259   5.926  16.770  0.00  0.00    +0.000 A 
ATOM     24  C   UNL     1      50.872   7.006  15.978  0.00  0.00    +0.000 A 
BRANCH  22  25
ATOM     25  C   UNL     1      50.692   3.969  18.303  0.00  0.00    +0.000 C 
BRANCH  25  26
ATOM     26  O   UNL     1      49.519   3.328  18.824  0.00  0.00    +0.000 OA
ATOM     27  H   UNL     1      49.525   2.411  18.509  0.00  0.00    +0.000 HD
ENDBRANCH  25  26
BRANCH  25  28
ATOM     28  C   UNL     1      51.568   2.898  17.593  0.00  0.00    +0.000 C 
BRANCH  28  29
ATOM     29  N   UNL     1      52.690   2.347  18.379  0.00  0.00    +0.000 NA
ATOM     30  C   UNL     1      53.415   3.417  19.084  0.00  0.00    +0.000 C 
ATOM     31  C   UNL     1      54.408   3.936  18.063  0.00  0.00    +0.000 C 
ATOM     32  C   UNL     1      54.855   2.671  17.357  0.00  0.00    +0.000 C 
ATOM     33  C   UNL     1      53.702   1.687  17.537  0.00  0.00    +0.000 C 
ENDBRANCH  28  29
ENDBRANCH  25  28
ENDBRANCH  22  25
ENDBRANCH  18  19
ENDBRANCH   1  18
TORSDOF 9
ENDMDL
