MODEL 1
REMARK VINA RESULT:    -7.357      0.000      0.000
REMARK INTER + INTRA:          -9.687
REMARK INTER:                  -9.292
REMARK INTRA:                  -0.395
REMARK UNBOUND:                -0.395
REMARK  Name = 
REMARK  5 active torsions:
REMARK  status: ('A' for Active; 'I' for Inactive)
REMARK    1  A    between atoms: N_1  and  C_2
REMARK    2  A    between atoms: C_2  and  C_3
REMARK    3  A    between atoms: C_6  and  S_7
REMARK    4  A    between atoms: S_7  and  C_8
REMARK    5  A    between atoms: C_8  and  C_9
REMARK                            x       y       z     vdW  Elec       q    Type
REMARK                         _______ _______ _______ _____ _____    ______ ____
ROOT
ATOM      1  C   UNL     1      46.589   2.384   7.487  0.00  0.00    +0.000 A 
ATOM      2  C   UNL     1      46.413   3.775   7.503  0.00  0.00    +0.000 A 
ATOM      3  C   UNL     1      45.538   4.380   8.415  0.00  0.00    +0.000 A 
ATOM      4  C   UNL     1      44.810   3.605   9.322  0.00  0.00    +0.000 A 
ATOM      5  C   UNL     1      44.998   2.218   9.317  0.00  0.00    +0.000 A 
ATOM      6  C   UNL     1      45.874   1.611   8.409  0.00  0.00    +0.000 A 
ENDROOT
BRANCH   1   7
ATOM      7  C   UNL     1      47.515   1.735   6.489  0.00  0.00    +0.000 C 
BRANCH   7   8
ATOM      8  N   UNL     1      48.690   2.556   6.220  0.00  0.00    +0.000 NA
ATOM      9  H   UNL     1      49.073   2.890   7.102  0.00  0.00    +0.000 HD
ATOM     10  H   UNL     1      48.400   3.384   5.701  0.00  0.00    +0.000 HD
ENDBRANCH   7   8
ENDBRANCH   1   7
BRANCH   4  11
ATOM     11  S   UNL     1      43.709   4.291  10.554  0.00  0.00    +0.000 S 
BRANCH  11  12
ATOM     12  C   UNL     1      44.363   3.579  12.107  0.00  0.00    +0.000 C 
BRANCH  12  13
ATOM     13  C   UNL     1      45.469   4.421  12.708  0.00  0.00    +0.000 A 
ATOM     14  C   UNL     1      45.942   5.562  12.056  0.00  0.00    +0.000 A 
ATOM     15  C   UNL     1      46.969   6.301  12.637  0.00  0.00    +0.000 A 
ATOM     16  C   UNL     1      47.503   5.880  13.849  0.00  0.00    +0.000 A 
ATOM     17  C   UNL     1      46.985   4.736  14.426  0.00  0.00    +0.000 A 
ATOM     18  F   UNL     1      47.502   4.320  15.592  0.00  0.00    +0.000 F 
ATOM     19  N   UNL     1      45.993   3.998  13.887  0.00  0.00    +0.000 NA
ENDBRANCH  12  13
ENDBRANCH  11  12
ENDBRANCH   4  11
TORSDOF 5
ENDMDL
MODEL 2
REMARK VINA RESULT:    -7.165      2.774      6.131
REMARK INTER + INTRA:          -9.445
REMARK INTER:                  -9.025
REMARK INTRA:                  -0.420
REMARK UNBOUND:                -0.395
REMARK  Name = 
REMARK  5 active torsions:
REMARK  status: ('A' for Active; 'I' for Inactive)
REMARK    1  A    between atoms: N_1  and  C_2
REMARK    2  A    between atoms: C_2  and  C_3
REMARK    3  A    between atoms: C_6  and  S_7
REMARK    4  A    between atoms: S_7  and  C_8
REMARK    5  A    between atoms: C_8  and  C_9
REMARK                            x       y       z     vdW  Elec       q    Type
REMARK                         _______ _______ _______ _____ _____    ______ ____
ROOT
ATOM      1  C   UNL     1      47.043   6.119  13.121  0.00  0.00    +0.000 A 
ATOM      2  C   UNL     1      46.260   5.020  13.502  0.00  0.00    +0.000 A 
ATOM      3  C   UNL     1      45.256   4.524  12.659  0.00  0.00    +0.000 A 
ATOM      4  C   UNL     1      45.004   5.127  11.424  0.00  0.00    +0.000 A 
ATOM      5  C   UNL     1      45.796   6.214  11.037  0.00  0.00    +0.000 A 
ATOM      6  C   UNL     1      46.802   6.709  11.875  0.00  0.00    +0.000 A 
ENDROOT
BRANCH   1   7
ATOM      7  C   UNL     1      48.107   6.663  14.041  0.00  0.00    +0.000 C 
BRANCH   7   8
ATOM      8  N   UNL     1      49.414   6.709  13.395  0.00  0.00    +0.000 NA
ATOM      9  H   UNL     1      49.857   5.796  13.471  0.00  0.00    +0.000 HD
ATOM     10  H   UNL     1      50.009   7.361  13.905  0.00  0.00    +0.000 HD
ENDBRANCH   7   8
ENDBRANCH   1   7
BRANCH   4  11
ATOM     11  S   UNL     1      43.779   4.534  10.261  0.00  0.00    +0.000 S 
BRANCH  11  12
ATOM     12  C   UNL     1      44.272   2.788  10.024  0.00  0.00    +0.000 C 
BRANCH  12  13
ATOM     13  C   UNL     1      45.257   2.616   8.887  0.00  0.00    +0.000 A 
ATOM     14  C   UNL     1      45.578   3.681   8.043  0.00  0.00    +0.000 A 
ATOM     15  C   UNL     1      46.478   3.477   7.001  0.00  0.00    +0.000 A 
ATOM     16  C   UNL     1      47.030   2.215   6.822  0.00  0.00    +0.000 A 
ATOM     17  C   UNL     1      46.655   1.211   7.695  0.00  0.00    +0.000 A 
ATOM     18  F   UNL     1      47.179  -0.012   7.523  0.00  0.00    +0.000 F 
ATOM     19  N   UNL     1      45.784   1.377   8.712  0.00  0.00    +0.000 NA
ENDBRANCH  12  13
ENDBRANCH  11  12
ENDBRANCH   4  11
TORSDOF 5
ENDMDL
MODEL 3
REMARK VINA RESULT:    -6.390      1.885      2.396
REMARK INTER + INTRA:          -8.466
REMARK INTER:                  -7.986
REMARK INTRA:                  -0.480
REMARK UNBOUND:                -0.395
REMARK  Name = 
REMARK  5 active torsions:
REMARK  status: ('A' for Active; 'I' for Inactive)
REMARK    1  A    between atoms: N_1  and  C_2
REMARK    2  A    between atoms: C_2  and  C_3
REMARK    3  A    between atoms: C_6  and  S_7
REMARK    4  A    between atoms: S_7  and  C_8
REMARK    5  A    between atoms: C_8  and  C_9
REMARK                            x       y       z     vdW  Elec       q    Type
REMARK                         _______ _______ _______ _____ _____    ______ ____
ROOT
ATOM      1  C   UNL     1      45.956   2.977   8.097  0.00  0.00    +0.000 A 
ATOM      2  C   UNL     1      45.271   2.052   8.897  0.00  0.00    +0.000 A 
ATOM      3  C   UNL     1      44.412   2.479   9.918  0.00  0.00    +0.000 A 
ATOM      4  C   UNL     1      44.232   3.841  10.172  0.00  0.00    +0.000 A 
ATOM      5  C   UNL     1      44.904   4.766   9.364  0.00  0.00    +0.000 A 
ATOM      6  C   UNL     1      45.760   4.342   8.340  0.00  0.00    +0.000 A 
ENDROOT
BRANCH   1   7
ATOM      7  C   UNL     1      46.896   2.513   7.014  0.00  0.00    +0.000 C 
BRANCH   7   8
ATOM      8  N   UNL     1      47.044   3.508   5.957  0.00  0.00    +0.000 NA
ATOM      9  H   UNL     1      48.029   3.594   5.714  0.00  0.00    +0.000 HD
ATOM     10  H   UNL     1      46.757   4.416   6.319  0.00  0.00    +0.000 HD
ENDBRANCH   7   8
ENDBRANCH   1   7
BRANCH   4  11
ATOM     11  S   UNL     1      43.120   4.481  11.419  0.00  0.00    +0.000 S 
BRANCH  11  12
ATOM     12  C   UNL     1      44.119   4.345  12.946  0.00  0.00    +0.000 C 
BRANCH  12  13
ATOM     13  C   UNL     1      45.244   5.357  12.992  0.00  0.00    +0.000 A 
ATOM     14  C   UNL     1      46.560   4.962  13.240  0.00  0.00    +0.000 A 
ATOM     15  C   UNL     1      47.563   5.927  13.286  0.00  0.00    +0.000 A 
ATOM     16  C   UNL     1      47.228   7.261  13.090  0.00  0.00    +0.000 A 
ATOM     17  C   UNL     1      45.901   7.571  12.858  0.00  0.00    +0.000 A 
ATOM     18  F   UNL     1      45.570   8.858  12.675  0.00  0.00    +0.000 F 
ATOM     19  N   UNL     1      44.907   6.660  12.809  0.00  0.00    +0.000 NA
ENDBRANCH  12  13
ENDBRANCH  11  12
ENDBRANCH   4  11
TORSDOF 5
ENDMDL
MODEL 4
REMARK VINA RESULT:    -5.751      2.919      6.711
REMARK INTER + INTRA:          -7.658
REMARK INTER:                  -7.307
REMARK INTRA:                  -0.351
REMARK UNBOUND:                -0.395
REMARK  Name = 
REMARK  5 active torsions:
REMARK  status: ('A' for Active; 'I' for Inactive)
REMARK    1  A    between atoms: N_1  and  C_2
REMARK    2  A    between atoms: C_2  and  C_3
REMARK    3  A    between atoms: C_6  and  S_7
REMARK    4  A    between atoms: S_7  and  C_8
REMARK    5  A    between atoms: C_8  and  C_9
REMARK                            x       y       z     vdW  Elec       q    Type
REMARK                         _______ _______ _______ _____ _____    ______ ____
ROOT
ATOM      1  C   UNL     1      47.527   5.044  15.001  0.00  0.00    +0.000 A 
ATOM      2  C   UNL     1      46.554   4.236  14.398  0.00  0.00    +0.000 A 
ATOM      3  C   UNL     1      45.967   4.602  13.179  0.00  0.00    +0.000 A 
ATOM      4  C   UNL     1      46.332   5.793  12.545  0.00  0.00    +0.000 A 
ATOM      5  C   UNL     1      47.314   6.593  13.140  0.00  0.00    +0.000 A 
ATOM      6  C   UNL     1      47.904   6.227  14.355  0.00  0.00    +0.000 A 
ENDROOT
BRANCH   1   7
ATOM      7  C   UNL     1      48.139   4.657  16.324  0.00  0.00    +0.000 C 
BRANCH   7   8
ATOM      8  N   UNL     1      49.360   5.407  16.601  0.00  0.00    +0.000 NA
ATOM      9  H   UNL     1      50.080   5.128  15.938  0.00  0.00    +0.000 HD
ATOM     10  H   UNL     1      49.702   5.146  17.524  0.00  0.00    +0.000 HD
ENDBRANCH   7   8
ENDBRANCH   1   7
BRANCH   4  11
ATOM     11  S   UNL     1      45.676   6.318  10.965  0.00  0.00    +0.000 S 
BRANCH  11  12
ATOM     12  C   UNL     1      44.469   4.998  10.580  0.00  0.00    +0.000 C 
BRANCH  12  13
ATOM     13  C   UNL     1      45.002   4.005   9.569  0.00  0.00    +0.000 A 
ATOM     14  C   UNL     1      44.896   2.629   9.783  0.00  0.00    +0.000 A 
ATOM     15  C   UNL     1      45.410   1.750   8.833  0.00  0.00    +0.000 A 
ATOM     16  C   UNL     1      46.024   2.266   7.698  0.00  0.00    +0.000 A 
ATOM     17  C   UNL     1      46.096   3.640   7.564  0.00  0.00    +0.000 A 
ATOM     18  F   UNL     1      46.694   4.143   6.473  0.00  0.00    +0.000 F 
ATOM     19  N   UNL     1      45.609   4.516   8.466  0.00  0.00    +0.000 NA
ENDBRANCH  12  13
ENDBRANCH  11  12
ENDBRANCH   4  11
TORSDOF 5
ENDMDL
MODEL 5
REMARK VINA RESULT:    -5.202      3.401      4.780
REMARK INTER + INTRA:          -6.965
REMARK INTER:                  -6.668
REMARK INTRA:                  -0.297
REMARK UNBOUND:                -0.395
REMARK  Name = 
REMARK  5 active torsions:
REMARK  status: ('A' for Active; 'I' for Inactive)
REMARK    1  A    between atoms: N_1  and  C_2
REMARK    2  A    between atoms: C_2  and  C_3
REMARK    3  A    between atoms: C_6  and  S_7
REMARK    4  A    between atoms: S_7  and  C_8
REMARK    5  A    between atoms: C_8  and  C_9
REMARK                            x       y       z     vdW  Elec       q    Type
REMARK                         _______ _______ _______ _____ _____    ______ ____
ROOT
ATOM      1  C   UNL     1      44.519   4.244  11.278  0.00  0.00    +0.000 A 
ATOM      2  C   UNL     1      44.507   4.452  12.664  0.00  0.00    +0.000 A 
ATOM      3  C   UNL     1      45.239   5.498  13.243  0.00  0.00    +0.000 A 
ATOM      4  C   UNL     1      46.011   6.349  12.448  0.00  0.00    +0.000 A 
ATOM      5  C   UNL     1      46.012   6.151  11.062  0.00  0.00    +0.000 A 
ATOM      6  C   UNL     1      45.278   5.109  10.482  0.00  0.00    +0.000 A 
ENDROOT
BRANCH   1   7
ATOM      7  C   UNL     1      43.748   3.105  10.662  0.00  0.00    +0.000 C 
BRANCH   7   8
ATOM      8  N   UNL     1      43.055   2.307  11.668  0.00  0.00    +0.000 NA
ATOM      9  H   UNL     1      43.742   1.820  12.239  0.00  0.00    +0.000 HD
ATOM     10  H   UNL     1      42.509   1.587  11.197  0.00  0.00    +0.000 HD
ENDBRANCH   7   8
ENDBRANCH   1   7
BRANCH   4  11
ATOM     11  S   UNL     1      46.937   7.738  13.091  0.00  0.00    +0.000 S 
BRANCH  11  12
ATOM     12  C   UNL     1      48.513   6.961  13.601  0.00  0.00    +0.000 C 
BRANCH  12  13
ATOM     13  C   UNL     1      48.463   6.433  15.019  0.00  0.00    +0.000 A 
ATOM     14  C   UNL     1      48.892   7.214  16.095  0.00  0.00    +0.000 A 
ATOM     15  C   UNL     1      48.841   6.686  17.382  0.00  0.00    +0.000 A 
ATOM     16  C   UNL     1      48.371   5.391  17.564  0.00  0.00    +0.000 A 
ATOM     17  C   UNL     1      47.974   4.681  16.447  0.00  0.00    +0.000 A 
ATOM     18  F   UNL     1      47.525   3.427  16.616  0.00  0.00    +0.000 F 
ATOM     19  N   UNL     1      48.012   5.163  15.188  0.00  0.00    +0.000 NA
ENDBRANCH  12  13
ENDBRANCH  11  12
ENDBRANCH   4  11
TORSDOF 5
ENDMDL
MODEL 6
REMARK VINA RESULT:    -5.144      4.245      7.995
REMARK INTER + INTRA:          -6.892
REMARK INTER:                  -6.669
REMARK INTRA:                  -0.222
REMARK UNBOUND:                -0.395
REMARK  Name = 
REMARK  5 active torsions:
REMARK  status: ('A' for Active; 'I' for Inactive)
REMARK    1  A    between atoms: N_1  and  C_2
REMARK    2  A    between atoms: C_2  and  C_3
REMARK    3  A    between atoms: C_6  and  S_7
REMARK    4  A    between atoms: S_7  and  C_8
REMARK    5  A    between atoms: C_8  and  C_9
REMARK                            x       y       z     vdW  Elec       q    Type
REMARK                         _______ _______ _______ _____ _____    ______ ____
ROOT
ATOM      1  C   UNL     1      48.484   4.699  18.576  0.00  0.00    +0.000 A 
ATOM      2  C   UNL     1      48.630   5.683  17.588  0.00  0.00    +0.000 A 
ATOM      3  C   UNL     1      48.246   5.436  16.263  0.00  0.00    +0.000 A 
ATOM      4  C   UNL     1      47.720   4.195  15.896  0.00  0.00    +0.000 A 
ATOM      5  C   UNL     1      47.559   3.218  16.885  0.00  0.00    +0.000 A 
ATOM      6  C   UNL     1      47.939   3.463  18.210  0.00  0.00    +0.000 A 
ENDROOT
BRANCH   1   7
ATOM      7  C   UNL     1      48.920   4.961  19.996  0.00  0.00    +0.000 C 
BRANCH   7   8
ATOM      8  N   UNL     1      48.497   3.898  20.901  0.00  0.00    +0.000 NA
ATOM      9  H   UNL     1      49.112   3.096  20.783  0.00  0.00    +0.000 HD
ATOM     10  H   UNL     1      47.565   3.588  20.631  0.00  0.00    +0.000 HD
ENDBRANCH   7   8
ENDBRANCH   1   7
BRANCH   4  11
ATOM     11  S   UNL     1      47.156   3.806  14.243  0.00  0.00    +0.000 S 
BRANCH  11  12
ATOM     12  C   UNL     1      46.306   5.347  13.743  0.00  0.00    +0.000 C 
BRANCH  12  13
ATOM     13  C   UNL     1      45.072   5.080  12.907  0.00  0.00    +0.000 A 
ATOM     14  C   UNL     1      44.389   6.122  12.275  0.00  0.00    +0.000 A 
ATOM     15  C   UNL     1      43.251   5.834  11.526  0.00  0.00    +0.000 A 
ATOM     16  C   UNL     1      42.818   4.517  11.432  0.00  0.00    +0.000 A 
ATOM     17  C   UNL     1      43.544   3.545  12.094  0.00  0.00    +0.000 A 
ATOM     18  F   UNL     1      43.127   2.273  12.012  0.00  0.00    +0.000 F 
ATOM     19  N   UNL     1      44.649   3.792  12.828  0.00  0.00    +0.000 NA
ENDBRANCH  12  13
ENDBRANCH  11  12
ENDBRANCH   4  11
TORSDOF 5
ENDMDL
MODEL 7
REMARK VINA RESULT:    -5.078      4.777      8.069
REMARK INTER + INTRA:          -6.809
REMARK INTER:                  -6.512
REMARK INTRA:                  -0.296
REMARK UNBOUND:                -0.395
REMARK  Name = 
REMARK  5 active torsions:
REMARK  status: ('A' for Active; 'I' for Inactive)
REMARK    1  A    between atoms: N_1  and  C_2
REMARK    2  A    between atoms: C_2  and  C_3
REMARK    3  A    between atoms: C_6  and  S_7
REMARK    4  A    between atoms: S_7  and  C_8
REMARK    5  A    between atoms: C_8  and  C_9
REMARK                            x       y       z     vdW  Elec       q    Type
REMARK                         _______ _______ _______ _____ _____    ______ ____
ROOT
ATOM      1  C   UNL     1      51.810   2.370  17.751  0.00  0.00    +0.000 A 
ATOM      2  C   UNL     1      51.933   3.757  17.920  0.00  0.00    +0.000 A 
ATOM      3  C   UNL     1      50.853   4.612  17.662  0.00  0.00    +0.000 A 
ATOM      4  C   UNL     1      49.632   4.100  17.216  0.00  0.00    +0.000 A 
ATOM      5  C   UNL     1      49.504   2.715  17.063  0.00  0.00    +0.000 A 
ATOM      6  C   UNL     1      50.580   1.858  17.323  0.00  0.00    +0.000 A 
ENDROOT
BRANCH   1   7
ATOM      7  C   UNL     1      52.980   1.455  18.009  0.00  0.00    +0.000 C 
BRANCH   7   8
ATOM      8  N   UNL     1      52.568   0.060  18.121  0.00  0.00    +0.000 NA
ATOM      9  H   UNL     1      53.107  -0.501  17.465  0.00  0.00    +0.000 HD
ATOM     10  H   UNL     1      51.594  -0.017  17.834  0.00  0.00    +0.000 HD
ENDBRANCH   7   8
ENDBRANCH   1   7
BRANCH   4  11
ATOM     11  S   UNL     1      48.185   5.108  16.910  0.00  0.00    +0.000 S 
BRANCH  11  12
ATOM     12  C   UNL     1      47.163   4.020  15.853  0.00  0.00    +0.000 C 
BRANCH  12  13
ATOM     13  C   UNL     1      46.842   4.651  14.514  0.00  0.00    +0.000 A 
ATOM     14  C   UNL     1      47.559   5.754  14.047  0.00  0.00    +0.000 A 
ATOM     15  C   UNL     1      47.224   6.312  12.815  0.00  0.00    +0.000 A 
ATOM     16  C   UNL     1      46.178   5.761  12.085  0.00  0.00    +0.000 A 
ATOM     17  C   UNL     1      45.513   4.674  12.622  0.00  0.00    +0.000 A 
ATOM     18  F   UNL     1      44.497   4.142  11.925  0.00  0.00    +0.000 F 
ATOM     19  N   UNL     1      45.812   4.113  13.811  0.00  0.00    +0.000 NA
ENDBRANCH  12  13
ENDBRANCH  11  12
ENDBRANCH   4  11
TORSDOF 5
ENDMDL
MODEL 8
REMARK VINA RESULT:    -4.969      3.447      6.836
REMARK INTER + INTRA:          -6.671
REMARK INTER:                  -6.448
REMARK INTRA:                  -0.223
REMARK UNBOUND:                -0.395
REMARK  Name = 
REMARK  5 active torsions:
REMARK  status: ('A' for Active; 'I' for Inactive)
REMARK    1  A    between atoms: N_1  and  C_2
REMARK    2  A    between atoms: C_2  and  C_3
REMARK    3  A    between atoms: C_6  and  S_7
REMARK    4  A    between atoms: S_7  and  C_8
REMARK    5  A    between atoms: C_8  and  C_9
REMARK                            x       y       z     vdW  Elec       q    Type
REMARK                         _______ _______ _______ _____ _____    ______ ____
ROOT
ATOM      1  C   UNL     1      48.703   8.407  13.347  0.00  0.00    +0.000 A 
ATOM      2  C   UNL     1      47.541   8.782  12.658  0.00  0.00    +0.000 A 
ATOM      3  C   UNL     1      46.564   7.834  12.325  0.00  0.00    +0.000 A 
ATOM      4  C   UNL     1      46.734   6.489  12.663  0.00  0.00    +0.000 A 
ATOM      5  C   UNL     1      47.886   6.118  13.366  0.00  0.00    +0.000 A 
ATOM      6  C   UNL     1      48.863   7.063  13.702  0.00  0.00    +0.000 A 
ENDROOT
BRANCH   1   7
ATOM      7  C   UNL     1      49.763   9.426  13.683  0.00  0.00    +0.000 C 
BRANCH   7   8
ATOM      8  N   UNL     1      50.883   8.831  14.404  0.00  0.00    +0.000 NA
ATOM      9  H   UNL     1      51.751   9.244  14.072  0.00  0.00    +0.000 HD
ATOM     10  H   UNL     1      50.930   7.839  14.175  0.00  0.00    +0.000 HD
ENDBRANCH   7   8
ENDBRANCH   1   7
BRANCH   4  11
ATOM     11  S   UNL     1      45.520   5.219  12.326  0.00  0.00    +0.000 S 
BRANCH  11  12
ATOM     12  C   UNL     1      45.002   5.612  10.616  0.00  0.00    +0.000 C 
BRANCH  12  13
ATOM     13  C   UNL     1      45.239   4.459   9.662  0.00  0.00    +0.000 A 
ATOM     14  C   UNL     1      44.900   3.151  10.014  0.00  0.00    +0.000 A 
ATOM     15  C   UNL     1      45.145   2.118   9.113  0.00  0.00    +0.000 A 
ATOM     16  C   UNL     1      45.729   2.415   7.887  0.00  0.00    +0.000 A 
ATOM     17  C   UNL     1      46.042   3.734   7.618  0.00  0.00    +0.000 A 
ATOM     18  F   UNL     1      46.612   4.025   6.439  0.00  0.00    +0.000 F 
ATOM     19  N   UNL     1      45.818   4.755   8.470  0.00  0.00    +0.000 NA
ENDBRANCH  12  13
ENDBRANCH  11  12
ENDBRANCH   4  11
TORSDOF 5
ENDMDL
MODEL 9
REMARK VINA RESULT:    -4.912      4.305      5.478
REMARK INTER + INTRA:          -6.599
REMARK INTER:                  -6.242
REMARK INTRA:                  -0.357
REMARK UNBOUND:                -0.395
REMARK  Name = 
REMARK  5 active torsions:
REMARK  status: ('A' for Active; 'I' for Inactive)
REMARK    1  A    between atoms: N_1  and  C_2
REMARK    2  A    between atoms: C_2  and  C_3
REMARK    3  A    between atoms: C_6  and  S_7
REMARK    4  A    between atoms: S_7  and  C_8
REMARK    5  A    between atoms: C_8  and  C_9
REMARK                            x       y       z     vdW  Elec       q    Type
REMARK                         _______ _______ _______ _____ _____    ______ ____
ROOT
ATOM      1  C   UNL     1      44.336   5.054  12.101  0.00  0.00    +0.000 A 
ATOM      2  C   UNL     1      44.756   6.384  11.961  0.00  0.00    +0.000 A 
ATOM      3  C   UNL     1      45.983   6.811  12.486  0.00  0.00    +0.000 A 
ATOM      4  C   UNL     1      46.810   5.920  13.175  0.00  0.00    +0.000 A 
ATOM      5  C   UNL     1      46.397   4.588  13.301  0.00  0.00    +0.000 A 
ATOM      6  C   UNL     1      45.174   4.158  12.775  0.00  0.00    +0.000 A 
ENDROOT
BRANCH   1   7
ATOM      7  C   UNL     1      43.005   4.604  11.554  0.00  0.00    +0.000 C 
BRANCH   7   8
ATOM      8  N   UNL     1      42.930   3.153  11.423  0.00  0.00    +0.000 NA
ATOM      9  H   UNL     1      43.601   2.846  10.722  0.00  0.00    +0.000 HD
ATOM     10  H   UNL     1      42.008   2.903  11.069  0.00  0.00    +0.000 HD
ENDBRANCH   7   8
ENDBRANCH   1   7
BRANCH   4  11
ATOM     11  S   UNL     1      48.413   6.360  13.836  0.00  0.00    +0.000 S 
BRANCH  11  12
ATOM     12  C   UNL     1      48.073   6.519  15.626  0.00  0.00    +0.000 C 
BRANCH  12  13
ATOM     13  C   UNL     1      48.321   5.228  16.377  0.00  0.00    +0.000 A 
ATOM     14  C   UNL     1      47.268   4.374  16.713  0.00  0.00    +0.000 A 
ATOM     15  C   UNL     1      47.538   3.202  17.415  0.00  0.00    +0.000 A 
ATOM     16  C   UNL     1      48.851   2.915  17.771  0.00  0.00    +0.000 A 
ATOM     17  C   UNL     1      49.835   3.815  17.408  0.00  0.00    +0.000 A 
ATOM     18  F   UNL     1      51.103   3.546  17.755  0.00  0.00    +0.000 F 
ATOM     19  N   UNL     1      49.605   4.958  16.730  0.00  0.00    +0.000 NA
ENDBRANCH  12  13
ENDBRANCH  11  12
ENDBRANCH   4  11
TORSDOF 5
ENDMDL
