MODEL 1
REMARK VINA RESULT:    -8.588      0.000      0.000
REMARK INTER + INTRA:         -11.271
REMARK INTER:                 -10.596
REMARK INTRA:                  -0.675
REMARK UNBOUND:                -0.675
REMARK  Name = 
REMARK  4 active torsions:
REMARK  status: ('A' for Active; 'I' for Inactive)
REMARK    1  A    between atoms: C_2  and  C_4
REMARK    2  A    between atoms: N_8  and  C_9
REMARK    3  A    between atoms: C_9  and  C_10
REMARK    4  A    between atoms: C_14  and  C_15
REMARK                            x       y       z     vdW  Elec       q    Type
REMARK                         _______ _______ _______ _____ _____    ______ ____
ROOT
ATOM      1  C   UNL     1      43.424   3.846  11.138  0.00  0.00    +0.000 C 
ENDROOT
BRANCH   1   6
ATOM      2  C   UNL     1      46.588   2.479   7.299  0.00  0.00    +0.000 A 
ATOM      3  C   UNL     1      46.085   3.724   7.655  0.00  0.00    +0.000 A 
ATOM      4  C   UNL     1      45.230   3.822   8.753  0.00  0.00    +0.000 A 
ATOM      5  C   UNL     1      44.881   2.679   9.466  0.00  0.00    +0.000 A 
ATOM      6  N   UNL     1      44.097   2.698  10.584  0.00  0.00    +0.000 N 
ATOM      7  N   UNL     1      45.340   1.463   9.106  0.00  0.00    +0.000 NA
ATOM      8  C   UNL     1      46.172   1.381   8.035  0.00  0.00    +0.000 A 
ATOM      9  H   UNL     1      43.863   1.774  10.923  0.00  0.00    +0.000 HD
BRANCH   2  11
ATOM     10  N   UNL     1      47.460   3.223   5.160  0.00  0.00    +0.000 N 
ATOM     11  C   UNL     1      47.516   2.296   6.165  0.00  0.00    +0.000 C 
ATOM     12  O   UNL     1      48.323   1.376   6.140  0.00  0.00    +0.000 OA
ATOM     13  H   UNL     1      48.149   3.138   4.424  0.00  0.00    +0.000 HD
ATOM     14  H   UNL     1      46.991   4.112   5.262  0.00  0.00    +0.000 HD
ENDBRANCH   2  11
ENDBRANCH   1   6
BRANCH   1  15
ATOM     15  C   UNL     1      44.359   4.749  11.906  0.00  0.00    +0.000 A 
ATOM     16  C   UNL     1      45.146   4.283  12.958  0.00  0.00    +0.000 A 
ATOM     17  C   UNL     1      45.998   5.170  13.592  0.00  0.00    +0.000 A 
ATOM     18  N   UNL     1      46.121   6.471  13.252  0.00  0.00    +0.000 NA
ATOM     19  C   UNL     1      45.357   6.934  12.233  0.00  0.00    +0.000 A 
ATOM     20  C   UNL     1      44.490   6.093  11.531  0.00  0.00    +0.000 A 
BRANCH  19  21
ATOM     21  C   UNL     1      45.483   8.376  11.935  0.00  0.00    +0.000 A 
ATOM     22  C   UNL     1      46.645   9.092  12.288  0.00  0.00    +0.000 A 
ATOM     23  C   UNL     1      46.769  10.462  12.031  0.00  0.00    +0.000 A 
ATOM     24  C   UNL     1      45.727  11.149  11.414  0.00  0.00    +0.000 A 
ATOM     25  C   UNL     1      44.577  10.460  11.064  0.00  0.00    +0.000 A 
ATOM     26  F   UNL     1      43.566  11.114  10.478  0.00  0.00    +0.000 F 
ATOM     27  C   UNL     1      44.445   9.097  11.317  0.00  0.00    +0.000 A 
ENDBRANCH  19  21
ENDBRANCH   1  15
TORSDOF 4
ENDMDL
MODEL 2
REMARK VINA RESULT:    -8.540      4.000      7.212
REMARK INTER + INTRA:         -11.212
REMARK INTER:                 -10.425
REMARK INTRA:                  -0.787
REMARK UNBOUND:                -0.675
REMARK  Name = 
REMARK  4 active torsions:
REMARK  status: ('A' for Active; 'I' for Inactive)
REMARK    1  A    between atoms: C_2  and  C_4
REMARK    2  A    between atoms: N_8  and  C_9
REMARK    3  A    between atoms: C_9  and  C_10
REMARK    4  A    between atoms: C_14  and  C_15
REMARK                            x       y       z     vdW  Elec       q    Type
REMARK                         _______ _______ _______ _____ _____    ______ ____
ROOT
ATOM      1  C   UNL     1      44.472   6.266  12.355  0.00  0.00    +0.000 C 
ENDROOT
BRANCH   1   6
ATOM      2  C   UNL     1      49.456   7.588  12.537  0.00  0.00    +0.000 A 
ATOM      3  C   UNL     1      48.529   7.698  11.508  0.00  0.00    +0.000 A 
ATOM      4  C   UNL     1      47.224   7.254  11.719  0.00  0.00    +0.000 A 
ATOM      5  C   UNL     1      46.869   6.698  12.945  0.00  0.00    +0.000 A 
ATOM      6  N   UNL     1      45.601   6.293  13.251  0.00  0.00    +0.000 N 
ATOM      7  N   UNL     1      47.773   6.559  13.937  0.00  0.00    +0.000 NA
ATOM      8  C   UNL     1      49.040   6.995  13.718  0.00  0.00    +0.000 A 
ATOM      9  H   UNL     1      45.536   5.825  14.146  0.00  0.00    +0.000 HD
BRANCH   2  11
ATOM     10  N   UNL     1      51.570   7.560  11.347  0.00  0.00    +0.000 N 
ATOM     11  C   UNL     1      50.849   8.056  12.398  0.00  0.00    +0.000 C 
ATOM     12  O   UNL     1      51.329   8.876  13.170  0.00  0.00    +0.000 OA
ATOM     13  H   UNL     1      52.498   7.941  11.211  0.00  0.00    +0.000 HD
ATOM     14  H   UNL     1      51.140   7.084  10.565  0.00  0.00    +0.000 HD
ENDBRANCH   2  11
ENDBRANCH   1   6
BRANCH   1  15
ATOM     15  C   UNL     1      44.282   4.916  11.706  0.00  0.00    +0.000 A 
ATOM     16  C   UNL     1      43.380   3.975  12.200  0.00  0.00    +0.000 A 
ATOM     17  C   UNL     1      43.244   2.772  11.530  0.00  0.00    +0.000 A 
ATOM     18  N   UNL     1      43.934   2.449  10.415  0.00  0.00    +0.000 NA
ATOM     19  C   UNL     1      44.816   3.356   9.930  0.00  0.00    +0.000 A 
ATOM     20  C   UNL     1      44.991   4.600  10.540  0.00  0.00    +0.000 A 
BRANCH  19  21
ATOM     21  C   UNL     1      45.589   2.935   8.743  0.00  0.00    +0.000 A 
ATOM     22  C   UNL     1      45.971   3.866   7.756  0.00  0.00    +0.000 A 
ATOM     23  C   UNL     1      46.683   3.476   6.616  0.00  0.00    +0.000 A 
ATOM     24  C   UNL     1      47.030   2.140   6.438  0.00  0.00    +0.000 A 
ATOM     25  C   UNL     1      46.659   1.212   7.398  0.00  0.00    +0.000 A 
ATOM     26  F   UNL     1      46.981  -0.078   7.231  0.00  0.00    +0.000 F 
ATOM     27  C   UNL     1      45.949   1.591   8.534  0.00  0.00    +0.000 A 
ENDBRANCH  19  21
ENDBRANCH   1  15
TORSDOF 4
ENDMDL
MODEL 3
REMARK VINA RESULT:    -8.418      2.915      4.393
REMARK INTER + INTRA:         -11.062
REMARK INTER:                 -10.517
REMARK INTRA:                  -0.545
REMARK UNBOUND:                -0.675
REMARK  Name = 
REMARK  4 active torsions:
REMARK  status: ('A' for Active; 'I' for Inactive)
REMARK    1  A    between atoms: C_2  and  C_4
REMARK    2  A    between atoms: N_8  and  C_9
REMARK    3  A    between atoms: C_9  and  C_10
REMARK    4  A    between atoms: C_14  and  C_15
REMARK                            x       y       z     vdW  Elec       q    Type
REMARK                         _______ _______ _______ _____ _____    ______ ____
ROOT
ATOM      1  C   UNL     1      43.771   3.961  11.204  0.00  0.00    +0.000 C 
ENDROOT
BRANCH   1   6
ATOM      2  C   UNL     1      46.708   2.546   7.205  0.00  0.00    +0.000 A 
ATOM      3  C   UNL     1      46.212   3.792   7.565  0.00  0.00    +0.000 A 
ATOM      4  C   UNL     1      45.425   3.905   8.711  0.00  0.00    +0.000 A 
ATOM      5  C   UNL     1      45.137   2.774   9.470  0.00  0.00    +0.000 A 
ATOM      6  N   UNL     1      44.424   2.810  10.635  0.00  0.00    +0.000 N 
ATOM      7  N   UNL     1      45.590   1.556   9.109  0.00  0.00    +0.000 NA
ATOM      8  C   UNL     1      46.354   1.460   7.991  0.00  0.00    +0.000 A 
ATOM      9  H   UNL     1      44.225   1.891  11.008  0.00  0.00    +0.000 HD
BRANCH   2  11
ATOM     10  N   UNL     1      47.423   3.242   4.994  0.00  0.00    +0.000 N 
ATOM     11  C   UNL     1      47.566   2.349   6.020  0.00  0.00    +0.000 C 
ATOM     12  O   UNL     1      48.392   1.446   5.970  0.00  0.00    +0.000 OA
ATOM     13  H   UNL     1      48.066   3.150   4.217  0.00  0.00    +0.000 HD
ATOM     14  H   UNL     1      46.940   4.124   5.100  0.00  0.00    +0.000 HD
ENDBRANCH   2  11
ENDBRANCH   1   6
BRANCH   1  15
ATOM     15  C   UNL     1      44.750   4.946  11.796  0.00  0.00    +0.000 A 
ATOM     16  C   UNL     1      44.954   6.213  11.248  0.00  0.00    +0.000 A 
ATOM     17  C   UNL     1      45.848   7.067  11.869  0.00  0.00    +0.000 A 
ATOM     18  N   UNL     1      46.541   6.752  12.984  0.00  0.00    +0.000 NA
ATOM     19  C   UNL     1      46.352   5.522  13.521  0.00  0.00    +0.000 A 
ATOM     20  C   UNL     1      45.450   4.614  12.964  0.00  0.00    +0.000 A 
BRANCH  19  21
ATOM     21  C   UNL     1      47.175   5.202  14.707  0.00  0.00    +0.000 A 
ATOM     22  C   UNL     1      48.119   6.122  15.206  0.00  0.00    +0.000 A 
ATOM     23  C   UNL     1      48.919   5.823  16.315  0.00  0.00    +0.000 A 
ATOM     24  C   UNL     1      48.793   4.591  16.949  0.00  0.00    +0.000 A 
ATOM     25  C   UNL     1      47.871   3.674  16.468  0.00  0.00    +0.000 A 
ATOM     26  F   UNL     1      47.749   2.482  17.067  0.00  0.00    +0.000 F 
ATOM     27  C   UNL     1      47.072   3.963  15.365  0.00  0.00    +0.000 A 
ENDBRANCH  19  21
ENDBRANCH   1  15
TORSDOF 4
ENDMDL
MODEL 4
REMARK VINA RESULT:    -7.750      2.874      3.427
REMARK INTER + INTRA:         -10.238
REMARK INTER:                  -9.617
REMARK INTRA:                  -0.621
REMARK UNBOUND:                -0.675
REMARK  Name = 
REMARK  4 active torsions:
REMARK  status: ('A' for Active; 'I' for Inactive)
REMARK    1  A    between atoms: C_2  and  C_4
REMARK    2  A    between atoms: N_8  and  C_9
REMARK    3  A    between atoms: C_9  and  C_10
REMARK    4  A    between atoms: C_14  and  C_15
REMARK                            x       y       z     vdW  Elec       q    Type
REMARK                         _______ _______ _______ _____ _____    ______ ____
ROOT
ATOM      1  C   UNL     1      43.708   5.270  10.801  0.00  0.00    +0.000 C 
ENDROOT
BRANCH   1   6
ATOM      2  C   UNL     1      46.369   2.043   7.781  0.00  0.00    +0.000 A 
ATOM      3  C   UNL     1      45.832   1.857   9.048  0.00  0.00    +0.000 A 
ATOM      4  C   UNL     1      45.149   2.910   9.657  0.00  0.00    +0.000 A 
ATOM      5  C   UNL     1      45.025   4.131   8.999  0.00  0.00    +0.000 A 
ATOM      6  N   UNL     1      44.325   5.190   9.501  0.00  0.00    +0.000 N 
ATOM      7  N   UNL     1      45.572   4.327   7.782  0.00  0.00    +0.000 NA
ATOM      8  C   UNL     1      46.235   3.294   7.201  0.00  0.00    +0.000 A 
ATOM      9  H   UNL     1      44.415   6.029   8.942  0.00  0.00    +0.000 HD
BRANCH   2  11
ATOM     10  N   UNL     1      46.835  -0.316   7.455  0.00  0.00    +0.000 N 
ATOM     11  C   UNL     1      47.084   0.970   7.062  0.00  0.00    +0.000 C 
ATOM     12  O   UNL     1      47.843   1.217   6.133  0.00  0.00    +0.000 OA
ATOM     13  H   UNL     1      47.268  -1.051   6.910  0.00  0.00    +0.000 HD
ATOM     14  H   UNL     1      46.048  -0.567   8.037  0.00  0.00    +0.000 HD
ENDBRANCH   2  11
ENDBRANCH   1   6
BRANCH   1  15
ATOM     15  C   UNL     1      44.720   5.289  11.921  0.00  0.00    +0.000 A 
ATOM     16  C   UNL     1      44.561   4.531  13.080  0.00  0.00    +0.000 A 
ATOM     17  C   UNL     1      45.550   4.584  14.047  0.00  0.00    +0.000 A 
ATOM     18  N   UNL     1      46.672   5.327  13.937  0.00  0.00    +0.000 NA
ATOM     19  C   UNL     1      46.833   6.070  12.815  0.00  0.00    +0.000 A 
ATOM     20  C   UNL     1      45.889   6.051  11.787  0.00  0.00    +0.000 A 
BRANCH  19  21
ATOM     21  C   UNL     1      48.048   6.910  12.766  0.00  0.00    +0.000 A 
ATOM     22  C   UNL     1      48.365   7.664  11.618  0.00  0.00    +0.000 A 
ATOM     23  C   UNL     1      49.523   8.446  11.551  0.00  0.00    +0.000 A 
ATOM     24  C   UNL     1      50.395   8.489  12.635  0.00  0.00    +0.000 A 
ATOM     25  C   UNL     1      50.099   7.751  13.770  0.00  0.00    +0.000 A 
ATOM     26  F   UNL     1      50.936   7.780  14.815  0.00  0.00    +0.000 F 
ATOM     27  C   UNL     1      48.950   6.969  13.845  0.00  0.00    +0.000 A 
ENDBRANCH  19  21
ENDBRANCH   1  15
TORSDOF 4
ENDMDL
MODEL 5
REMARK VINA RESULT:    -7.742      4.648      8.327
REMARK INTER + INTRA:         -10.227
REMARK INTER:                  -9.735
REMARK INTRA:                  -0.492
REMARK UNBOUND:                -0.675
REMARK  Name = 
REMARK  4 active torsions:
REMARK  status: ('A' for Active; 'I' for Inactive)
REMARK    1  A    between atoms: C_2  and  C_4
REMARK    2  A    between atoms: N_8  and  C_9
REMARK    3  A    between atoms: C_9  and  C_10
REMARK    4  A    between atoms: C_14  and  C_15
REMARK                            x       y       z     vdW  Elec       q    Type
REMARK                         _______ _______ _______ _____ _____    ______ ____
ROOT
ATOM      1  C   UNL     1      45.871   5.441  13.336  0.00  0.00    +0.000 C 
ENDROOT
BRANCH   1   6
ATOM      2  C   UNL     1      48.906   4.421  17.382  0.00  0.00    +0.000 A 
ATOM      3  C   UNL     1      48.793   5.566  16.603  0.00  0.00    +0.000 A 
ATOM      4  C   UNL     1      47.882   5.582  15.547  0.00  0.00    +0.000 A 
ATOM      5  C   UNL     1      47.112   4.454  15.277  0.00  0.00    +0.000 A 
ATOM      6  N   UNL     1      46.159   4.408  14.300  0.00  0.00    +0.000 N 
ATOM      7  N   UNL     1      47.240   3.329  16.010  0.00  0.00    +0.000 NA
ATOM      8  C   UNL     1      48.130   3.327  17.035  0.00  0.00    +0.000 A 
ATOM      9  H   UNL     1      45.760   3.487  14.175  0.00  0.00    +0.000 HD
BRANCH   2  11
ATOM     10  N   UNL     1      49.308   3.895  19.716  0.00  0.00    +0.000 N 
ATOM     11  C   UNL     1      49.829   4.335  18.530  0.00  0.00    +0.000 C 
ATOM     12  O   UNL     1      51.016   4.615  18.420  0.00  0.00    +0.000 OA
ATOM     13  H   UNL     1      49.959   3.764  20.480  0.00  0.00    +0.000 HD
ATOM     14  H   UNL     1      48.412   3.431  19.781  0.00  0.00    +0.000 HD
ENDBRANCH   2  11
ENDBRANCH   1   6
BRANCH   1  15
ATOM     15  C   UNL     1      45.077   4.928  12.160  0.00  0.00    +0.000 A 
ATOM     16  C   UNL     1      43.688   5.031  12.098  0.00  0.00    +0.000 A 
ATOM     17  C   UNL     1      43.038   4.562  10.970  0.00  0.00    +0.000 A 
ATOM     18  N   UNL     1      43.669   4.007   9.913  0.00  0.00    +0.000 NA
ATOM     19  C   UNL     1      45.019   3.899   9.966  0.00  0.00    +0.000 A 
ATOM     20  C   UNL     1      45.745   4.371  11.061  0.00  0.00    +0.000 A 
BRANCH  19  21
ATOM     21  C   UNL     1      45.659   3.234   8.811  0.00  0.00    +0.000 A 
ATOM     22  C   UNL     1      46.064   3.972   7.680  0.00  0.00    +0.000 A 
ATOM     23  C   UNL     1      46.651   3.351   6.572  0.00  0.00    +0.000 A 
ATOM     24  C   UNL     1      46.845   1.973   6.570  0.00  0.00    +0.000 A 
ATOM     25  C   UNL     1      46.449   1.233   7.673  0.00  0.00    +0.000 A 
ATOM     26  F   UNL     1      46.624  -0.094   7.677  0.00  0.00    +0.000 F 
ATOM     27  C   UNL     1      45.863   1.843   8.779  0.00  0.00    +0.000 A 
ENDBRANCH  19  21
ENDBRANCH   1  15
TORSDOF 4
ENDMDL
MODEL 6
REMARK VINA RESULT:    -6.954      3.845      7.223
REMARK INTER + INTRA:          -9.255
REMARK INTER:                  -8.514
REMARK INTRA:                  -0.742
REMARK UNBOUND:                -0.675
REMARK  Name = 
REMARK  4 active torsions:
REMARK  status: ('A' for Active; 'I' for Inactive)
REMARK    1  A    between atoms: C_2  and  C_4
REMARK    2  A    between atoms: N_8  and  C_9
REMARK    3  A    between atoms: C_9  and  C_10
REMARK    4  A    between atoms: C_14  and  C_15
REMARK                            x       y       z     vdW  Elec       q    Type
REMARK                         _______ _______ _______ _____ _____    ______ ____
ROOT
ATOM      1  C   UNL     1      45.903   6.765  13.082  0.00  0.00    +0.000 C 
ENDROOT
BRANCH   1   6
ATOM      2  C   UNL     1      50.194   9.027  11.325  0.00  0.00    +0.000 A 
ATOM      3  C   UNL     1      49.973   7.729  11.767  0.00  0.00    +0.000 A 
ATOM      4  C   UNL     1      48.698   7.366  12.201  0.00  0.00    +0.000 A 
ATOM      5  C   UNL     1      47.671   8.306  12.200  0.00  0.00    +0.000 A 
ATOM      6  N   UNL     1      46.384   8.017  12.555  0.00  0.00    +0.000 N 
ATOM      7  N   UNL     1      47.887   9.577  11.802  0.00  0.00    +0.000 NA
ATOM      8  C   UNL     1      49.133   9.916  11.382  0.00  0.00    +0.000 A 
ATOM      9  H   UNL     1      45.787   8.834  12.590  0.00  0.00    +0.000 HD
BRANCH   2  11
ATOM     10  N   UNL     1      52.453   8.516  10.601  0.00  0.00    +0.000 N 
ATOM     11  C   UNL     1      51.508   9.479  10.828  0.00  0.00    +0.000 C 
ATOM     12  O   UNL     1      51.734  10.661  10.598  0.00  0.00    +0.000 OA
ATOM     13  H   UNL     1      53.325   8.822  10.188  0.00  0.00    +0.000 HD
ATOM     14  H   UNL     1      52.228   7.532  10.545  0.00  0.00    +0.000 HD
ENDBRANCH   2  11
ENDBRANCH   1   6
BRANCH   1  15
ATOM     15  C   UNL     1      45.025   6.025  12.102  0.00  0.00    +0.000 A 
ATOM     16  C   UNL     1      43.633   6.099  12.148  0.00  0.00    +0.000 A 
ATOM     17  C   UNL     1      42.902   5.412  11.195  0.00  0.00    +0.000 A 
ATOM     18  N   UNL     1      43.455   4.671  10.211  0.00  0.00    +0.000 NA
ATOM     19  C   UNL     1      44.807   4.590  10.161  0.00  0.00    +0.000 A 
ATOM     20  C   UNL     1      45.612   5.273  11.075  0.00  0.00    +0.000 A 
BRANCH  19  21
ATOM     21  C   UNL     1      45.364   3.722   9.103  0.00  0.00    +0.000 A 
ATOM     22  C   UNL     1      45.397   2.321   9.255  0.00  0.00    +0.000 A 
ATOM     23  C   UNL     1      45.941   1.489   8.271  0.00  0.00    +0.000 A 
ATOM     24  C   UNL     1      46.467   2.043   7.107  0.00  0.00    +0.000 A 
ATOM     25  C   UNL     1      46.445   3.419   6.944  0.00  0.00    +0.000 A 
ATOM     26  F   UNL     1      46.956   3.961   5.831  0.00  0.00    +0.000 F 
ATOM     27  C   UNL     1      45.907   4.254   7.919  0.00  0.00    +0.000 A 
ENDBRANCH  19  21
ENDBRANCH   1  15
TORSDOF 4
ENDMDL
MODEL 7
REMARK VINA RESULT:    -6.945      6.076      8.551
REMARK INTER + INTRA:          -9.244
REMARK INTER:                  -8.532
REMARK INTRA:                  -0.712
REMARK UNBOUND:                -0.675
REMARK  Name = 
REMARK  4 active torsions:
REMARK  status: ('A' for Active; 'I' for Inactive)
REMARK    1  A    between atoms: C_2  and  C_4
REMARK    2  A    between atoms: N_8  and  C_9
REMARK    3  A    between atoms: C_9  and  C_10
REMARK    4  A    between atoms: C_14  and  C_15
REMARK                            x       y       z     vdW  Elec       q    Type
REMARK                         _______ _______ _______ _____ _____    ______ ____
ROOT
ATOM      1  C   UNL     1      47.601   3.987  17.070  0.00  0.00    +0.000 C 
ENDROOT
BRANCH   1   6
ATOM      2  C   UNL     1      52.413   2.341  17.937  0.00  0.00    +0.000 A 
ATOM      3  C   UNL     1      51.823   3.576  18.179  0.00  0.00    +0.000 A 
ATOM      4  C   UNL     1      50.483   3.766  17.842  0.00  0.00    +0.000 A 
ATOM      5  C   UNL     1      49.759   2.729  17.259  0.00  0.00    +0.000 A 
ATOM      6  N   UNL     1      48.431   2.815  16.954  0.00  0.00    +0.000 N 
ATOM      7  N   UNL     1      50.335   1.538  16.993  0.00  0.00    +0.000 NA
ATOM      8  C   UNL     1      51.641   1.367  17.325  0.00  0.00    +0.000 A 
ATOM      9  H   UNL     1      48.084   2.009  16.450  0.00  0.00    +0.000 HD
BRANCH   2  11
ATOM     10  N   UNL     1      54.782   2.604  17.485  0.00  0.00    +0.000 N 
ATOM     11  C   UNL     1      53.818   2.056  18.286  0.00  0.00    +0.000 C 
ATOM     12  O   UNL     1      54.111   1.385  19.268  0.00  0.00    +0.000 OA
ATOM     13  H   UNL     1      55.744   2.469  17.772  0.00  0.00    +0.000 HD
ATOM     14  H   UNL     1      54.589   3.347  16.828  0.00  0.00    +0.000 HD
ENDBRANCH   2  11
ENDBRANCH   1   6
BRANCH   1  15
ATOM     15  C   UNL     1      47.543   4.784  15.790  0.00  0.00    +0.000 A 
ATOM     16  C   UNL     1      48.342   5.906  15.575  0.00  0.00    +0.000 A 
ATOM     17  C   UNL     1      48.249   6.563  14.361  0.00  0.00    +0.000 A 
ATOM     18  N   UNL     1      47.427   6.183  13.359  0.00  0.00    +0.000 NA
ATOM     19  C   UNL     1      46.643   5.096  13.561  0.00  0.00    +0.000 A 
ATOM     20  C   UNL     1      46.699   4.368  14.751  0.00  0.00    +0.000 A 
BRANCH  19  21
ATOM     21  C   UNL     1      45.720   4.753  12.459  0.00  0.00    +0.000 A 
ATOM     22  C   UNL     1      45.693   5.511  11.270  0.00  0.00    +0.000 A 
ATOM     23  C   UNL     1      44.809   5.210  10.228  0.00  0.00    +0.000 A 
ATOM     24  C   UNL     1      43.927   4.141  10.354  0.00  0.00    +0.000 A 
ATOM     25  C   UNL     1      43.938   3.389  11.518  0.00  0.00    +0.000 A 
ATOM     26  F   UNL     1      43.087   2.363  11.651  0.00  0.00    +0.000 F 
ATOM     27  C   UNL     1      44.814   3.682  12.560  0.00  0.00    +0.000 A 
ENDBRANCH  19  21
ENDBRANCH   1  15
TORSDOF 4
ENDMDL
MODEL 8
REMARK VINA RESULT:    -6.938      5.053      8.617
REMARK INTER + INTRA:          -9.236
REMARK INTER:                  -8.674
REMARK INTRA:                  -0.561
REMARK UNBOUND:                -0.675
REMARK  Name = 
REMARK  4 active torsions:
REMARK  status: ('A' for Active; 'I' for Inactive)
REMARK    1  A    between atoms: C_2  and  C_4
REMARK    2  A    between atoms: N_8  and  C_9
REMARK    3  A    between atoms: C_9  and  C_10
REMARK    4  A    between atoms: C_14  and  C_15
REMARK                            x       y       z     vdW  Elec       q    Type
REMARK                         _______ _______ _______ _____ _____    ______ ____
ROOT
ATOM      1  C   UNL     1      48.060   7.335  14.024  0.00  0.00    +0.000 C 
ENDROOT
BRANCH   1   6
ATOM      2  C   UNL     1      48.999   5.412  18.718  0.00  0.00    +0.000 A 
ATOM      3  C   UNL     1      48.893   6.728  18.286  0.00  0.00    +0.000 A 
ATOM      4  C   UNL     1      48.633   6.982  16.939  0.00  0.00    +0.000 A 
ATOM      5  C   UNL     1      48.497   5.922  16.046  0.00  0.00    +0.000 A 
ATOM      6  N   UNL     1      48.185   6.083  14.726  0.00  0.00    +0.000 N 
ATOM      7  N   UNL     1      48.630   4.643  16.454  0.00  0.00    +0.000 NA
ATOM      8  C   UNL     1      48.883   4.410  17.768  0.00  0.00    +0.000 A 
ATOM      9  H   UNL     1      48.219   5.220  14.200  0.00  0.00    +0.000 HD
BRANCH   2  11
ATOM     10  N   UNL     1      48.681   3.908  20.595  0.00  0.00    +0.000 N 
ATOM     11  C   UNL     1      49.249   5.062  20.130  0.00  0.00    +0.000 C 
ATOM     12  O   UNL     1      49.959   5.757  20.846  0.00  0.00    +0.000 OA
ATOM     13  H   UNL     1      48.918   3.632  21.540  0.00  0.00    +0.000 HD
ATOM     14  H   UNL     1      48.303   3.199  19.982  0.00  0.00    +0.000 HD
ENDBRANCH   2  11
ENDBRANCH   1   6
BRANCH   1  15
ATOM     15  C   UNL     1      46.897   7.344  13.061  0.00  0.00    +0.000 A 
ATOM     16  C   UNL     1      46.076   8.459  12.897  0.00  0.00    +0.000 A 
ATOM     17  C   UNL     1      45.049   8.394  11.972  0.00  0.00    +0.000 A 
ATOM     18  N   UNL     1      44.789   7.312  11.208  0.00  0.00    +0.000 NA
ATOM     19  C   UNL     1      45.580   6.222  11.364  0.00  0.00    +0.000 A 
ATOM     20  C   UNL     1      46.650   6.220  12.261  0.00  0.00    +0.000 A 
BRANCH  19  21
ATOM     21  C   UNL     1      45.222   5.043  10.548  0.00  0.00    +0.000 A 
ATOM     22  C   UNL     1      44.534   3.950  11.113  0.00  0.00    +0.000 A 
ATOM     23  C   UNL     1      44.209   2.818  10.356  0.00  0.00    +0.000 A 
ATOM     24  C   UNL     1      44.568   2.755   9.013  0.00  0.00    +0.000 A 
ATOM     25  C   UNL     1      45.248   3.820   8.444  0.00  0.00    +0.000 A 
ATOM     26  F   UNL     1      45.605   3.764   7.154  0.00  0.00    +0.000 F 
ATOM     27  C   UNL     1      45.577   4.949   9.190  0.00  0.00    +0.000 A 
ENDBRANCH  19  21
ENDBRANCH   1  15
TORSDOF 4
ENDMDL
MODEL 9
REMARK VINA RESULT:    -6.891      4.062      7.685
REMARK INTER + INTRA:          -9.177
REMARK INTER:                  -9.105
REMARK INTRA:                  -0.073
REMARK UNBOUND:                -0.675
REMARK  Name = 
REMARK  4 active torsions:
REMARK  status: ('A' for Active; 'I' for Inactive)
REMARK    1  A    between atoms: C_2  and  C_4
REMARK    2  A    between atoms: N_8  and  C_9
REMARK    3  A    between atoms: C_9  and  C_10
REMARK    4  A    between atoms: C_14  and  C_15
REMARK                            x       y       z     vdW  Elec       q    Type
REMARK                         _______ _______ _______ _____ _____    ______ ____
ROOT
ATOM      1  C   UNL     1      48.879   7.933  12.821  0.00  0.00    +0.000 C 
ENDROOT
BRANCH   1   6
ATOM      2  C   UNL     1      47.769   4.694  16.680  0.00  0.00    +0.000 A 
ATOM      3  C   UNL     1      47.508   4.600  15.319  0.00  0.00    +0.000 A 
ATOM      4  C   UNL     1      47.918   5.634  14.476  0.00  0.00    +0.000 A 
ATOM      5  C   UNL     1      48.567   6.745  15.006  0.00  0.00    +0.000 A 
ATOM      6  N   UNL     1      49.050   7.770  14.243  0.00  0.00    +0.000 N 
ATOM      7  N   UNL     1      48.796   6.856  16.330  0.00  0.00    +0.000 NA
ATOM      8  C   UNL     1      48.391   5.844  17.139  0.00  0.00    +0.000 A 
ATOM      9  H   UNL     1      49.408   8.542  14.792  0.00  0.00    +0.000 HD
BRANCH   2  11
ATOM     10  N   UNL     1      48.163   3.492  18.751  0.00  0.00    +0.000 N 
ATOM     11  C   UNL     1      47.389   3.632  17.632  0.00  0.00    +0.000 C 
ATOM     12  O   UNL     1      46.404   2.928  17.447  0.00  0.00    +0.000 OA
ATOM     13  H   UNL     1      47.855   2.815  19.437  0.00  0.00    +0.000 HD
ATOM     14  H   UNL     1      48.820   4.199  19.053  0.00  0.00    +0.000 HD
ENDBRANCH   2  11
ENDBRANCH   1   6
BRANCH   1  15
ATOM     15  C   UNL     1      47.449   7.730  12.384  0.00  0.00    +0.000 A 
ATOM     16  C   UNL     1      46.444   8.651  12.678  0.00  0.00    +0.000 A 
ATOM     17  C   UNL     1      45.164   8.404  12.215  0.00  0.00    +0.000 A 
ATOM     18  N   UNL     1      44.821   7.320  11.487  0.00  0.00    +0.000 NA
ATOM     19  C   UNL     1      45.791   6.417  11.200  0.00  0.00    +0.000 A 
ATOM     20  C   UNL     1      47.111   6.610  11.614  0.00  0.00    +0.000 A 
BRANCH  19  21
ATOM     21  C   UNL     1      45.357   5.220  10.451  0.00  0.00    +0.000 A 
ATOM     22  C   UNL     1      44.612   4.200  11.078  0.00  0.00    +0.000 A 
ATOM     23  C   UNL     1      44.213   3.051  10.385  0.00  0.00    +0.000 A 
ATOM     24  C   UNL     1      44.555   2.896   9.045  0.00  0.00    +0.000 A 
ATOM     25  C   UNL     1      45.290   3.887   8.415  0.00  0.00    +0.000 A 
ATOM     26  F   UNL     1      45.630   3.742   7.128  0.00  0.00    +0.000 F 
ATOM     27  C   UNL     1      45.691   5.033   9.097  0.00  0.00    +0.000 A 
ENDBRANCH  19  21
ENDBRANCH   1  15
TORSDOF 4
ENDMDL
