MODEL 1
REMARK VINA RESULT:    -7.430      0.000      0.000
REMARK INTER + INTRA:          -9.928
REMARK INTER:                  -9.385
REMARK INTRA:                  -0.543
REMARK UNBOUND:                -0.543
REMARK  Name = 
REMARK  6 active torsions:
REMARK  status: ('A' for Active; 'I' for Inactive)
REMARK    1  A    between atoms: C_1  and  C_2
REMARK    2  A    between atoms: N_9  and  C_10
REMARK    3  A    between atoms: C_10  and  C_11
REMARK    4  A    between atoms: C_14  and  C_15
REMARK    5  A    between atoms: C_15  and  C_16
REMARK    6  A    between atoms: C_16  and  N_17
REMARK                            x       y       z     vdW  Elec       q    Type
REMARK                         _______ _______ _______ _____ _____    ______ ____
ROOT
ATOM      1  C   UNL     1      44.395   4.291  11.618  0.00  0.00    +0.000 C 
ENDROOT
BRANCH   1  10
ATOM      2  C   UNL     1      48.388   9.053  14.300  0.00  0.00    +0.000 C 
ATOM      3  C   UNL     1      47.557   7.908  13.801  0.00  0.00    +0.000 A 
ATOM      4  C   UNL     1      46.477   8.122  12.942  0.00  0.00    +0.000 A 
ATOM      5  C   UNL     1      45.717   7.057  12.444  0.00  0.00    +0.000 A 
ATOM      6  C   UNL     1      46.066   5.753  12.830  0.00  0.00    +0.000 A 
ATOM      7  C   UNL     1      47.113   5.512  13.724  0.00  0.00    +0.000 A 
ATOM      8  C   UNL     1      47.160   4.111  13.957  0.00  0.00    +0.000 A 
ATOM      9  C   UNL     1      46.176   3.527  13.196  0.00  0.00    +0.000 A 
ATOM     10  N   UNL     1      45.546   4.518  12.485  0.00  0.00    +0.000 N 
ATOM     11  C   UNL     1      47.864   6.601  14.211  0.00  0.00    +0.000 A 
ENDBRANCH   1  10
BRANCH   1  12
ATOM     12  C   UNL     1      44.760   3.933  10.204  0.00  0.00    +0.000 A 
ATOM     13  C   UNL     1      44.682   2.622   9.730  0.00  0.00    +0.000 A 
ATOM     14  C   UNL     1      45.203   2.302   8.476  0.00  0.00    +0.000 A 
ATOM     15  C   UNL     1      45.787   3.308   7.714  0.00  0.00    +0.000 A 
ATOM     16  N   UNL     1      45.807   4.599   8.121  0.00  0.00    +0.000 NA
ATOM     17  C   UNL     1      45.283   4.884   9.336  0.00  0.00    +0.000 A 
BRANCH  15  18
ATOM     18  C   UNL     1      46.540   2.977   6.448  0.00  0.00    +0.000 C 
BRANCH  18  19
ATOM     19  C   UNL     1      47.606   1.912   6.734  0.00  0.00    +0.000 C 
BRANCH  19  20
ATOM     20  N   UNL     1      48.603   1.825   5.664  0.00  0.00    +0.000 NA
ATOM     21  H   UNL     1      49.385   2.446   5.863  0.00  0.00    +0.000 HD
ATOM     22  H   UNL     1      48.187   2.158   4.794  0.00  0.00    +0.000 HD
ENDBRANCH  19  20
ENDBRANCH  18  19
ENDBRANCH  15  18
ENDBRANCH   1  12
TORSDOF 5
ENDMDL
MODEL 2
REMARK VINA RESULT:    -7.203      1.356      2.451
REMARK INTER + INTRA:          -9.641
REMARK INTER:                  -8.805
REMARK INTRA:                  -0.837
REMARK UNBOUND:                -0.543
REMARK  Name = 
REMARK  6 active torsions:
REMARK  status: ('A' for Active; 'I' for Inactive)
REMARK    1  A    between atoms: C_1  and  C_2
REMARK    2  A    between atoms: N_9  and  C_10
REMARK    3  A    between atoms: C_10  and  C_11
REMARK    4  A    between atoms: C_14  and  C_15
REMARK    5  A    between atoms: C_15  and  C_16
REMARK    6  A    between atoms: C_16  and  N_17
REMARK                            x       y       z     vdW  Elec       q    Type
REMARK                         _______ _______ _______ _____ _____    ______ ____
ROOT
ATOM      1  C   UNL     1      43.755   4.789  10.321  0.00  0.00    +0.000 C 
ENDROOT
BRANCH   1  10
ATOM      2  C   UNL     1      47.953   4.583  15.626  0.00  0.00    +0.000 C 
ATOM      3  C   UNL     1      47.077   4.756  14.421  0.00  0.00    +0.000 A 
ATOM      4  C   UNL     1      46.377   3.677  13.878  0.00  0.00    +0.000 A 
ATOM      5  C   UNL     1      45.531   3.835  12.774  0.00  0.00    +0.000 A 
ATOM      6  C   UNL     1      45.397   5.117  12.217  0.00  0.00    +0.000 A 
ATOM      7  C   UNL     1      46.120   6.206  12.711  0.00  0.00    +0.000 A 
ATOM      8  C   UNL     1      45.814   7.327  11.893  0.00  0.00    +0.000 A 
ATOM      9  C   UNL     1      44.905   6.917  10.945  0.00  0.00    +0.000 A 
ATOM     10  N   UNL     1      44.625   5.593  11.171  0.00  0.00    +0.000 N 
ATOM     11  C   UNL     1      46.965   6.022  13.824  0.00  0.00    +0.000 A 
ENDBRANCH   1  10
BRANCH   1  12
ATOM     12  C   UNL     1      44.494   3.856   9.402  0.00  0.00    +0.000 A 
ATOM     13  C   UNL     1      44.408   2.469   9.531  0.00  0.00    +0.000 A 
ATOM     14  C   UNL     1      45.249   1.645   8.783  0.00  0.00    +0.000 A 
ATOM     15  C   UNL     1      46.159   2.231   7.909  0.00  0.00    +0.000 A 
ATOM     16  N   UNL     1      46.209   3.570   7.712  0.00  0.00    +0.000 NA
ATOM     17  C   UNL     1      45.373   4.344   8.442  0.00  0.00    +0.000 A 
BRANCH  15  18
ATOM     18  C   UNL     1      47.221   1.399   7.231  0.00  0.00    +0.000 C 
BRANCH  18  19
ATOM     19  C   UNL     1      48.295   2.311   6.624  0.00  0.00    +0.000 C 
BRANCH  19  20
ATOM     20  N   UNL     1      47.955   2.735   5.264  0.00  0.00    +0.000 NA
ATOM     21  H   UNL     1      48.668   3.367   4.905  0.00  0.00    +0.000 HD
ATOM     22  H   UNL     1      47.086   3.269   5.288  0.00  0.00    +0.000 HD
ENDBRANCH  19  20
ENDBRANCH  18  19
ENDBRANCH  15  18
ENDBRANCH   1  12
TORSDOF 5
ENDMDL
MODEL 3
REMARK VINA RESULT:    -6.976      2.212      6.373
REMARK INTER + INTRA:          -9.355
REMARK INTER:                  -8.706
REMARK INTRA:                  -0.649
REMARK UNBOUND:                -0.543
REMARK  Name = 
REMARK  6 active torsions:
REMARK  status: ('A' for Active; 'I' for Inactive)
REMARK    1  A    between atoms: C_1  and  C_2
REMARK    2  A    between atoms: N_9  and  C_10
REMARK    3  A    between atoms: C_10  and  C_11
REMARK    4  A    between atoms: C_14  and  C_15
REMARK    5  A    between atoms: C_15  and  C_16
REMARK    6  A    between atoms: C_16  and  N_17
REMARK                            x       y       z     vdW  Elec       q    Type
REMARK                         _______ _______ _______ _____ _____    ______ ____
ROOT
ATOM      1  C   UNL     1      43.405   5.699  10.725  0.00  0.00    +0.000 C 
ENDROOT
BRANCH   1  10
ATOM      2  C   UNL     1      47.183   1.706   6.774  0.00  0.00    +0.000 C 
ATOM      3  C   UNL     1      46.331   2.480   7.737  0.00  0.00    +0.000 A 
ATOM      4  C   UNL     1      46.242   3.871   7.661  0.00  0.00    +0.000 A 
ATOM      5  C   UNL     1      45.424   4.599   8.533  0.00  0.00    +0.000 A 
ATOM      6  C   UNL     1      44.685   3.894   9.497  0.00  0.00    +0.000 A 
ATOM      7  C   UNL     1      44.791   2.506   9.626  0.00  0.00    +0.000 A 
ATOM      8  C   UNL     1      43.979   2.118  10.725  0.00  0.00    +0.000 A 
ATOM      9  C   UNL     1      43.382   3.250  11.226  0.00  0.00    +0.000 A 
ATOM     10  N   UNL     1      43.779   4.314  10.455  0.00  0.00    +0.000 N 
ATOM     11  C   UNL     1      45.621   1.795   8.736  0.00  0.00    +0.000 A 
ENDBRANCH   1  10
BRANCH   1  12
ATOM     12  C   UNL     1      44.381   6.432  11.603  0.00  0.00    +0.000 A 
ATOM     13  C   UNL     1      44.612   7.801  11.468  0.00  0.00    +0.000 A 
ATOM     14  C   UNL     1      45.654   8.406  12.172  0.00  0.00    +0.000 A 
ATOM     15  C   UNL     1      46.443   7.623  13.008  0.00  0.00    +0.000 A 
ATOM     16  N   UNL     1      46.191   6.308  13.212  0.00  0.00    +0.000 NA
ATOM     17  C   UNL     1      45.166   5.750  12.526  0.00  0.00    +0.000 A 
BRANCH  15  18
ATOM     18  C   UNL     1      47.698   8.184  13.631  0.00  0.00    +0.000 C 
BRANCH  18  19
ATOM     19  C   UNL     1      48.644   7.043  14.026  0.00  0.00    +0.000 C 
BRANCH  19  20
ATOM     20  N   UNL     1      49.416   6.545  12.885  0.00  0.00    +0.000 NA
ATOM     21  H   UNL     1      50.252   7.112  12.754  0.00  0.00    +0.000 HD
ATOM     22  H   UNL     1      48.862   6.651  12.036  0.00  0.00    +0.000 HD
ENDBRANCH  19  20
ENDBRANCH  18  19
ENDBRANCH  15  18
ENDBRANCH   1  12
TORSDOF 5
ENDMDL
MODEL 4
REMARK VINA RESULT:    -6.948      1.519      2.131
REMARK INTER + INTRA:          -9.319
REMARK INTER:                  -8.804
REMARK INTRA:                  -0.515
REMARK UNBOUND:                -0.543
REMARK  Name = 
REMARK  6 active torsions:
REMARK  status: ('A' for Active; 'I' for Inactive)
REMARK    1  A    between atoms: C_1  and  C_2
REMARK    2  A    between atoms: N_9  and  C_10
REMARK    3  A    between atoms: C_10  and  C_11
REMARK    4  A    between atoms: C_14  and  C_15
REMARK    5  A    between atoms: C_15  and  C_16
REMARK    6  A    between atoms: C_16  and  N_17
REMARK                            x       y       z     vdW  Elec       q    Type
REMARK                         _______ _______ _______ _____ _____    ______ ____
ROOT
ATOM      1  C   UNL     1      43.986   5.064  11.105  0.00  0.00    +0.000 C 
ENDROOT
BRANCH   1  10
ATOM      2  C   UNL     1      45.836  11.515  11.984  0.00  0.00    +0.000 C 
ATOM      3  C   UNL     1      45.516  10.052  11.894  0.00  0.00    +0.000 A 
ATOM      4  C   UNL     1      44.404   9.601  11.179  0.00  0.00    +0.000 A 
ATOM      5  C   UNL     1      44.116   8.236  11.061  0.00  0.00    +0.000 A 
ATOM      6  C   UNL     1      44.979   7.318  11.682  0.00  0.00    +0.000 A 
ATOM      7  C   UNL     1      46.072   7.743  12.442  0.00  0.00    +0.000 A 
ATOM      8  C   UNL     1      46.690   6.584  12.984  0.00  0.00    +0.000 A 
ATOM      9  C   UNL     1      45.992   5.489  12.534  0.00  0.00    +0.000 A 
ATOM     10  N   UNL     1      44.985   5.935  11.715  0.00  0.00    +0.000 N 
ATOM     11  C   UNL     1      46.341   9.123  12.546  0.00  0.00    +0.000 A 
ENDBRANCH   1  10
BRANCH   1  12
ATOM     12  C   UNL     1      44.533   4.176  10.022  0.00  0.00    +0.000 A 
ATOM     13  C   UNL     1      44.350   2.792  10.039  0.00  0.00    +0.000 A 
ATOM     14  C   UNL     1      45.027   1.988   9.121  0.00  0.00    +0.000 A 
ATOM     15  C   UNL     1      45.871   2.591   8.195  0.00  0.00    +0.000 A 
ATOM     16  N   UNL     1      46.006   3.936   8.112  0.00  0.00    +0.000 NA
ATOM     17  C   UNL     1      45.328   4.693   9.006  0.00  0.00    +0.000 A 
BRANCH  15  18
ATOM     18  C   UNL     1      46.775   1.757   7.318  0.00  0.00    +0.000 C 
BRANCH  18  19
ATOM     19  C   UNL     1      47.554   2.662   6.356  0.00  0.00    +0.000 C 
BRANCH  19  20
ATOM     20  N   UNL     1      48.459   1.901   5.492  0.00  0.00    +0.000 NA
ATOM     21  H   UNL     1      47.961   1.568   4.669  0.00  0.00    +0.000 HD
ATOM     22  H   UNL     1      48.775   1.070   5.991  0.00  0.00    +0.000 HD
ENDBRANCH  19  20
ENDBRANCH  18  19
ENDBRANCH  15  18
ENDBRANCH   1  12
TORSDOF 5
ENDMDL
MODEL 5
REMARK VINA RESULT:    -6.140      1.957      3.222
REMARK INTER + INTRA:          -8.298
REMARK INTER:                  -7.750
REMARK INTRA:                  -0.548
REMARK UNBOUND:                -0.543
REMARK  Name = 
REMARK  6 active torsions:
REMARK  status: ('A' for Active; 'I' for Inactive)
REMARK    1  A    between atoms: C_1  and  C_2
REMARK    2  A    between atoms: N_9  and  C_10
REMARK    3  A    between atoms: C_10  and  C_11
REMARK    4  A    between atoms: C_14  and  C_15
REMARK    5  A    between atoms: C_15  and  C_16
REMARK    6  A    between atoms: C_16  and  N_17
REMARK                            x       y       z     vdW  Elec       q    Type
REMARK                         _______ _______ _______ _____ _____    ______ ____
ROOT
ATOM      1  C   UNL     1      45.876   5.965  13.022  0.00  0.00    +0.000 C 
ENDROOT
BRANCH   1  10
ATOM      2  C   UNL     1      50.991  10.001  11.189  0.00  0.00    +0.000 C 
ATOM      3  C   UNL     1      49.770   9.215  11.569  0.00  0.00    +0.000 A 
ATOM      4  C   UNL     1      49.825   7.828  11.716  0.00  0.00    +0.000 A 
ATOM      5  C   UNL     1      48.699   7.090  12.103  0.00  0.00    +0.000 A 
ATOM      6  C   UNL     1      47.501   7.781  12.343  0.00  0.00    +0.000 A 
ATOM      7  C   UNL     1      47.406   9.163  12.159  0.00  0.00    +0.000 A 
ATOM      8  C   UNL     1      46.059   9.535  12.415  0.00  0.00    +0.000 A 
ATOM      9  C   UNL     1      45.371   8.399  12.770  0.00  0.00    +0.000 A 
ATOM     10  N   UNL     1      46.256   7.350  12.766  0.00  0.00    +0.000 N 
ATOM     11  C   UNL     1      48.553   9.884  11.770  0.00  0.00    +0.000 A 
ENDBRANCH   1  10
BRANCH   1  12
ATOM     12  C   UNL     1      45.430   5.219  11.795  0.00  0.00    +0.000 A 
ATOM     13  C   UNL     1      44.956   3.907  11.859  0.00  0.00    +0.000 A 
ATOM     14  C   UNL     1      44.729   3.190  10.684  0.00  0.00    +0.000 A 
ATOM     15  C   UNL     1      44.973   3.807   9.462  0.00  0.00    +0.000 A 
ATOM     16  N   UNL     1      45.361   5.102   9.375  0.00  0.00    +0.000 NA
ATOM     17  C   UNL     1      45.562   5.778  10.530  0.00  0.00    +0.000 A 
BRANCH  15  18
ATOM     18  C   UNL     1      44.936   3.015   8.178  0.00  0.00    +0.000 C 
BRANCH  18  19
ATOM     19  C   UNL     1      46.346   2.917   7.581  0.00  0.00    +0.000 C 
BRANCH  19  20
ATOM     20  N   UNL     1      46.737   4.143   6.881  0.00  0.00    +0.000 NA
ATOM     21  H   UNL     1      46.187   4.251   6.031  0.00  0.00    +0.000 HD
ATOM     22  H   UNL     1      47.709   4.061   6.584  0.00  0.00    +0.000 HD
ENDBRANCH  19  20
ENDBRANCH  18  19
ENDBRANCH  15  18
ENDBRANCH   1  12
TORSDOF 5
ENDMDL
MODEL 6
REMARK VINA RESULT:    -5.913      2.273      7.005
REMARK INTER + INTRA:          -8.012
REMARK INTER:                  -7.229
REMARK INTRA:                  -0.783
REMARK UNBOUND:                -0.543
REMARK  Name = 
REMARK  6 active torsions:
REMARK  status: ('A' for Active; 'I' for Inactive)
REMARK    1  A    between atoms: C_1  and  C_2
REMARK    2  A    between atoms: N_9  and  C_10
REMARK    3  A    between atoms: C_10  and  C_11
REMARK    4  A    between atoms: C_14  and  C_15
REMARK    5  A    between atoms: C_15  and  C_16
REMARK    6  A    between atoms: C_16  and  N_17
REMARK                            x       y       z     vdW  Elec       q    Type
REMARK                         _______ _______ _______ _____ _____    ______ ____
ROOT
ATOM      1  C   UNL     1      44.788   6.668  11.070  0.00  0.00    +0.000 C 
ENDROOT
BRANCH   1  10
ATOM      2  C   UNL     1      46.389   1.575   6.908  0.00  0.00    +0.000 C 
ATOM      3  C   UNL     1      46.020   2.607   7.934  0.00  0.00    +0.000 A 
ATOM      4  C   UNL     1      46.218   3.967   7.689  0.00  0.00    +0.000 A 
ATOM      5  C   UNL     1      45.846   4.940   8.625  0.00  0.00    +0.000 A 
ATOM      6  C   UNL     1      45.262   4.515   9.829  0.00  0.00    +0.000 A 
ATOM      7  C   UNL     1      45.094   3.158  10.120  0.00  0.00    +0.000 A 
ATOM      8  C   UNL     1      44.546   3.068  11.428  0.00  0.00    +0.000 A 
ATOM      9  C   UNL     1      44.369   4.348  11.897  0.00  0.00    +0.000 A 
ATOM     10  N   UNL     1      44.763   5.218  10.912  0.00  0.00    +0.000 N 
ATOM     11  C   UNL     1      45.475   2.198   9.161  0.00  0.00    +0.000 A 
ENDBRANCH   1  10
BRANCH   1  12
ATOM     12  C   UNL     1      45.975   7.176  11.841  0.00  0.00    +0.000 A 
ATOM     13  C   UNL     1      47.251   6.638  11.672  0.00  0.00    +0.000 A 
ATOM     14  C   UNL     1      48.284   7.007  12.534  0.00  0.00    +0.000 A 
ATOM     15  C   UNL     1      48.017   7.920  13.550  0.00  0.00    +0.000 A 
ATOM     16  N   UNL     1      46.807   8.511  13.686  0.00  0.00    +0.000 NA
ATOM     17  C   UNL     1      45.826   8.144  12.828  0.00  0.00    +0.000 A 
BRANCH  15  18
ATOM     18  C   UNL     1      49.040   8.197  14.625  0.00  0.00    +0.000 C 
BRANCH  18  19
ATOM     19  C   UNL     1      48.524   9.289  15.571  0.00  0.00    +0.000 C 
BRANCH  19  20
ATOM     20  N   UNL     1      47.768   8.735  16.696  0.00  0.00    +0.000 NA
ATOM     21  H   UNL     1      48.328   8.039  17.185  0.00  0.00    +0.000 HD
ATOM     22  H   UNL     1      46.950   8.243  16.337  0.00  0.00    +0.000 HD
ENDBRANCH  19  20
ENDBRANCH  18  19
ENDBRANCH  15  18
ENDBRANCH   1  12
TORSDOF 5
ENDMDL
MODEL 7
REMARK VINA RESULT:    -5.624      4.321      7.743
REMARK INTER + INTRA:          -7.647
REMARK INTER:                  -7.144
REMARK INTRA:                  -0.503
REMARK UNBOUND:                -0.543
REMARK  Name = 
REMARK  6 active torsions:
REMARK  status: ('A' for Active; 'I' for Inactive)
REMARK    1  A    between atoms: C_1  and  C_2
REMARK    2  A    between atoms: N_9  and  C_10
REMARK    3  A    between atoms: C_10  and  C_11
REMARK    4  A    between atoms: C_14  and  C_15
REMARK    5  A    between atoms: C_15  and  C_16
REMARK    6  A    between atoms: C_16  and  N_17
REMARK                            x       y       z     vdW  Elec       q    Type
REMARK                         _______ _______ _______ _____ _____    ______ ____
ROOT
ATOM      1  C   UNL     1      47.149   4.393  16.352  0.00  0.00    +0.000 C 
ENDROOT
BRANCH   1  10
ATOM      2  C   UNL     1      45.307   5.518   9.936  0.00  0.00    +0.000 C 
ATOM      3  C   UNL     1      45.785   5.393  11.354  0.00  0.00    +0.000 A 
ATOM      4  C   UNL     1      45.232   4.445  12.218  0.00  0.00    +0.000 A 
ATOM      5  C   UNL     1      45.694   4.298  13.531  0.00  0.00    +0.000 A 
ATOM      6  C   UNL     1      46.737   5.131  13.967  0.00  0.00    +0.000 A 
ATOM      7  C   UNL     1      47.277   6.118  13.139  0.00  0.00    +0.000 A 
ATOM      8  C   UNL     1      48.253   6.821  13.895  0.00  0.00    +0.000 A 
ATOM      9  C   UNL     1      48.309   6.247  15.143  0.00  0.00    +0.000 A 
ATOM     10  N   UNL     1      47.422   5.200  15.168  0.00  0.00    +0.000 N 
ATOM     11  C   UNL     1      46.796   6.246  11.820  0.00  0.00    +0.000 A 
ENDBRANCH   1  10
BRANCH   1  12
ATOM     12  C   UNL     1      48.307   3.537  16.785  0.00  0.00    +0.000 A 
ATOM     13  C   UNL     1      49.212   3.957  17.761  0.00  0.00    +0.000 A 
ATOM     14  C   UNL     1      50.371   3.219  18.001  0.00  0.00    +0.000 A 
ATOM     15  C   UNL     1      50.599   2.065  17.259  0.00  0.00    +0.000 A 
ATOM     16  N   UNL     1      49.700   1.599  16.360  0.00  0.00    +0.000 NA
ATOM     17  C   UNL     1      48.578   2.327  16.156  0.00  0.00    +0.000 A 
BRANCH  15  18
ATOM     18  C   UNL     1      51.925   1.347  17.338  0.00  0.00    +0.000 C 
BRANCH  18  19
ATOM     19  C   UNL     1      52.985   2.270  17.953  0.00  0.00    +0.000 C 
BRANCH  19  20
ATOM     20  N   UNL     1      53.741   1.610  19.020  0.00  0.00    +0.000 NA
ATOM     21  H   UNL     1      54.656   1.325  18.676  0.00  0.00    +0.000 HD
ATOM     22  H   UNL     1      53.257   0.753  19.290  0.00  0.00    +0.000 HD
ENDBRANCH  19  20
ENDBRANCH  18  19
ENDBRANCH  15  18
ENDBRANCH   1  12
TORSDOF 5
ENDMDL
MODEL 8
REMARK VINA RESULT:    -5.518      3.693      6.037
REMARK INTER + INTRA:          -7.512
REMARK INTER:                  -6.813
REMARK INTRA:                  -0.699
REMARK UNBOUND:                -0.543
REMARK  Name = 
REMARK  6 active torsions:
REMARK  status: ('A' for Active; 'I' for Inactive)
REMARK    1  A    between atoms: C_1  and  C_2
REMARK    2  A    between atoms: N_9  and  C_10
REMARK    3  A    between atoms: C_10  and  C_11
REMARK    4  A    between atoms: C_14  and  C_15
REMARK    5  A    between atoms: C_15  and  C_16
REMARK    6  A    between atoms: C_16  and  N_17
REMARK                            x       y       z     vdW  Elec       q    Type
REMARK                         _______ _______ _______ _____ _____    ______ ____
ROOT
ATOM      1  C   UNL     1      48.678   6.624  14.202  0.00  0.00    +0.000 C 
ENDROOT
BRANCH   1  10
ATOM      2  C   UNL     1      48.714   4.715  20.696  0.00  0.00    +0.000 C 
ATOM      3  C   UNL     1      48.732   5.271  19.302  0.00  0.00    +0.000 A 
ATOM      4  C   UNL     1      48.811   4.427  18.193  0.00  0.00    +0.000 A 
ATOM      5  C   UNL     1      48.794   4.933  16.888  0.00  0.00    +0.000 A 
ATOM      6  C   UNL     1      48.693   6.323  16.714  0.00  0.00    +0.000 A 
ATOM      7  C   UNL     1      48.659   7.194  17.807  0.00  0.00    +0.000 A 
ATOM      8  C   UNL     1      48.626   8.519  17.294  0.00  0.00    +0.000 A 
ATOM      9  C   UNL     1      48.616   8.436  15.922  0.00  0.00    +0.000 A 
ATOM     10  N   UNL     1      48.615   7.108  15.577  0.00  0.00    +0.000 N 
ATOM     11  C   UNL     1      48.676   6.660  19.111  0.00  0.00    +0.000 A 
ENDBRANCH   1  10
BRANCH   1  12
ATOM     12  C   UNL     1      47.359   6.145  13.664  0.00  0.00    +0.000 A 
ATOM     13  C   UNL     1      46.484   6.996  12.987  0.00  0.00    +0.000 A 
ATOM     14  C   UNL     1      45.197   6.563  12.668  0.00  0.00    +0.000 A 
ATOM     15  C   UNL     1      44.812   5.276  13.029  0.00  0.00    +0.000 A 
ATOM     16  N   UNL     1      45.668   4.408  13.619  0.00  0.00    +0.000 NA
ATOM     17  C   UNL     1      46.914   4.850  13.906  0.00  0.00    +0.000 A 
BRANCH  15  18
ATOM     18  C   UNL     1      43.376   4.833  12.888  0.00  0.00    +0.000 C 
BRANCH  18  19
ATOM     19  C   UNL     1      43.279   3.676  11.885  0.00  0.00    +0.000 C 
BRANCH  19  20
ATOM     20  N   UNL     1      43.577   2.382  12.503  0.00  0.00    +0.000 NA
ATOM     21  H   UNL     1      44.569   2.319  12.723  0.00  0.00    +0.000 HD
ATOM     22  H   UNL     1      43.385   1.640  11.830  0.00  0.00    +0.000 HD
ENDBRANCH  19  20
ENDBRANCH  18  19
ENDBRANCH  15  18
ENDBRANCH   1  12
TORSDOF 5
ENDMDL
MODEL 9
REMARK VINA RESULT:    -5.475      1.368      2.162
REMARK INTER + INTRA:          -7.459
REMARK INTER:                  -6.837
REMARK INTRA:                  -0.622
REMARK UNBOUND:                -0.543
REMARK  Name = 
REMARK  6 active torsions:
REMARK  status: ('A' for Active; 'I' for Inactive)
REMARK    1  A    between atoms: C_1  and  C_2
REMARK    2  A    between atoms: N_9  and  C_10
REMARK    3  A    between atoms: C_10  and  C_11
REMARK    4  A    between atoms: C_14  and  C_15
REMARK    5  A    between atoms: C_15  and  C_16
REMARK    6  A    between atoms: C_16  and  N_17
REMARK                            x       y       z     vdW  Elec       q    Type
REMARK                         _______ _______ _______ _____ _____    ______ ____
ROOT
ATOM      1  C   UNL     1      45.152   5.330  12.820  0.00  0.00    +0.000 C 
ENDROOT
BRANCH   1  10
ATOM      2  C   UNL     1      48.516  11.201  13.004  0.00  0.00    +0.000 C 
ATOM      3  C   UNL     1      47.853   9.856  13.071  0.00  0.00    +0.000 A 
ATOM      4  C   UNL     1      46.645   9.616  12.413  0.00  0.00    +0.000 A 
ATOM      5  C   UNL     1      46.035   8.356  12.441  0.00  0.00    +0.000 A 
ATOM      6  C   UNL     1      46.672   7.325  13.152  0.00  0.00    +0.000 A 
ATOM      7  C   UNL     1      47.857   7.549  13.857  0.00  0.00    +0.000 A 
ATOM      8  C   UNL     1      48.196   6.336  14.515  0.00  0.00    +0.000 A 
ATOM      9  C   UNL     1      47.243   5.401  14.186  0.00  0.00    +0.000 A 
ATOM     10  N   UNL     1      46.348   5.992  13.330  0.00  0.00    +0.000 N 
ATOM     11  C   UNL     1      48.452   8.826  13.813  0.00  0.00    +0.000 A 
ENDBRANCH   1  10
BRANCH   1  12
ATOM     12  C   UNL     1      45.312   4.763  11.437  0.00  0.00    +0.000 A 
ATOM     13  C   UNL     1      45.727   5.548  10.361  0.00  0.00    +0.000 A 
ATOM     14  C   UNL     1      45.686   5.032   9.065  0.00  0.00    +0.000 A 
ATOM     15  C   UNL     1      45.234   3.731   8.874  0.00  0.00    +0.000 A 
ATOM     16  N   UNL     1      44.897   2.926   9.910  0.00  0.00    +0.000 NA
ATOM     17  C   UNL     1      44.959   3.448  11.157  0.00  0.00    +0.000 A 
BRANCH  15  18
ATOM     18  C   UNL     1      44.980   3.199   7.483  0.00  0.00    +0.000 C 
BRANCH  18  19
ATOM     19  C   UNL     1      46.311   2.853   6.803  0.00  0.00    +0.000 C 
BRANCH  19  20
ATOM     20  N   UNL     1      47.024   1.778   7.498  0.00  0.00    +0.000 NA
ATOM     21  H   UNL     1      46.908   0.900   6.996  0.00  0.00    +0.000 HD
ATOM     22  H   UNL     1      46.604   1.640   8.417  0.00  0.00    +0.000 HD
ENDBRANCH  19  20
ENDBRANCH  18  19
ENDBRANCH  15  18
ENDBRANCH   1  12
TORSDOF 5
ENDMDL
