MODEL 1
REMARK VINA RESULT:    -8.356      0.000      0.000
REMARK INTER + INTRA:         -11.538
REMARK INTER:                 -10.798
REMARK INTRA:                  -0.740
REMARK UNBOUND:                -0.740
REMARK  Name = 
REMARK  6 active torsions:
REMARK  status: ('A' for Active; 'I' for Inactive)
REMARK    1  A    between atoms: C_1  and  N_2
REMARK    2  A    between atoms: C_8  and  C_9
REMARK    3  A    between atoms: C_9  and  C_10
REMARK    4  A    between atoms: C_10  and  N_11
REMARK    5  A    between atoms: N_11  and  C_12
REMARK    6  A    between atoms: C_15  and  C_16
REMARK                            x       y       z     vdW  Elec       q    Type
REMARK                         _______ _______ _______ _____ _____    ______ ____
ROOT
ATOM      1  C   UNL     1      43.451   5.119  12.384  0.00  0.00    +0.000 C 
ENDROOT
BRANCH   1   9
ATOM      2  C   UNL     1      49.204  11.157  13.912  0.00  0.00    +0.000 C 
ATOM      3  N   UNL     1      49.174   9.772  13.445  0.00  0.00    +0.000 NA
ATOM      4  C   UNL     1      49.097   8.837  14.600  0.00  0.00    +0.000 C 
ATOM      5  C   UNL     1      48.907   7.354  14.182  0.00  0.00    +0.000 C 
ATOM      6  N   UNL     1      47.706   7.290  13.346  0.00  0.00    +0.000 N 
ATOM      7  C   UNL     1      47.015   6.098  13.256  0.00  0.00    +0.000 A 
ATOM      8  C   UNL     1      45.675   6.141  12.857  0.00  0.00    +0.000 A 
ATOM      9  C   UNL     1      44.897   4.984  12.809  0.00  0.00    +0.000 A 
ATOM     10  C   UNL     1      45.514   3.790  13.176  0.00  0.00    +0.000 A 
ATOM     11  C   UNL     1      46.843   3.820  13.568  0.00  0.00    +0.000 A 
ATOM     12  N   UNL     1      47.594   4.940  13.626  0.00  0.00    +0.000 NA
ATOM     13  C   UNL     1      47.833   8.095  12.125  0.00  0.00    +0.000 C 
ATOM     14  C   UNL     1      48.011   9.568  12.547  0.00  0.00    +0.000 C 
ENDBRANCH   1   9
BRANCH   1  15
ATOM     15  C   UNL     1      43.097   4.352  11.113  0.00  0.00    +0.000 C 
BRANCH  15  16
ATOM     16  N   UNL     1      43.777   4.889   9.932  0.00  0.00    +0.000 N 
ATOM     17  H   UNL     1      44.283   5.750  10.132  0.00  0.00    +0.000 HD
BRANCH  16  18
ATOM     18  C   UNL     1      44.579   3.972   9.224  0.00  0.00    +0.000 A 
ATOM     19  C   UNL     1      45.572   4.367   8.320  0.00  0.00    +0.000 A 
ATOM     20  C   UNL     1      46.384   3.425   7.693  0.00  0.00    +0.000 A 
ATOM     21  C   UNL     1      46.206   2.091   8.016  0.00  0.00    +0.000 A 
ATOM     22  N   UNL     1      45.287   1.646   8.918  0.00  0.00    +0.000 NA
ATOM     23  C   UNL     1      44.519   2.601   9.503  0.00  0.00    +0.000 A 
BRANCH  21  24
ATOM     24  C   UNL     1      47.078   1.061   7.370  0.00  0.00    +0.000 C 
ATOM     25  N   UNL     1      46.781  -0.236   7.679  0.00  0.00    +0.000 N 
ATOM     26  O   UNL     1      48.002   1.353   6.616  0.00  0.00    +0.000 OA
ATOM     27  H   UNL     1      46.028  -0.434   8.325  0.00  0.00    +0.000 HD
ATOM     28  H   UNL     1      47.353  -0.980   7.307  0.00  0.00    +0.000 HD
ENDBRANCH  21  24
ENDBRANCH  16  18
ENDBRANCH  15  16
ENDBRANCH   1  15
TORSDOF 5
ENDMDL
MODEL 2
REMARK VINA RESULT:    -7.651      2.886      7.300
REMARK INTER + INTRA:         -10.628
REMARK INTER:                  -9.999
REMARK INTRA:                  -0.628
REMARK UNBOUND:                -0.740
REMARK  Name = 
REMARK  6 active torsions:
REMARK  status: ('A' for Active; 'I' for Inactive)
REMARK    1  A    between atoms: C_1  and  N_2
REMARK    2  A    between atoms: C_8  and  C_9
REMARK    3  A    between atoms: C_9  and  C_10
REMARK    4  A    between atoms: C_10  and  N_11
REMARK    5  A    between atoms: N_11  and  C_12
REMARK    6  A    between atoms: C_15  and  C_16
REMARK                            x       y       z     vdW  Elec       q    Type
REMARK                         _______ _______ _______ _____ _____    ______ ____
ROOT
ATOM      1  C   UNL     1      44.933   7.514  11.783  0.00  0.00    +0.000 C 
ENDROOT
BRANCH   1   9
ATOM      2  C   UNL     1      47.709   1.611   6.367  0.00  0.00    +0.000 C 
ATOM      3  N   UNL     1      46.445   2.032   6.968  0.00  0.00    +0.000 NA
ATOM      4  C   UNL     1      46.297   1.446   8.329  0.00  0.00    +0.000 C 
ATOM      5  C   UNL     1      45.051   1.969   9.094  0.00  0.00    +0.000 C 
ATOM      6  N   UNL     1      45.150   3.430   9.134  0.00  0.00    +0.000 N 
ATOM      7  C   UNL     1      44.501   4.117  10.142  0.00  0.00    +0.000 A 
ATOM      8  C   UNL     1      44.946   5.406  10.452  0.00  0.00    +0.000 A 
ATOM      9  C   UNL     1      44.384   6.133  11.502  0.00  0.00    +0.000 A 
ATOM     10  C   UNL     1      43.364   5.515  12.224  0.00  0.00    +0.000 A 
ATOM     11  C   UNL     1      42.977   4.233  11.868  0.00  0.00    +0.000 A 
ATOM     12  N   UNL     1      43.528   3.525  10.859  0.00  0.00    +0.000 NA
ATOM     13  C   UNL     1      45.144   4.027   7.794  0.00  0.00    +0.000 C 
ATOM     14  C   UNL     1      46.390   3.512   7.043  0.00  0.00    +0.000 C 
ENDBRANCH   1   9
BRANCH   1  15
ATOM     15  C   UNL     1      45.950   7.564  12.921  0.00  0.00    +0.000 C 
BRANCH  15  16
ATOM     16  N   UNL     1      47.079   6.659  12.698  0.00  0.00    +0.000 N 
ATOM     17  H   UNL     1      47.913   7.148  12.378  0.00  0.00    +0.000 HD
BRANCH  16  18
ATOM     18  C   UNL     1      47.371   5.779  13.757  0.00  0.00    +0.000 A 
ATOM     19  C   UNL     1      47.982   6.193  14.948  0.00  0.00    +0.000 A 
ATOM     20  C   UNL     1      48.191   5.299  15.993  0.00  0.00    +0.000 A 
ATOM     21  C   UNL     1      47.744   3.997  15.839  0.00  0.00    +0.000 A 
ATOM     22  N   UNL     1      47.106   3.542  14.725  0.00  0.00    +0.000 NA
ATOM     23  C   UNL     1      46.926   4.452  13.732  0.00  0.00    +0.000 A 
BRANCH  21  24
ATOM     24  C   UNL     1      47.940   3.021  16.955  0.00  0.00    +0.000 C 
ATOM     25  N   UNL     1      46.829   2.755  17.704  0.00  0.00    +0.000 N 
ATOM     26  O   UNL     1      49.023   2.493  17.193  0.00  0.00    +0.000 OA
ATOM     27  H   UNL     1      45.961   3.230  17.492  0.00  0.00    +0.000 HD
ATOM     28  H   UNL     1      46.899   2.134  18.496  0.00  0.00    +0.000 HD
ENDBRANCH  21  24
ENDBRANCH  16  18
ENDBRANCH  15  16
ENDBRANCH   1  15
TORSDOF 5
ENDMDL
MODEL 3
REMARK VINA RESULT:    -7.572      1.393      2.387
REMARK INTER + INTRA:         -10.526
REMARK INTER:                 -10.136
REMARK INTRA:                  -0.389
REMARK UNBOUND:                -0.740
REMARK  Name = 
REMARK  6 active torsions:
REMARK  status: ('A' for Active; 'I' for Inactive)
REMARK    1  A    between atoms: C_1  and  N_2
REMARK    2  A    between atoms: C_8  and  C_9
REMARK    3  A    between atoms: C_9  and  C_10
REMARK    4  A    between atoms: C_10  and  N_11
REMARK    5  A    between atoms: N_11  and  C_12
REMARK    6  A    between atoms: C_15  and  C_16
REMARK                            x       y       z     vdW  Elec       q    Type
REMARK                         _______ _______ _______ _____ _____    ______ ____
ROOT
ATOM      1  C   UNL     1      45.216   4.912  11.903  0.00  0.00    +0.000 C 
ENDROOT
BRANCH   1   9
ATOM      2  C   UNL     1      52.419   7.838  15.286  0.00  0.00    +0.000 C 
ATOM      3  N   UNL     1      51.010   8.223  15.217  0.00  0.00    +0.000 NA
ATOM      4  C   UNL     1      50.727   8.926  13.935  0.00  0.00    +0.000 C 
ATOM      5  C   UNL     1      49.220   9.232  13.720  0.00  0.00    +0.000 C 
ATOM      6  N   UNL     1      48.502   7.959  13.817  0.00  0.00    +0.000 N 
ATOM      7  C   UNL     1      47.280   7.830  13.186  0.00  0.00    +0.000 A 
ATOM      8  C   UNL     1      46.823   6.541  12.892  0.00  0.00    +0.000 A 
ATOM      9  C   UNL     1      45.631   6.337  12.196  0.00  0.00    +0.000 A 
ATOM     10  C   UNL     1      44.922   7.473  11.809  0.00  0.00    +0.000 A 
ATOM     11  C   UNL     1      45.435   8.720  12.126  0.00  0.00    +0.000 A 
ATOM     12  N   UNL     1      46.594   8.919  12.790  0.00  0.00    +0.000 NA
ATOM     13  C   UNL     1      48.654   7.331  15.134  0.00  0.00    +0.000 C 
ATOM     14  C   UNL     1      50.152   7.020  15.339  0.00  0.00    +0.000 C 
ENDBRANCH   1   9
BRANCH   1  15
ATOM     15  C   UNL     1      43.805   4.774  11.335  0.00  0.00    +0.000 C 
BRANCH  15  16
ATOM     16  N   UNL     1      43.780   4.887   9.876  0.00  0.00    +0.000 N 
ATOM     17  H   UNL     1      43.946   5.840   9.556  0.00  0.00    +0.000 HD
BRANCH  16  18
ATOM     18  C   UNL     1      44.583   3.962   9.181  0.00  0.00    +0.000 A 
ATOM     19  C   UNL     1      45.583   4.345   8.279  0.00  0.00    +0.000 A 
ATOM     20  C   UNL     1      46.395   3.395   7.665  0.00  0.00    +0.000 A 
ATOM     21  C   UNL     1      46.211   2.065   8.000  0.00  0.00    +0.000 A 
ATOM     22  N   UNL     1      45.285   1.631   8.900  0.00  0.00    +0.000 NA
ATOM     23  C   UNL     1      44.517   2.594   9.471  0.00  0.00    +0.000 A 
BRANCH  21  24
ATOM     24  C   UNL     1      47.083   1.026   7.368  0.00  0.00    +0.000 C 
ATOM     25  N   UNL     1      46.755  -0.268   7.654  0.00  0.00    +0.000 N 
ATOM     26  O   UNL     1      48.034   1.309   6.644  0.00  0.00    +0.000 OA
ATOM     27  H   UNL     1      45.980  -0.460   8.275  0.00  0.00    +0.000 HD
ATOM     28  H   UNL     1      47.324  -1.019   7.291  0.00  0.00    +0.000 HD
ENDBRANCH  21  24
ENDBRANCH  16  18
ENDBRANCH  15  16
ENDBRANCH   1  15
TORSDOF 5
ENDMDL
MODEL 4
REMARK VINA RESULT:    -7.569      2.443      3.536
REMARK INTER + INTRA:         -10.521
REMARK INTER:                 -10.362
REMARK INTRA:                  -0.159
REMARK UNBOUND:                -0.740
REMARK  Name = 
REMARK  6 active torsions:
REMARK  status: ('A' for Active; 'I' for Inactive)
REMARK    1  A    between atoms: C_1  and  N_2
REMARK    2  A    between atoms: C_8  and  C_9
REMARK    3  A    between atoms: C_9  and  C_10
REMARK    4  A    between atoms: C_10  and  N_11
REMARK    5  A    between atoms: N_11  and  C_12
REMARK    6  A    between atoms: C_15  and  C_16
REMARK                            x       y       z     vdW  Elec       q    Type
REMARK                         _______ _______ _______ _____ _____    ______ ____
ROOT
ATOM      1  C   UNL     1      45.397   3.257  12.239  0.00  0.00    +0.000 C 
ENDROOT
BRANCH   1   9
ATOM      2  C   UNL     1      50.774   4.355  18.702  0.00  0.00    +0.000 C 
ATOM      3  N   UNL     1      49.722   5.105  18.019  0.00  0.00    +0.000 NA
ATOM      4  C   UNL     1      50.261   5.753  16.792  0.00  0.00    +0.000 C 
ATOM      5  C   UNL     1      49.169   6.443  15.929  0.00  0.00    +0.000 C 
ATOM      6  N   UNL     1      48.161   5.428  15.614  0.00  0.00    +0.000 N 
ATOM      7  C   UNL     1      47.378   5.589  14.488  0.00  0.00    +0.000 A 
ATOM      8  C   UNL     1      46.764   4.456  13.945  0.00  0.00    +0.000 A 
ATOM      9  C   UNL     1      46.014   4.532  12.771  0.00  0.00    +0.000 A 
ATOM     10  C   UNL     1      45.907   5.783  12.168  0.00  0.00    +0.000 A 
ATOM     11  C   UNL     1      46.547   6.863  12.755  0.00  0.00    +0.000 A 
ATOM     12  N   UNL     1      47.282   6.789  13.885  0.00  0.00    +0.000 NA
ATOM     13  C   UNL     1      47.516   4.890  16.817  0.00  0.00    +0.000 C 
ATOM     14  C   UNL     1      48.604   4.197  17.666  0.00  0.00    +0.000 C 
ENDBRANCH   1   9
BRANCH   1  15
ATOM     15  C   UNL     1      43.936   3.395  11.818  0.00  0.00    +0.000 C 
BRANCH  15  16
ATOM     16  N   UNL     1      43.797   3.965  10.477  0.00  0.00    +0.000 N 
ATOM     17  H   UNL     1      43.727   4.981  10.491  0.00  0.00    +0.000 HD
BRANCH  16  18
ATOM     18  C   UNL     1      44.741   3.526   9.529  0.00  0.00    +0.000 A 
ATOM     19  C   UNL     1      44.970   2.173   9.250  0.00  0.00    +0.000 A 
ATOM     20  C   UNL     1      45.867   1.789   8.257  0.00  0.00    +0.000 A 
ATOM     21  C   UNL     1      46.498   2.782   7.527  0.00  0.00    +0.000 A 
ATOM     22  N   UNL     1      46.287   4.114   7.720  0.00  0.00    +0.000 NA
ATOM     23  C   UNL     1      45.405   4.439   8.700  0.00  0.00    +0.000 A 
BRANCH  21  24
ATOM     24  C   UNL     1      47.452   2.395   6.442  0.00  0.00    +0.000 C 
ATOM     25  N   UNL     1      47.344   3.111   5.284  0.00  0.00    +0.000 N 
ATOM     26  O   UNL     1      48.277   1.495   6.573  0.00  0.00    +0.000 OA
ATOM     27  H   UNL     1      46.635   3.828   5.206  0.00  0.00    +0.000 HD
ATOM     28  H   UNL     1      47.932   2.878   4.498  0.00  0.00    +0.000 HD
ENDBRANCH  21  24
ENDBRANCH  16  18
ENDBRANCH  15  16
ENDBRANCH   1  15
TORSDOF 5
ENDMDL
MODEL 5
REMARK VINA RESULT:    -7.370      1.960      2.760
REMARK INTER + INTRA:         -10.264
REMARK INTER:                  -9.773
REMARK INTRA:                  -0.492
REMARK UNBOUND:                -0.740
REMARK  Name = 
REMARK  6 active torsions:
REMARK  status: ('A' for Active; 'I' for Inactive)
REMARK    1  A    between atoms: C_1  and  N_2
REMARK    2  A    between atoms: C_8  and  C_9
REMARK    3  A    between atoms: C_9  and  C_10
REMARK    4  A    between atoms: C_10  and  N_11
REMARK    5  A    between atoms: N_11  and  C_12
REMARK    6  A    between atoms: C_15  and  C_16
REMARK                            x       y       z     vdW  Elec       q    Type
REMARK                         _______ _______ _______ _____ _____    ______ ____
ROOT
ATOM      1  C   UNL     1      45.707   5.145  11.779  0.00  0.00    +0.000 C 
ENDROOT
BRANCH   1   9
ATOM      2  C   UNL     1      52.886   9.602  11.088  0.00  0.00    +0.000 C 
ATOM      3  N   UNL     1      51.627   9.670  11.827  0.00  0.00    +0.000 NA
ATOM      4  C   UNL     1      50.563  10.283  10.986  0.00  0.00    +0.000 C 
ATOM      5  C   UNL     1      49.159  10.250  11.646  0.00  0.00    +0.000 C 
ATOM      6  N   UNL     1      48.864   8.852  11.968  0.00  0.00    +0.000 N 
ATOM      7  C   UNL     1      47.546   8.454  12.079  0.00  0.00    +0.000 A 
ATOM      8  C   UNL     1      47.254   7.094  11.932  0.00  0.00    +0.000 A 
ATOM      9  C   UNL     1      45.939   6.629  11.964  0.00  0.00    +0.000 A 
ATOM     10  C   UNL     1      44.936   7.578  12.148  0.00  0.00    +0.000 A 
ATOM     11  C   UNL     1      45.295   8.910  12.280  0.00  0.00    +0.000 A 
ATOM     12  N   UNL     1      46.566   9.363  12.238  0.00  0.00    +0.000 NA
ATOM     13  C   UNL     1      49.827   8.283  12.918  0.00  0.00    +0.000 C 
ATOM     14  C   UNL     1      51.219   8.309  12.253  0.00  0.00    +0.000 C 
ENDBRANCH   1   9
BRANCH   1  15
ATOM     15  C   UNL     1      44.245   4.761  11.562  0.00  0.00    +0.000 C 
BRANCH  15  16
ATOM     16  N   UNL     1      43.880   4.746  10.144  0.00  0.00    +0.000 N 
ATOM     17  H   UNL     1      43.755   5.683   9.764  0.00  0.00    +0.000 HD
BRANCH  16  18
ATOM     18  C   UNL     1      44.698   3.957   9.314  0.00  0.00    +0.000 A 
ATOM     19  C   UNL     1      45.593   4.501   8.384  0.00  0.00    +0.000 A 
ATOM     20  C   UNL     1      46.429   3.680   7.631  0.00  0.00    +0.000 A 
ATOM     21  C   UNL     1      46.378   2.315   7.855  0.00  0.00    +0.000 A 
ATOM     22  N   UNL     1      45.562   1.727   8.773  0.00  0.00    +0.000 NA
ATOM     23  C   UNL     1      44.765   2.568   9.482  0.00  0.00    +0.000 A 
BRANCH  21  24
ATOM     24  C   UNL     1      47.280   1.413   7.073  0.00  0.00    +0.000 C 
ATOM     25  N   UNL     1      48.308   2.033   6.422  0.00  0.00    +0.000 N 
ATOM     26  O   UNL     1      47.112   0.198   7.010  0.00  0.00    +0.000 OA
ATOM     27  H   UNL     1      48.398   3.039   6.477  0.00  0.00    +0.000 HD
ATOM     28  H   UNL     1      48.933   1.489   5.846  0.00  0.00    +0.000 HD
ENDBRANCH  21  24
ENDBRANCH  16  18
ENDBRANCH  15  16
ENDBRANCH   1  15
TORSDOF 5
ENDMDL
MODEL 6
REMARK VINA RESULT:    -7.268      4.043      8.415
REMARK INTER + INTRA:         -10.132
REMARK INTER:                  -9.762
REMARK INTRA:                  -0.370
REMARK UNBOUND:                -0.740
REMARK  Name = 
REMARK  6 active torsions:
REMARK  status: ('A' for Active; 'I' for Inactive)
REMARK    1  A    between atoms: C_1  and  N_2
REMARK    2  A    between atoms: C_8  and  C_9
REMARK    3  A    between atoms: C_9  and  C_10
REMARK    4  A    between atoms: C_10  and  N_11
REMARK    5  A    between atoms: N_11  and  C_12
REMARK    6  A    between atoms: C_15  and  C_16
REMARK                            x       y       z     vdW  Elec       q    Type
REMARK                         _______ _______ _______ _____ _____    ______ ____
ROOT
ATOM      1  C   UNL     1      45.546   5.691  13.260  0.00  0.00    +0.000 C 
ENDROOT
BRANCH   1   9
ATOM      2  C   UNL     1      47.956   2.137   5.950  0.00  0.00    +0.000 C 
ATOM      3  N   UNL     1      46.714   2.423   6.667  0.00  0.00    +0.000 NA
ATOM      4  C   UNL     1      46.447   1.369   7.682  0.00  0.00    +0.000 C 
ATOM      5  C   UNL     1      45.227   1.681   8.590  0.00  0.00    +0.000 C 
ATOM      6  N   UNL     1      45.470   2.987   9.207  0.00  0.00    +0.000 N 
ATOM      7  C   UNL     1      44.849   3.288  10.404  0.00  0.00    +0.000 A 
ATOM      8  C   UNL     1      45.407   4.293  11.201  0.00  0.00    +0.000 A 
ATOM      9  C   UNL     1      44.873   4.603  12.452  0.00  0.00    +0.000 A 
ATOM     10  C   UNL     1      43.765   3.868  12.868  0.00  0.00    +0.000 A 
ATOM     11  C   UNL     1      43.267   2.881  12.032  0.00  0.00    +0.000 A 
ATOM     12  N   UNL     1      43.789   2.572  10.826  0.00  0.00    +0.000 NA
ATOM     13  C   UNL     1      45.585   4.061   8.215  0.00  0.00    +0.000 C 
ATOM     14  C   UNL     1      46.805   3.751   7.322  0.00  0.00    +0.000 C 
ENDBRANCH   1   9
BRANCH   1  15
ATOM     15  C   UNL     1      46.819   5.246  13.976  0.00  0.00    +0.000 C 
BRANCH  15  16
ATOM     16  N   UNL     1      46.539   4.350  15.099  0.00  0.00    +0.000 N 
ATOM     17  H   UNL     1      46.310   3.405  14.797  0.00  0.00    +0.000 HD
BRANCH  16  18
ATOM     18  C   UNL     1      47.503   4.344  16.126  0.00  0.00    +0.000 A 
ATOM     19  C   UNL     1      47.792   3.210  16.895  0.00  0.00    +0.000 A 
ATOM     20  C   UNL     1      48.800   3.235  17.855  0.00  0.00    +0.000 A 
ATOM     21  C   UNL     1      49.534   4.399  18.002  0.00  0.00    +0.000 A 
ATOM     22  N   UNL     1      49.331   5.522  17.257  0.00  0.00    +0.000 NA
ATOM     23  C   UNL     1      48.337   5.449  16.334  0.00  0.00    +0.000 A 
BRANCH  21  24
ATOM     24  C   UNL     1      50.635   4.446  19.013  0.00  0.00    +0.000 C 
ATOM     25  N   UNL     1      51.641   3.540  18.828  0.00  0.00    +0.000 N 
ATOM     26  O   UNL     1      50.641   5.238  19.952  0.00  0.00    +0.000 OA
ATOM     27  H   UNL     1      51.587   2.888  18.057  0.00  0.00    +0.000 HD
ATOM     28  H   UNL     1      52.397   3.492  19.495  0.00  0.00    +0.000 HD
ENDBRANCH  21  24
ENDBRANCH  16  18
ENDBRANCH  15  16
ENDBRANCH   1  15
TORSDOF 5
ENDMDL
MODEL 7
REMARK VINA RESULT:    -6.488      3.435      7.576
REMARK INTER + INTRA:          -9.125
REMARK INTER:                  -8.420
REMARK INTRA:                  -0.704
REMARK UNBOUND:                -0.740
REMARK  Name = 
REMARK  6 active torsions:
REMARK  status: ('A' for Active; 'I' for Inactive)
REMARK    1  A    between atoms: C_1  and  N_2
REMARK    2  A    between atoms: C_8  and  C_9
REMARK    3  A    between atoms: C_9  and  C_10
REMARK    4  A    between atoms: C_10  and  N_11
REMARK    5  A    between atoms: N_11  and  C_12
REMARK    6  A    between atoms: C_15  and  C_16
REMARK                            x       y       z     vdW  Elec       q    Type
REMARK                         _______ _______ _______ _____ _____    ______ ____
ROOT
ATOM      1  C   UNL     1      48.062   9.552  12.714  0.00  0.00    +0.000 C 
ENDROOT
BRANCH   1   9
ATOM      2  C   UNL     1      43.378   2.539  11.842  0.00  0.00    +0.000 C 
ATOM      3  N   UNL     1      43.528   3.839  11.190  0.00  0.00    +0.000 NA
ATOM      4  C   UNL     1      42.756   4.879  11.925  0.00  0.00    +0.000 C 
ATOM      5  C   UNL     1      42.988   6.316  11.383  0.00  0.00    +0.000 C 
ATOM      6  N   UNL     1      44.430   6.569  11.430  0.00  0.00    +0.000 N 
ATOM      7  C   UNL     1      44.878   7.873  11.504  0.00  0.00    +0.000 A 
ATOM      8  C   UNL     1      46.168   8.099  11.995  0.00  0.00    +0.000 A 
ATOM      9  C   UNL     1      46.663   9.393  12.161  0.00  0.00    +0.000 A 
ATOM     10  C   UNL     1      45.815  10.444  11.816  0.00  0.00    +0.000 A 
ATOM     11  C   UNL     1      44.546  10.150  11.343  0.00  0.00    +0.000 A 
ATOM     12  N   UNL     1      44.063   8.898  11.192  0.00  0.00    +0.000 NA
ATOM     13  C   UNL     1      45.187   5.638  10.586  0.00  0.00    +0.000 C 
ATOM     14  C   UNL     1      44.962   4.213  11.135  0.00  0.00    +0.000 C 
ENDBRANCH   1   9
BRANCH   1  15
ATOM     15  C   UNL     1      48.189   9.225  14.200  0.00  0.00    +0.000 C 
BRANCH  15  16
ATOM     16  N   UNL     1      49.303   8.314  14.474  0.00  0.00    +0.000 N 
ATOM     17  H   UNL     1      50.071   8.773  14.961  0.00  0.00    +0.000 HD
BRANCH  16  18
ATOM     18  C   UNL     1      48.954   7.098  15.092  0.00  0.00    +0.000 A 
ATOM     19  C   UNL     1      49.283   6.793  16.418  0.00  0.00    +0.000 A 
ATOM     20  C   UNL     1      48.860   5.603  17.005  0.00  0.00    +0.000 A 
ATOM     21  C   UNL     1      48.073   4.748  16.253  0.00  0.00    +0.000 A 
ATOM     22  N   UNL     1      47.684   5.005  14.973  0.00  0.00    +0.000 NA
ATOM     23  C   UNL     1      48.122   6.176  14.444  0.00  0.00    +0.000 A 
BRANCH  21  24
ATOM     24  C   UNL     1      47.590   3.472  16.867  0.00  0.00    +0.000 C 
ATOM     25  N   UNL     1      48.515   2.471  16.944  0.00  0.00    +0.000 N 
ATOM     26  O   UNL     1      46.440   3.325  17.272  0.00  0.00    +0.000 OA
ATOM     27  H   UNL     1      49.445   2.623  16.576  0.00  0.00    +0.000 HD
ATOM     28  H   UNL     1      48.246   1.571  17.314  0.00  0.00    +0.000 HD
ENDBRANCH  21  24
ENDBRANCH  16  18
ENDBRANCH  15  16
ENDBRANCH   1  15
TORSDOF 5
ENDMDL
MODEL 8
REMARK VINA RESULT:    -5.956      5.100      8.454
REMARK INTER + INTRA:          -8.437
REMARK INTER:                  -8.057
REMARK INTRA:                  -0.380
REMARK UNBOUND:                -0.740
REMARK  Name = 
REMARK  6 active torsions:
REMARK  status: ('A' for Active; 'I' for Inactive)
REMARK    1  A    between atoms: C_1  and  N_2
REMARK    2  A    between atoms: C_8  and  C_9
REMARK    3  A    between atoms: C_9  and  C_10
REMARK    4  A    between atoms: C_10  and  N_11
REMARK    5  A    between atoms: N_11  and  C_12
REMARK    6  A    between atoms: C_15  and  C_16
REMARK                            x       y       z     vdW  Elec       q    Type
REMARK                         _______ _______ _______ _____ _____    ______ ____
ROOT
ATOM      1  C   UNL     1      49.332   6.803  16.654  0.00  0.00    +0.000 C 
ENDROOT
BRANCH   1   9
ATOM      2  C   UNL     1      42.475   5.267  11.910  0.00  0.00    +0.000 C 
ATOM      3  N   UNL     1      43.929   5.246  11.764  0.00  0.00    +0.000 NA
ATOM      4  C   UNL     1      44.442   6.616  11.490  0.00  0.00    +0.000 C 
ATOM      5  C   UNL     1      45.993   6.703  11.474  0.00  0.00    +0.000 C 
ATOM      6  N   UNL     1      46.468   6.187  12.760  0.00  0.00    +0.000 N 
ATOM      7  C   UNL     1      47.700   6.597  13.231  0.00  0.00    +0.000 A 
ATOM      8  C   UNL     1      47.951   6.486  14.603  0.00  0.00    +0.000 A 
ATOM      9  C   UNL     1      49.146   6.943  15.159  0.00  0.00    +0.000 A 
ATOM     10  C   UNL     1      50.073   7.512  14.288  0.00  0.00    +0.000 A 
ATOM     11  C   UNL     1      49.758   7.597  12.941  0.00  0.00    +0.000 A 
ATOM     12  N   UNL     1      48.597   7.166  12.403  0.00  0.00    +0.000 NA
ATOM     13  C   UNL     1      46.093   4.785  12.972  0.00  0.00    +0.000 C 
ATOM     14  C   UNL     1      44.552   4.707  12.997  0.00  0.00    +0.000 C 
ENDBRANCH   1   9
BRANCH   1  15
ATOM     15  C   UNL     1      50.442   5.836  17.060  0.00  0.00    +0.000 C 
BRANCH  15  16
ATOM     16  N   UNL     1      49.916   4.573  17.581  0.00  0.00    +0.000 N 
ATOM     17  H   UNL     1      49.032   4.311  17.147  0.00  0.00    +0.000 HD
BRANCH  16  18
ATOM     18  C   UNL     1      50.823   3.496  17.595  0.00  0.00    +0.000 A 
ATOM     19  C   UNL     1      52.136   3.610  18.069  0.00  0.00    +0.000 A 
ATOM     20  C   UNL     1      52.976   2.501  18.124  0.00  0.00    +0.000 A 
ATOM     21  C   UNL     1      52.465   1.276  17.731  0.00  0.00    +0.000 A 
ATOM     22  N   UNL     1      51.186   1.090  17.300  0.00  0.00    +0.000 NA
ATOM     23  C   UNL     1      50.406   2.201  17.264  0.00  0.00    +0.000 A 
BRANCH  21  24
ATOM     24  C   UNL     1      53.342   0.065  17.798  0.00  0.00    +0.000 C 
ATOM     25  N   UNL     1      53.972  -0.268  16.633  0.00  0.00    +0.000 N 
ATOM     26  O   UNL     1      53.487  -0.593  18.825  0.00  0.00    +0.000 OA
ATOM     27  H   UNL     1      53.807   0.285  15.802  0.00  0.00    +0.000 HD
ATOM     28  H   UNL     1      54.550  -1.095  16.598  0.00  0.00    +0.000 HD
ENDBRANCH  21  24
ENDBRANCH  16  18
ENDBRANCH  15  16
ENDBRANCH   1  15
TORSDOF 5
ENDMDL
MODEL 9
REMARK VINA RESULT:    -5.922      3.566      7.891
REMARK INTER + INTRA:          -8.392
REMARK INTER:                  -7.326
REMARK INTRA:                  -1.066
REMARK UNBOUND:                -0.740
REMARK  Name = 
REMARK  6 active torsions:
REMARK  status: ('A' for Active; 'I' for Inactive)
REMARK    1  A    between atoms: C_1  and  N_2
REMARK    2  A    between atoms: C_8  and  C_9
REMARK    3  A    between atoms: C_9  and  C_10
REMARK    4  A    between atoms: C_10  and  N_11
REMARK    5  A    between atoms: N_11  and  C_12
REMARK    6  A    between atoms: C_15  and  C_16
REMARK                            x       y       z     vdW  Elec       q    Type
REMARK                         _______ _______ _______ _____ _____    ______ ____
ROOT
ATOM      1  C   UNL     1      48.953   9.611  15.710  0.00  0.00    +0.000 C 
ENDROOT
BRANCH   1   9
ATOM      2  C   UNL     1      43.497   3.933  12.568  0.00  0.00    +0.000 C 
ATOM      3  N   UNL     1      44.873   4.367  12.337  0.00  0.00    +0.000 NA
ATOM      4  C   UNL     1      44.897   5.582  11.477  0.00  0.00    +0.000 C 
ATOM      5  C   UNL     1      46.314   6.194  11.312  0.00  0.00    +0.000 C 
ATOM      6  N   UNL     1      46.828   6.465  12.656  0.00  0.00    +0.000 N 
ATOM      7  C   UNL     1      47.794   7.439  12.820  0.00  0.00    +0.000 A 
ATOM      8  C   UNL     1      47.949   8.005  14.089  0.00  0.00    +0.000 A 
ATOM      9  C   UNL     1      48.858   9.041  14.313  0.00  0.00    +0.000 A 
ATOM     10  C   UNL     1      49.598   9.481  13.217  0.00  0.00    +0.000 A 
ATOM     11  C   UNL     1      49.389   8.880  11.986  0.00  0.00    +0.000 A 
ATOM     12  N   UNL     1      48.502   7.886  11.766  0.00  0.00    +0.000 NA
ATOM     13  C   UNL     1      46.951   5.246  13.463  0.00  0.00    +0.000 C 
ATOM     14  C   UNL     1      45.538   4.648  13.633  0.00  0.00    +0.000 C 
ENDBRANCH   1   9
BRANCH   1  15
ATOM     15  C   UNL     1      50.227   9.228  16.459  0.00  0.00    +0.000 C 
BRANCH  15  16
ATOM     16  N   UNL     1      49.944   8.533  17.717  0.00  0.00    +0.000 N 
ATOM     17  H   UNL     1      49.359   9.084  18.343  0.00  0.00    +0.000 HD
BRANCH  16  18
ATOM     18  C   UNL     1      49.466   7.216  17.589  0.00  0.00    +0.000 A 
ATOM     19  C   UNL     1      48.291   6.766  18.205  0.00  0.00    +0.000 A 
ATOM     20  C   UNL     1      47.823   5.472  17.996  0.00  0.00    +0.000 A 
ATOM     21  C   UNL     1      48.530   4.654  17.132  0.00  0.00    +0.000 A 
ATOM     22  N   UNL     1      49.655   5.043  16.469  0.00  0.00    +0.000 NA
ATOM     23  C   UNL     1      50.072   6.314  16.706  0.00  0.00    +0.000 A 
BRANCH  21  24
ATOM     24  C   UNL     1      48.038   3.264  16.875  0.00  0.00    +0.000 C 
ATOM     25  N   UNL     1      46.928   2.896  17.580  0.00  0.00    +0.000 N 
ATOM     26  O   UNL     1      48.590   2.499  16.089  0.00  0.00    +0.000 OA
ATOM     27  H   UNL     1      46.517   3.547  18.237  0.00  0.00    +0.000 HD
ATOM     28  H   UNL     1      46.564   1.960  17.483  0.00  0.00    +0.000 HD
ENDBRANCH  21  24
ENDBRANCH  16  18
ENDBRANCH  15  16
ENDBRANCH   1  15
TORSDOF 5
ENDMDL
