MODEL 1
REMARK VINA RESULT:    -8.230      0.000      0.000
REMARK INTER + INTRA:         -10.865
REMARK INTER:                 -10.154
REMARK INTRA:                  -0.710
REMARK UNBOUND:                -0.710
REMARK  Name = 
REMARK  4 active torsions:
REMARK  status: ('A' for Active; 'I' for Inactive)
REMARK    1  A    between atoms: C_2  and  C_4
REMARK    2  A    between atoms: C_7  and  O_8
REMARK    3  A    between atoms: O_8  and  C_9
REMARK    4  A    between atoms: C_9  and  C_10
REMARK                            x       y       z     vdW  Elec       q    Type
REMARK                         _______ _______ _______ _____ _____    ______ ____
ROOT
ATOM      1  C   UNL     1      46.469   2.502   7.696  0.00  0.00    +0.000 A 
ATOM      2  C   UNL     1      46.363   3.898   7.672  0.00  0.00    +0.000 A 
ATOM      3  C   UNL     1      45.400   4.537   8.461  0.00  0.00    +0.000 A 
ATOM      4  C   UNL     1      44.533   3.789   9.263  0.00  0.00    +0.000 A 
ATOM      5  C   UNL     1      44.679   2.401   9.323  0.00  0.00    +0.000 A 
ATOM      6  C   UNL     1      45.627   1.759   8.527  0.00  0.00    +0.000 A 
ENDROOT
BRANCH   1   8
ATOM      7  N   UNL     1      48.543   2.420   6.422  0.00  0.00    +0.000 N 
ATOM      8  C   UNL     1      47.424   1.758   6.837  0.00  0.00    +0.000 C 
ATOM      9  O   UNL     1      47.239   0.584   6.540  0.00  0.00    +0.000 OA
ATOM     10  H   UNL     1      49.235   1.857   5.941  0.00  0.00    +0.000 HD
ATOM     11  H   UNL     1      48.852   3.277   6.854  0.00  0.00    +0.000 HD
ENDBRANCH   1   8
BRANCH   4  12
ATOM     12  O   UNL     1      43.571   4.503   9.928  0.00  0.00    +0.000 OA
BRANCH  12  13
ATOM     13  C   UNL     1      43.386   4.115  11.292  0.00  0.00    +0.000 C 
BRANCH  13  14
ATOM     14  C   UNL     1      44.520   4.614  12.151  0.00  0.00    +0.000 A 
ATOM     15  C   UNL     1      45.400   3.709  12.764  0.00  0.00    +0.000 A 
ATOM     16  C   UNL     1      46.513   4.179  13.457  0.00  0.00    +0.000 A 
ATOM     17  F   UNL     1      47.355   3.303  14.018  0.00  0.00    +0.000 F 
ATOM     18  C   UNL     1      46.776   5.538  13.556  0.00  0.00    +0.000 A 
ATOM     19  C   UNL     1      45.901   6.432  12.956  0.00  0.00    +0.000 A 
ATOM     20  F   UNL     1      46.147   7.746  13.030  0.00  0.00    +0.000 F 
ATOM     21  C   UNL     1      44.782   5.988  12.257  0.00  0.00    +0.000 A 
ENDBRANCH  13  14
ENDBRANCH  12  13
ENDBRANCH   4  12
TORSDOF 4
ENDMDL
MODEL 2
REMARK VINA RESULT:    -8.220      0.161      1.889
REMARK INTER + INTRA:         -10.852
REMARK INTER:                 -10.169
REMARK INTRA:                  -0.683
REMARK UNBOUND:                -0.710
REMARK  Name = 
REMARK  4 active torsions:
REMARK  status: ('A' for Active; 'I' for Inactive)
REMARK    1  A    between atoms: C_2  and  C_4
REMARK    2  A    between atoms: C_7  and  O_8
REMARK    3  A    between atoms: O_8  and  C_9
REMARK    4  A    between atoms: C_9  and  C_10
REMARK                            x       y       z     vdW  Elec       q    Type
REMARK                         _______ _______ _______ _____ _____    ______ ____
ROOT
ATOM      1  C   UNL     1      46.499   2.519   7.714  0.00  0.00    +0.000 A 
ATOM      2  C   UNL     1      46.396   3.916   7.702  0.00  0.00    +0.000 A 
ATOM      3  C   UNL     1      45.437   4.550   8.501  0.00  0.00    +0.000 A 
ATOM      4  C   UNL     1      44.572   3.797   9.300  0.00  0.00    +0.000 A 
ATOM      5  C   UNL     1      44.716   2.408   9.348  0.00  0.00    +0.000 A 
ATOM      6  C   UNL     1      45.660   1.771   8.542  0.00  0.00    +0.000 A 
ENDROOT
BRANCH   1   8
ATOM      7  N   UNL     1      48.543   2.459   6.391  0.00  0.00    +0.000 N 
ATOM      8  C   UNL     1      47.449   1.781   6.844  0.00  0.00    +0.000 C 
ATOM      9  O   UNL     1      47.282   0.598   6.572  0.00  0.00    +0.000 OA
ATOM     10  H   UNL     1      49.236   1.902   5.904  0.00  0.00    +0.000 HD
ATOM     11  H   UNL     1      48.845   3.330   6.801  0.00  0.00    +0.000 HD
ENDBRANCH   1   8
BRANCH   4  12
ATOM     12  O   UNL     1      43.615   4.507   9.975  0.00  0.00    +0.000 OA
BRANCH  12  13
ATOM     13  C   UNL     1      43.508   4.181  11.363  0.00  0.00    +0.000 C 
BRANCH  13  14
ATOM     14  C   UNL     1      44.742   4.610  12.113  0.00  0.00    +0.000 A 
ATOM     15  C   UNL     1      45.054   5.971  12.252  0.00  0.00    +0.000 A 
ATOM     16  C   UNL     1      46.129   6.363  13.046  0.00  0.00    +0.000 A 
ATOM     17  F   UNL     1      46.399   7.666  13.188  0.00  0.00    +0.000 F 
ATOM     18  C   UNL     1      46.909   5.428  13.711  0.00  0.00    +0.000 A 
ATOM     19  C   UNL     1      46.606   4.081  13.565  0.00  0.00    +0.000 A 
ATOM     20  F   UNL     1      47.341   3.166  14.210  0.00  0.00    +0.000 F 
ATOM     21  C   UNL     1      45.536   3.664  12.779  0.00  0.00    +0.000 A 
ENDBRANCH  13  14
ENDBRANCH  12  13
ENDBRANCH   4  12
TORSDOF 4
ENDMDL
MODEL 3
REMARK VINA RESULT:    -7.775      3.807      6.279
REMARK INTER + INTRA:         -10.303
REMARK INTER:                  -9.758
REMARK INTRA:                  -0.545
REMARK UNBOUND:                -0.710
REMARK  Name = 
REMARK  4 active torsions:
REMARK  status: ('A' for Active; 'I' for Inactive)
REMARK    1  A    between atoms: C_2  and  C_4
REMARK    2  A    between atoms: C_7  and  O_8
REMARK    3  A    between atoms: O_8  and  C_9
REMARK    4  A    between atoms: C_9  and  C_10
REMARK                            x       y       z     vdW  Elec       q    Type
REMARK                         _______ _______ _______ _____ _____    ______ ____
ROOT
ATOM      1  C   UNL     1      46.480   5.496  12.913  0.00  0.00    +0.000 A 
ATOM      2  C   UNL     1      46.071   6.092  11.714  0.00  0.00    +0.000 A 
ATOM      3  C   UNL     1      45.305   5.359  10.799  0.00  0.00    +0.000 A 
ATOM      4  C   UNL     1      44.958   4.032  11.070  0.00  0.00    +0.000 A 
ATOM      5  C   UNL     1      45.323   3.462  12.291  0.00  0.00    +0.000 A 
ATOM      6  C   UNL     1      46.099   4.183  13.199  0.00  0.00    +0.000 A 
ENDROOT
BRANCH   1   8
ATOM      7  N   UNL     1      47.216   7.548  13.999  0.00  0.00    +0.000 N 
ATOM      8  C   UNL     1      47.346   6.194  13.897  0.00  0.00    +0.000 C 
ATOM      9  O   UNL     1      48.122   5.578  14.618  0.00  0.00    +0.000 OA
ATOM     10  H   UNL     1      47.727   7.984  14.759  0.00  0.00    +0.000 HD
ATOM     11  H   UNL     1      46.422   8.043  13.623  0.00  0.00    +0.000 HD
ENDBRANCH   1   8
BRANCH   4  12
ATOM     12  O   UNL     1      44.283   3.378  10.073  0.00  0.00    +0.000 OA
BRANCH  12  13
ATOM     13  C   UNL     1      44.524   3.894   8.761  0.00  0.00    +0.000 C 
BRANCH  13  14
ATOM     14  C   UNL     1      45.540   3.054   8.031  0.00  0.00    +0.000 A 
ATOM     15  C   UNL     1      45.795   1.735   8.434  0.00  0.00    +0.000 A 
ATOM     16  C   UNL     1      46.646   0.928   7.683  0.00  0.00    +0.000 A 
ATOM     17  F   UNL     1      46.862  -0.336   8.067  0.00  0.00    +0.000 F 
ATOM     18  C   UNL     1      47.256   1.404   6.531  0.00  0.00    +0.000 A 
ATOM     19  C   UNL     1      47.011   2.712   6.138  0.00  0.00    +0.000 A 
ATOM     20  F   UNL     1      47.580   3.184   5.021  0.00  0.00    +0.000 F 
ATOM     21  C   UNL     1      46.162   3.538   6.871  0.00  0.00    +0.000 A 
ENDBRANCH  13  14
ENDBRANCH  12  13
ENDBRANCH   4  12
TORSDOF 4
ENDMDL
MODEL 4
REMARK VINA RESULT:    -7.554      3.832      6.526
REMARK INTER + INTRA:         -10.031
REMARK INTER:                  -9.470
REMARK INTRA:                  -0.561
REMARK UNBOUND:                -0.710
REMARK  Name = 
REMARK  4 active torsions:
REMARK  status: ('A' for Active; 'I' for Inactive)
REMARK    1  A    between atoms: C_2  and  C_4
REMARK    2  A    between atoms: C_7  and  O_8
REMARK    3  A    between atoms: O_8  and  C_9
REMARK    4  A    between atoms: C_9  and  C_10
REMARK                            x       y       z     vdW  Elec       q    Type
REMARK                         _______ _______ _______ _____ _____    ______ ____
ROOT
ATOM      1  C   UNL     1      46.636   5.768  12.879  0.00  0.00    +0.000 A 
ATOM      2  C   UNL     1      46.173   6.242  11.645  0.00  0.00    +0.000 A 
ATOM      3  C   UNL     1      45.411   5.407  10.820  0.00  0.00    +0.000 A 
ATOM      4  C   UNL     1      45.121   4.097  11.213  0.00  0.00    +0.000 A 
ATOM      5  C   UNL     1      45.539   3.649  12.468  0.00  0.00    +0.000 A 
ATOM      6  C   UNL     1      46.311   4.472  13.287  0.00  0.00    +0.000 A 
ENDROOT
BRANCH   1   8
ATOM      7  N   UNL     1      47.204   7.904  13.902  0.00  0.00    +0.000 N 
ATOM      8  C   UNL     1      47.501   6.578  13.773  0.00  0.00    +0.000 C 
ATOM      9  O   UNL     1      48.423   6.074  14.401  0.00  0.00    +0.000 OA
ATOM     10  H   UNL     1      47.729   8.406  14.608  0.00  0.00    +0.000 HD
ATOM     11  H   UNL     1      46.315   8.287  13.618  0.00  0.00    +0.000 HD
ENDBRANCH   1   8
BRANCH   4  12
ATOM     12  O   UNL     1      44.445   3.336  10.297  0.00  0.00    +0.000 OA
BRANCH  12  13
ATOM     13  C   UNL     1      44.485   3.847   8.962  0.00  0.00    +0.000 C 
BRANCH  13  14
ATOM     14  C   UNL     1      45.360   2.990   8.084  0.00  0.00    +0.000 A 
ATOM     15  C   UNL     1      45.945   3.521   6.925  0.00  0.00    +0.000 A 
ATOM     16  C   UNL     1      46.846   2.760   6.185  0.00  0.00    +0.000 A 
ATOM     17  F   UNL     1      47.413   3.289   5.094  0.00  0.00    +0.000 F 
ATOM     18  C   UNL     1      47.184   1.471   6.572  0.00  0.00    +0.000 A 
ATOM     19  C   UNL     1      46.598   0.942   7.714  0.00  0.00    +0.000 A 
ATOM     20  F   UNL     1      46.923  -0.295   8.110  0.00  0.00    +0.000 F 
ATOM     21  C   UNL     1      45.696   1.684   8.471  0.00  0.00    +0.000 A 
ENDBRANCH  13  14
ENDBRANCH  12  13
ENDBRANCH   4  12
TORSDOF 4
ENDMDL
MODEL 5
REMARK VINA RESULT:    -7.363      3.884      6.413
REMARK INTER + INTRA:          -9.795
REMARK INTER:                  -9.274
REMARK INTRA:                  -0.522
REMARK UNBOUND:                -0.710
REMARK  Name = 
REMARK  4 active torsions:
REMARK  status: ('A' for Active; 'I' for Inactive)
REMARK    1  A    between atoms: C_2  and  C_4
REMARK    2  A    between atoms: C_7  and  O_8
REMARK    3  A    between atoms: O_8  and  C_9
REMARK    4  A    between atoms: C_9  and  C_10
REMARK                            x       y       z     vdW  Elec       q    Type
REMARK                         _______ _______ _______ _____ _____    ______ ____
ROOT
ATOM      1  C   UNL     1      46.512   6.435  12.842  0.00  0.00    +0.000 A 
ATOM      2  C   UNL     1      46.355   5.178  13.438  0.00  0.00    +0.000 A 
ATOM      3  C   UNL     1      45.732   4.144  12.730  0.00  0.00    +0.000 A 
ATOM      4  C   UNL     1      45.253   4.363  11.435  0.00  0.00    +0.000 A 
ATOM      5  C   UNL     1      45.461   5.602  10.825  0.00  0.00    +0.000 A 
ATOM      6  C   UNL     1      46.068   6.639  11.533  0.00  0.00    +0.000 A 
ENDROOT
BRANCH   1   8
ATOM      7  N   UNL     1      46.354   8.725  13.653  0.00  0.00    +0.000 N 
ATOM      8  C   UNL     1      47.106   7.591  13.559  0.00  0.00    +0.000 C 
ATOM      9  O   UNL     1      48.213   7.522  14.079  0.00  0.00    +0.000 OA
ATOM     10  H   UNL     1      46.729   9.454  14.249  0.00  0.00    +0.000 HD
ATOM     11  H   UNL     1      45.361   8.729  13.475  0.00  0.00    +0.000 HD
ENDBRANCH   1   8
BRANCH   4  12
ATOM     12  O   UNL     1      44.582   3.314  10.863  0.00  0.00    +0.000 OA
BRANCH  12  13
ATOM     13  C   UNL     1      44.208   3.526   9.499  0.00  0.00    +0.000 C 
BRANCH  13  14
ATOM     14  C   UNL     1      45.241   2.952   8.563  0.00  0.00    +0.000 A 
ATOM     15  C   UNL     1      45.669   1.623   8.703  0.00  0.00    +0.000 A 
ATOM     16  C   UNL     1      46.532   1.065   7.764  0.00  0.00    +0.000 A 
ATOM     17  F   UNL     1      46.913  -0.211   7.899  0.00  0.00    +0.000 F 
ATOM     18  C   UNL     1      46.985   1.801   6.678  0.00  0.00    +0.000 A 
ATOM     19  C   UNL     1      46.569   3.118   6.545  0.00  0.00    +0.000 A 
ATOM     20  F   UNL     1      46.985   3.839   5.496  0.00  0.00    +0.000 F 
ATOM     21  C   UNL     1      45.705   3.698   7.470  0.00  0.00    +0.000 A 
ENDBRANCH  13  14
ENDBRANCH  12  13
ENDBRANCH   4  12
TORSDOF 4
ENDMDL
MODEL 6
REMARK VINA RESULT:    -7.054      3.999      6.845
REMARK INTER + INTRA:          -9.414
REMARK INTER:                  -8.951
REMARK INTRA:                  -0.463
REMARK UNBOUND:                -0.710
REMARK  Name = 
REMARK  4 active torsions:
REMARK  status: ('A' for Active; 'I' for Inactive)
REMARK    1  A    between atoms: C_2  and  C_4
REMARK    2  A    between atoms: C_7  and  O_8
REMARK    3  A    between atoms: O_8  and  C_9
REMARK    4  A    between atoms: C_9  and  C_10
REMARK                            x       y       z     vdW  Elec       q    Type
REMARK                         _______ _______ _______ _____ _____    ______ ____
ROOT
ATOM      1  C   UNL     1      45.414   7.356  12.187  0.00  0.00    +0.000 A 
ATOM      2  C   UNL     1      46.191   6.954  11.093  0.00  0.00    +0.000 A 
ATOM      3  C   UNL     1      45.952   5.715  10.487  0.00  0.00    +0.000 A 
ATOM      4  C   UNL     1      44.951   4.870  10.976  0.00  0.00    +0.000 A 
ATOM      5  C   UNL     1      44.144   5.300  12.032  0.00  0.00    +0.000 A 
ATOM      6  C   UNL     1      44.389   6.527  12.648  0.00  0.00    +0.000 A 
ENDROOT
BRANCH   1   8
ATOM      7  N   UNL     1      44.705   9.600  12.814  0.00  0.00    +0.000 N 
ATOM      8  C   UNL     1      45.656   8.627  12.915  0.00  0.00    +0.000 C 
ATOM      9  O   UNL     1      46.652   8.787  13.610  0.00  0.00    +0.000 OA
ATOM     10  H   UNL     1      44.833  10.405  13.414  0.00  0.00    +0.000 HD
ATOM     11  H   UNL     1      43.774   9.409  12.477  0.00  0.00    +0.000 HD
ENDBRANCH   1   8
BRANCH   4  12
ATOM     12  O   UNL     1      44.856   3.645  10.368  0.00  0.00    +0.000 OA
BRANCH  12  13
ATOM     13  C   UNL     1      44.411   3.693   9.011  0.00  0.00    +0.000 C 
BRANCH  13  14
ATOM     14  C   UNL     1      45.323   2.894   8.116  0.00  0.00    +0.000 A 
ATOM     15  C   UNL     1      45.866   3.467   6.957  0.00  0.00    +0.000 A 
ATOM     16  C   UNL     1      46.800   2.763   6.202  0.00  0.00    +0.000 A 
ATOM     17  F   UNL     1      47.327   3.332   5.111  0.00  0.00    +0.000 F 
ATOM     18  C   UNL     1      47.212   1.491   6.573  0.00  0.00    +0.000 A 
ATOM     19  C   UNL     1      46.667   0.920   7.715  0.00  0.00    +0.000 A 
ATOM     20  F   UNL     1      47.063  -0.301   8.095  0.00  0.00    +0.000 F 
ATOM     21  C   UNL     1      45.733   1.605   8.488  0.00  0.00    +0.000 A 
ENDBRANCH  13  14
ENDBRANCH  12  13
ENDBRANCH   4  12
TORSDOF 4
ENDMDL
MODEL 7
REMARK VINA RESULT:    -6.584      1.607      2.396
REMARK INTER + INTRA:          -8.833
REMARK INTER:                  -8.382
REMARK INTRA:                  -0.451
REMARK UNBOUND:                -0.710
REMARK  Name = 
REMARK  4 active torsions:
REMARK  status: ('A' for Active; 'I' for Inactive)
REMARK    1  A    between atoms: C_2  and  C_4
REMARK    2  A    between atoms: C_7  and  O_8
REMARK    3  A    between atoms: O_8  and  C_9
REMARK    4  A    between atoms: C_9  and  C_10
REMARK                            x       y       z     vdW  Elec       q    Type
REMARK                         _______ _______ _______ _____ _____    ______ ____
ROOT
ATOM      1  C   UNL     1      46.218   2.806   7.650  0.00  0.00    +0.000 A 
ATOM      2  C   UNL     1      45.564   1.942   8.537  0.00  0.00    +0.000 A 
ATOM      3  C   UNL     1      44.911   2.462   9.661  0.00  0.00    +0.000 A 
ATOM      4  C   UNL     1      44.918   3.838   9.910  0.00  0.00    +0.000 A 
ATOM      5  C   UNL     1      45.525   4.699   8.993  0.00  0.00    +0.000 A 
ATOM      6  C   UNL     1      46.190   4.184   7.880  0.00  0.00    +0.000 A 
ENDROOT
BRANCH   1   8
ATOM      7  N   UNL     1      47.112   3.163   5.413  0.00  0.00    +0.000 N 
ATOM      8  C   UNL     1      46.983   2.317   6.476  0.00  0.00    +0.000 C 
ATOM      9  O   UNL     1      47.511   1.212   6.470  0.00  0.00    +0.000 OA
ATOM     10  H   UNL     1      47.738   2.855   4.678  0.00  0.00    +0.000 HD
ATOM     11  H   UNL     1      46.924   4.152   5.486  0.00  0.00    +0.000 HD
ENDBRANCH   1   8
BRANCH   4  12
ATOM     12  O   UNL     1      44.326   4.234  11.080  0.00  0.00    +0.000 OA
BRANCH  12  13
ATOM     13  C   UNL     1      43.568   5.443  10.978  0.00  0.00    +0.000 C 
BRANCH  13  14
ATOM     14  C   UNL     1      44.311   6.597  11.599  0.00  0.00    +0.000 A 
ATOM     15  C   UNL     1      45.354   6.366  12.509  0.00  0.00    +0.000 A 
ATOM     16  C   UNL     1      46.112   7.432  12.987  0.00  0.00    +0.000 A 
ATOM     17  F   UNL     1      47.118   7.193  13.837  0.00  0.00    +0.000 F 
ATOM     18  C   UNL     1      45.859   8.734  12.579  0.00  0.00    +0.000 A 
ATOM     19  C   UNL     1      44.821   8.963  11.686  0.00  0.00    +0.000 A 
ATOM     20  F   UNL     1      44.571  10.211  11.271  0.00  0.00    +0.000 F 
ATOM     21  C   UNL     1      44.050   7.914  11.193  0.00  0.00    +0.000 A 
ENDBRANCH  13  14
ENDBRANCH  12  13
ENDBRANCH   4  12
TORSDOF 4
ENDMDL
MODEL 8
REMARK VINA RESULT:    -5.908      3.777      6.533
REMARK INTER + INTRA:          -7.999
REMARK INTER:                  -7.374
REMARK INTRA:                  -0.625
REMARK UNBOUND:                -0.710
REMARK  Name = 
REMARK  4 active torsions:
REMARK  status: ('A' for Active; 'I' for Inactive)
REMARK    1  A    between atoms: C_2  and  C_4
REMARK    2  A    between atoms: C_7  and  O_8
REMARK    3  A    between atoms: O_8  and  C_9
REMARK    4  A    between atoms: C_9  and  C_10
REMARK                            x       y       z     vdW  Elec       q    Type
REMARK                         _______ _______ _______ _____ _____    ______ ____
ROOT
ATOM      1  C   UNL     1      47.410   7.625  13.104  0.00  0.00    +0.000 A 
ATOM      2  C   UNL     1      47.702   6.256  13.060  0.00  0.00    +0.000 A 
ATOM      3  C   UNL     1      46.711   5.346  12.672  0.00  0.00    +0.000 A 
ATOM      4  C   UNL     1      45.428   5.794  12.343  0.00  0.00    +0.000 A 
ATOM      5  C   UNL     1      45.161   7.165  12.337  0.00  0.00    +0.000 A 
ATOM      6  C   UNL     1      46.140   8.074  12.737  0.00  0.00    +0.000 A 
ENDROOT
BRANCH   1   8
ATOM      7  N   UNL     1      49.612   8.184  13.985  0.00  0.00    +0.000 N 
ATOM      8  C   UNL     1      48.394   8.636  13.567  0.00  0.00    +0.000 C 
ATOM      9  O   UNL     1      48.141   9.835  13.541  0.00  0.00    +0.000 OA
ATOM     10  H   UNL     1      50.304   8.898  14.178  0.00  0.00    +0.000 HD
ATOM     11  H   UNL     1      49.941   7.254  13.774  0.00  0.00    +0.000 HD
ENDBRANCH   1   8
BRANCH   4  12
ATOM     12  O   UNL     1      44.510   4.817  12.063  0.00  0.00    +0.000 OA
BRANCH  12  13
ATOM     13  C   UNL     1      43.865   4.961  10.794  0.00  0.00    +0.000 C 
BRANCH  13  14
ATOM     14  C   UNL     1      44.558   4.135   9.742  0.00  0.00    +0.000 A 
ATOM     15  C   UNL     1      45.496   4.722   8.880  0.00  0.00    +0.000 A 
ATOM     16  C   UNL     1      46.219   3.930   7.991  0.00  0.00    +0.000 A 
ATOM     17  F   UNL     1      47.127   4.501   7.191  0.00  0.00    +0.000 F 
ATOM     18  C   UNL     1      46.030   2.556   7.937  0.00  0.00    +0.000 A 
ATOM     19  C   UNL     1      45.095   1.978   8.783  0.00  0.00    +0.000 A 
ATOM     20  F   UNL     1      44.910   0.651   8.753  0.00  0.00    +0.000 F 
ATOM     21  C   UNL     1      44.361   2.747   9.681  0.00  0.00    +0.000 A 
ENDBRANCH  13  14
ENDBRANCH  12  13
ENDBRANCH   4  12
TORSDOF 4
ENDMDL
MODEL 9
REMARK VINA RESULT:    -5.860      4.567      6.138
REMARK INTER + INTRA:          -7.941
REMARK INTER:                  -7.580
REMARK INTRA:                  -0.361
REMARK UNBOUND:                -0.710
REMARK  Name = 
REMARK  4 active torsions:
REMARK  status: ('A' for Active; 'I' for Inactive)
REMARK    1  A    between atoms: C_2  and  C_4
REMARK    2  A    between atoms: C_7  and  O_8
REMARK    3  A    between atoms: O_8  and  C_9
REMARK    4  A    between atoms: C_9  and  C_10
REMARK                            x       y       z     vdW  Elec       q    Type
REMARK                         _______ _______ _______ _____ _____    ______ ____
ROOT
ATOM      1  C   UNL     1      44.609   5.824  11.950  0.00  0.00    +0.000 A 
ATOM      2  C   UNL     1      45.675   6.702  11.716  0.00  0.00    +0.000 A 
ATOM      3  C   UNL     1      46.881   6.531  12.406  0.00  0.00    +0.000 A 
ATOM      4  C   UNL     1      47.023   5.498  13.338  0.00  0.00    +0.000 A 
ATOM      5  C   UNL     1      45.975   4.595  13.526  0.00  0.00    +0.000 A 
ATOM      6  C   UNL     1      44.766   4.770  12.852  0.00  0.00    +0.000 A 
ENDROOT
BRANCH   1   8
ATOM      7  N   UNL     1      42.816   7.257  11.134  0.00  0.00    +0.000 N 
ATOM      8  C   UNL     1      43.284   5.986  11.300  0.00  0.00    +0.000 C 
ATOM      9  O   UNL     1      42.647   5.021  10.895  0.00  0.00    +0.000 OA
ATOM     10  H   UNL     1      41.971   7.347  10.582  0.00  0.00    +0.000 HD
ATOM     11  H   UNL     1      43.415   8.065  11.211  0.00  0.00    +0.000 HD
ENDBRANCH   1   8
BRANCH   4  12
ATOM     12  O   UNL     1      48.210   5.472  14.021  0.00  0.00    +0.000 OA
BRANCH  12  13
ATOM     13  C   UNL     1      48.189   6.173  15.267  0.00  0.00    +0.000 C 
BRANCH  13  14
ATOM     14  C   UNL     1      48.340   5.219  16.424  0.00  0.00    +0.000 A 
ATOM     15  C   UNL     1      47.391   4.209  16.643  0.00  0.00    +0.000 A 
ATOM     16  C   UNL     1      47.600   3.260  17.640  0.00  0.00    +0.000 A 
ATOM     17  F   UNL     1      46.697   2.289  17.822  0.00  0.00    +0.000 F 
ATOM     18  C   UNL     1      48.740   3.288  18.432  0.00  0.00    +0.000 A 
ATOM     19  C   UNL     1      49.673   4.293  18.221  0.00  0.00    +0.000 A 
ATOM     20  F   UNL     1      50.785   4.328  18.966  0.00  0.00    +0.000 F 
ATOM     21  C   UNL     1      49.488   5.253  17.229  0.00  0.00    +0.000 A 
ENDBRANCH  13  14
ENDBRANCH  12  13
ENDBRANCH   4  12
TORSDOF 4
ENDMDL
