MODEL 1
REMARK VINA RESULT:    -8.808      0.000      0.000
REMARK INTER + INTRA:         -15.024
REMARK INTER:                 -13.700
REMARK INTRA:                  -1.324
REMARK UNBOUND:                -1.324
REMARK  Name = 
REMARK  11 active torsions:
REMARK  status: ('A' for Active; 'I' for Inactive)
REMARK    1  A    between atoms: C_1  and  C_2
REMARK    2  A    between atoms: C_2  and  C_3
REMARK    3  A    between atoms: C_3  and  N_4
REMARK    4  A    between atoms: C_3  and  C_21
REMARK    5  A    between atoms: N_4  and  C_5
REMARK    6  A    between atoms: C_5  and  C_6
REMARK    7  A    between atoms: C_9  and  C_10
REMARK    8  A    between atoms: C_10  and  O_11
REMARK    9  A    between atoms: C_10  and  C_12
REMARK   10  A    between atoms: C_12  and  C_13
REMARK   11  A    between atoms: C_21  and  C_23
REMARK                            x       y       z     vdW  Elec       q    Type
REMARK                         _______ _______ _______ _____ _____    ______ ____
ROOT
ATOM      1  N   UNL     1      48.195   4.950  15.498  0.00  0.00    +0.000 NA
ATOM      2  H   UNL     1      47.491   4.216  15.539  0.00  0.00    +0.000 HD
ENDROOT
BRANCH   1   3
ATOM      3  C   UNL     1      48.261   5.633  16.809  0.00  0.00    +0.000 C 
BRANCH   3   5
ATOM      4  C   UNL     1      48.632   7.952  17.947  0.00  0.00    +0.000 C 
ATOM      5  C   UNL     1      48.954   7.014  16.789  0.00  0.00    +0.000 C 
ENDBRANCH   3   5
BRANCH   3   6
ATOM      6  C   UNL     1      48.865   4.743  17.945  0.00  0.00    +0.000 C 
ATOM      7  O   UNL     1      48.148   4.311  18.846  0.00  0.00    +0.000 OA
BRANCH   6   8
ATOM      8  C   UNL     1      50.311   4.443  17.964  0.00  0.00    +0.000 A 
ATOM      9  C   UNL     1      51.284   5.333  18.404  0.00  0.00    +0.000 A 
ATOM     10  S   UNL     1      52.824   4.620  18.580  0.00  0.00    +0.000 S 
ATOM     11  C   UNL     1      52.256   3.119  18.018  0.00  0.00    +0.000 A 
ATOM     12  N   UNL     1      53.064   2.029  17.986  0.00  0.00    +0.000 NA
ATOM     13  C   UNL     1      52.496   0.966  17.519  0.00  0.00    +0.000 A 
ATOM     14  N   UNL     1      51.210   0.908  17.041  0.00  0.00    +0.000 N 
ATOM     15  C   UNL     1      50.400   2.021  16.941  0.00  0.00    +0.000 A 
ATOM     16  O   UNL     1      49.390   2.016  16.244  0.00  0.00    +0.000 OA
ATOM     17  C   UNL     1      50.938   3.193  17.609  0.00  0.00    +0.000 A 
ATOM     18  H   UNL     1      50.874   0.075  16.582  0.00  0.00    +0.000 HD
ENDBRANCH   6   8
ENDBRANCH   3   6
ENDBRANCH   1   3
BRANCH   1  19
ATOM     19  C   UNL     1      47.935   5.803  14.339  0.00  0.00    +0.000 C 
BRANCH  19  20
ATOM     20  C   UNL     1      46.892   5.183  13.435  0.00  0.00    +0.000 A 
ATOM     21  C   UNL     1      46.282   5.889  12.391  0.00  0.00    +0.000 A 
ATOM     22  C   UNL     1      45.363   5.250  11.557  0.00  0.00    +0.000 A 
ATOM     23  C   UNL     1      45.071   3.909  11.778  0.00  0.00    +0.000 A 
ATOM     24  N   UNL     1      45.669   3.199  12.768  0.00  0.00    +0.000 NA
ATOM     25  C   UNL     1      46.533   3.848  13.579  0.00  0.00    +0.000 A 
BRANCH  23  26
ATOM     26  C   UNL     1      44.147   3.151  10.841  0.00  0.00    +0.000 C 
BRANCH  26  27
ATOM     27  O   UNL     1      42.797   3.394  11.255  0.00  0.00    +0.000 OA
ATOM     28  H   UNL     1      42.808   4.233  11.749  0.00  0.00    +0.000 HD
ENDBRANCH  26  27
BRANCH  26  29
ATOM     29  C   UNL     1      44.340   3.597   9.374  0.00  0.00    +0.000 C 
BRANCH  29  30
ATOM     30  C   UNL     1      45.385   2.868   8.562  0.00  0.00    +0.000 A 
ATOM     31  C   UNL     1      46.121   3.583   7.606  0.00  0.00    +0.000 A 
ATOM     32  C   UNL     1      47.058   2.925   6.820  0.00  0.00    +0.000 A 
ATOM     33  C   UNL     1      47.241   1.568   7.016  0.00  0.00    +0.000 A 
ATOM     34  N   UNL     1      46.564   0.845   7.928  0.00  0.00    +0.000 NA
ATOM     35  C   UNL     1      45.650   1.507   8.673  0.00  0.00    +0.000 A 
ENDBRANCH  29  30
ENDBRANCH  26  29
ENDBRANCH  23  26
ENDBRANCH  19  20
ENDBRANCH   1  19
TORSDOF 10
ENDMDL
MODEL 2
REMARK VINA RESULT:    -8.390      2.886      3.891
REMARK INTER + INTRA:         -14.373
REMARK INTER:                 -12.575
REMARK INTRA:                  -1.798
REMARK UNBOUND:                -1.324
REMARK  Name = 
REMARK  11 active torsions:
REMARK  status: ('A' for Active; 'I' for Inactive)
REMARK    1  A    between atoms: C_1  and  C_2
REMARK    2  A    between atoms: C_2  and  C_3
REMARK    3  A    between atoms: C_3  and  N_4
REMARK    4  A    between atoms: C_3  and  C_21
REMARK    5  A    between atoms: N_4  and  C_5
REMARK    6  A    between atoms: C_5  and  C_6
REMARK    7  A    between atoms: C_9  and  C_10
REMARK    8  A    between atoms: C_10  and  O_11
REMARK    9  A    between atoms: C_10  and  C_12
REMARK   10  A    between atoms: C_12  and  C_13
REMARK   11  A    between atoms: C_21  and  C_23
REMARK                            x       y       z     vdW  Elec       q    Type
REMARK                         _______ _______ _______ _____ _____    ______ ____
ROOT
ATOM      1  N   UNL     1      46.183   8.283  13.639  0.00  0.00    +0.000 NA
ATOM      2  H   UNL     1      45.805   8.934  14.324  0.00  0.00    +0.000 HD
ENDROOT
BRANCH   1   3
ATOM      3  C   UNL     1      47.569   8.679  13.305  0.00  0.00    +0.000 C 
BRANCH   3   5
ATOM      4  C   UNL     1      47.613  10.882  11.908  0.00  0.00    +0.000 C 
ATOM      5  C   UNL     1      47.737   9.363  11.930  0.00  0.00    +0.000 C 
ENDBRANCH   3   5
BRANCH   3   6
ATOM      6  C   UNL     1      48.603   7.514  13.459  0.00  0.00    +0.000 C 
ATOM      7  O   UNL     1      49.153   7.035  12.469  0.00  0.00    +0.000 OA
BRANCH   6   8
ATOM      8  C   UNL     1      48.899   6.955  14.793  0.00  0.00    +0.000 A 
ATOM      9  C   UNL     1      49.780   7.532  15.700  0.00  0.00    +0.000 A 
ATOM     10  S   UNL     1      49.707   6.832  17.254  0.00  0.00    +0.000 S 
ATOM     11  C   UNL     1      48.544   5.698  16.750  0.00  0.00    +0.000 A 
ATOM     12  N   UNL     1      47.986   4.825  17.629  0.00  0.00    +0.000 NA
ATOM     13  C   UNL     1      47.132   4.015  17.096  0.00  0.00    +0.000 A 
ATOM     14  N   UNL     1      46.820   3.972  15.759  0.00  0.00    +0.000 N 
ATOM     15  C   UNL     1      47.455   4.756  14.818  0.00  0.00    +0.000 A 
ATOM     16  O   UNL     1      47.390   4.496  13.621  0.00  0.00    +0.000 OA
ATOM     17  C   UNL     1      48.293   5.792  15.395  0.00  0.00    +0.000 A 
ATOM     18  H   UNL     1      46.233   3.234  15.397  0.00  0.00    +0.000 HD
ENDBRANCH   6   8
ENDBRANCH   3   6
ENDBRANCH   1   3
BRANCH   1  19
ATOM     19  C   UNL     1      45.255   8.176  12.514  0.00  0.00    +0.000 C 
BRANCH  19  20
ATOM     20  C   UNL     1      45.111   6.739  12.066  0.00  0.00    +0.000 A 
ATOM     21  C   UNL     1      44.318   5.810  12.749  0.00  0.00    +0.000 A 
ATOM     22  C   UNL     1      44.183   4.510  12.260  0.00  0.00    +0.000 A 
ATOM     23  C   UNL     1      44.842   4.159  11.087  0.00  0.00    +0.000 A 
ATOM     24  N   UNL     1      45.596   5.050  10.395  0.00  0.00    +0.000 NA
ATOM     25  C   UNL     1      45.734   6.294  10.905  0.00  0.00    +0.000 A 
BRANCH  23  26
ATOM     26  C   UNL     1      44.651   2.784  10.470  0.00  0.00    +0.000 C 
BRANCH  26  27
ATOM     27  O   UNL     1      43.503   2.180  11.079  0.00  0.00    +0.000 OA
ATOM     28  H   UNL     1      43.829   1.694  11.858  0.00  0.00    +0.000 HD
ENDBRANCH  26  27
BRANCH  26  29
ATOM     29  C   UNL     1      44.456   2.872   8.941  0.00  0.00    +0.000 C 
BRANCH  29  30
ATOM     30  C   UNL     1      45.650   2.553   8.072  0.00  0.00    +0.000 A 
ATOM     31  C   UNL     1      46.104   3.518   7.163  0.00  0.00    +0.000 A 
ATOM     32  C   UNL     1      47.175   3.231   6.326  0.00  0.00    +0.000 A 
ATOM     33  C   UNL     1      47.770   1.987   6.425  0.00  0.00    +0.000 A 
ATOM     34  N   UNL     1      47.373   1.034   7.291  0.00  0.00    +0.000 NA
ATOM     35  C   UNL     1      46.322   1.334   8.087  0.00  0.00    +0.000 A 
ENDBRANCH  29  30
ENDBRANCH  26  29
ENDBRANCH  23  26
ENDBRANCH  19  20
ENDBRANCH   1  19
TORSDOF 10
ENDMDL
MODEL 3
REMARK VINA RESULT:    -8.152      1.821      2.409
REMARK INTER + INTRA:         -14.003
REMARK INTER:                 -12.575
REMARK INTRA:                  -1.428
REMARK UNBOUND:                -1.324
REMARK  Name = 
REMARK  11 active torsions:
REMARK  status: ('A' for Active; 'I' for Inactive)
REMARK    1  A    between atoms: C_1  and  C_2
REMARK    2  A    between atoms: C_2  and  C_3
REMARK    3  A    between atoms: C_3  and  N_4
REMARK    4  A    between atoms: C_3  and  C_21
REMARK    5  A    between atoms: N_4  and  C_5
REMARK    6  A    between atoms: C_5  and  C_6
REMARK    7  A    between atoms: C_9  and  C_10
REMARK    8  A    between atoms: C_10  and  O_11
REMARK    9  A    between atoms: C_10  and  C_12
REMARK   10  A    between atoms: C_12  and  C_13
REMARK   11  A    between atoms: C_21  and  C_23
REMARK                            x       y       z     vdW  Elec       q    Type
REMARK                         _______ _______ _______ _____ _____    ______ ____
ROOT
ATOM      1  N   UNL     1      48.634   6.370  14.529  0.00  0.00    +0.000 NA
ATOM      2  H   UNL     1      48.241   5.516  14.921  0.00  0.00    +0.000 HD
ENDROOT
BRANCH   1   3
ATOM      3  C   UNL     1      49.205   7.188  15.623  0.00  0.00    +0.000 C 
BRANCH   3   5
ATOM      4  C   UNL     1      51.183   8.135  14.209  0.00  0.00    +0.000 C 
ATOM      5  C   UNL     1      50.719   7.472  15.501  0.00  0.00    +0.000 C 
ENDBRANCH   3   5
BRANCH   3   6
ATOM      6  C   UNL     1      48.872   6.639  17.050  0.00  0.00    +0.000 C 
ATOM      7  O   UNL     1      48.798   7.404  18.010  0.00  0.00    +0.000 OA
BRANCH   6   8
ATOM      8  C   UNL     1      48.680   5.190  17.261  0.00  0.00    +0.000 A 
ATOM      9  C   UNL     1      47.442   4.559  17.249  0.00  0.00    +0.000 A 
ATOM     10  S   UNL     1      47.549   2.857  17.235  0.00  0.00    +0.000 S 
ATOM     11  C   UNL     1      49.248   2.907  17.309  0.00  0.00    +0.000 A 
ATOM     12  N   UNL     1      49.987   1.769  17.256  0.00  0.00    +0.000 NA
ATOM     13  C   UNL     1      51.262   1.965  17.339  0.00  0.00    +0.000 A 
ATOM     14  N   UNL     1      51.857   3.190  17.515  0.00  0.00    +0.000 N 
ATOM     15  C   UNL     1      51.136   4.352  17.698  0.00  0.00    +0.000 A 
ATOM     16  O   UNL     1      51.659   5.365  18.151  0.00  0.00    +0.000 OA
ATOM     17  C   UNL     1      49.715   4.200  17.442  0.00  0.00    +0.000 A 
ATOM     18  H   UNL     1      52.849   3.254  17.691  0.00  0.00    +0.000 HD
ENDBRANCH   6   8
ENDBRANCH   3   6
ENDBRANCH   1   3
BRANCH   1  19
ATOM     19  C   UNL     1      47.628   7.024  13.694  0.00  0.00    +0.000 C 
BRANCH  19  20
ATOM     20  C   UNL     1      46.784   6.002  12.964  0.00  0.00    +0.000 A 
ATOM     21  C   UNL     1      46.433   4.770  13.529  0.00  0.00    +0.000 A 
ATOM     22  C   UNL     1      45.609   3.888  12.828  0.00  0.00    +0.000 A 
ATOM     23  C   UNL     1      45.144   4.255  11.570  0.00  0.00    +0.000 A 
ATOM     24  N   UNL     1      45.452   5.454  11.014  0.00  0.00    +0.000 NA
ATOM     25  C   UNL     1      46.274   6.278  11.701  0.00  0.00    +0.000 A 
BRANCH  23  26
ATOM     26  C   UNL     1      44.174   3.366  10.812  0.00  0.00    +0.000 C 
BRANCH  26  27
ATOM     27  O   UNL     1      42.851   3.648  11.285  0.00  0.00    +0.000 OA
ATOM     28  H   UNL     1      42.364   2.804  11.257  0.00  0.00    +0.000 HD
ENDBRANCH  26  27
BRANCH  26  29
ATOM     29  C   UNL     1      44.255   3.610   9.289  0.00  0.00    +0.000 C 
BRANCH  29  30
ATOM     30  C   UNL     1      45.335   2.878   8.528  0.00  0.00    +0.000 A 
ATOM     31  C   UNL     1      46.111   3.587   7.601  0.00  0.00    +0.000 A 
ATOM     32  C   UNL     1      47.083   2.925   6.861  0.00  0.00    +0.000 A 
ATOM     33  C   UNL     1      47.259   1.570   7.074  0.00  0.00    +0.000 A 
ATOM     34  N   UNL     1      46.543   0.852   7.961  0.00  0.00    +0.000 NA
ATOM     35  C   UNL     1      45.596   1.517   8.660  0.00  0.00    +0.000 A 
ENDBRANCH  29  30
ENDBRANCH  26  29
ENDBRANCH  23  26
ENDBRANCH  19  20
ENDBRANCH   1  19
TORSDOF 10
ENDMDL
MODEL 4
REMARK VINA RESULT:    -8.151      2.901      8.849
REMARK INTER + INTRA:         -14.002
REMARK INTER:                 -12.374
REMARK INTRA:                  -1.627
REMARK UNBOUND:                -1.324
REMARK  Name = 
REMARK  11 active torsions:
REMARK  status: ('A' for Active; 'I' for Inactive)
REMARK    1  A    between atoms: C_1  and  C_2
REMARK    2  A    between atoms: C_2  and  C_3
REMARK    3  A    between atoms: C_3  and  N_4
REMARK    4  A    between atoms: C_3  and  C_21
REMARK    5  A    between atoms: N_4  and  C_5
REMARK    6  A    between atoms: C_5  and  C_6
REMARK    7  A    between atoms: C_9  and  C_10
REMARK    8  A    between atoms: C_10  and  O_11
REMARK    9  A    between atoms: C_10  and  C_12
REMARK   10  A    between atoms: C_12  and  C_13
REMARK   11  A    between atoms: C_21  and  C_23
REMARK                            x       y       z     vdW  Elec       q    Type
REMARK                         _______ _______ _______ _____ _____    ______ ____
ROOT
ATOM      1  N   UNL     1      46.657   6.550  11.513  0.00  0.00    +0.000 NA
ATOM      2  H   UNL     1      47.099   6.468  10.599  0.00  0.00    +0.000 HD
ENDROOT
BRANCH   1   3
ATOM      3  C   UNL     1      45.456   7.409  11.396  0.00  0.00    +0.000 C 
BRANCH   3   5
ATOM      4  C   UNL     1      45.382   9.912  12.129  0.00  0.00    +0.000 C 
ATOM      5  C   UNL     1      45.284   8.444  12.530  0.00  0.00    +0.000 C 
ENDBRANCH   3   5
BRANCH   3   6
ATOM      6  C   UNL     1      44.131   6.601  11.197  0.00  0.00    +0.000 C 
ATOM      7  O   UNL     1      43.061   7.187  11.044  0.00  0.00    +0.000 OA
BRANCH   6   8
ATOM      8  C   UNL     1      44.150   5.124  11.227  0.00  0.00    +0.000 A 
ATOM      9  C   UNL     1      43.649   4.361  12.275  0.00  0.00    +0.000 A 
ATOM     10  S   UNL     1      43.546   2.697  11.912  0.00  0.00    +0.000 S 
ATOM     11  C   UNL     1      44.224   2.934  10.370  0.00  0.00    +0.000 A 
ATOM     12  N   UNL     1      44.352   1.905   9.493  0.00  0.00    +0.000 NA
ATOM     13  C   UNL     1      44.898   2.236   8.369  0.00  0.00    +0.000 A 
ATOM     14  N   UNL     1      45.367   3.490   8.064  0.00  0.00    +0.000 N 
ATOM     15  C   UNL     1      45.368   4.529   8.972  0.00  0.00    +0.000 A 
ATOM     16  O   UNL     1      46.053   5.531   8.796  0.00  0.00    +0.000 OA
ATOM     17  C   UNL     1      44.612   4.246  10.179  0.00  0.00    +0.000 A 
ATOM     18  H   UNL     1      45.889   3.646   7.214  0.00  0.00    +0.000 HD
ENDBRANCH   6   8
ENDBRANCH   3   6
ENDBRANCH   1   3
BRANCH   1  19
ATOM     19  C   UNL     1      47.655   6.970  12.495  0.00  0.00    +0.000 C 
BRANCH  19  20
ATOM     20  C   UNL     1      47.621   6.079  13.717  0.00  0.00    +0.000 A 
ATOM     21  C   UNL     1      46.908   4.874  13.753  0.00  0.00    +0.000 A 
ATOM     22  C   UNL     1      46.954   4.068  14.891  0.00  0.00    +0.000 A 
ATOM     23  C   UNL     1      47.718   4.479  15.978  0.00  0.00    +0.000 A 
ATOM     24  N   UNL     1      48.436   5.630  15.956  0.00  0.00    +0.000 NA
ATOM     25  C   UNL     1      48.352   6.406  14.853  0.00  0.00    +0.000 A 
BRANCH  23  26
ATOM     26  C   UNL     1      47.869   3.591  17.201  0.00  0.00    +0.000 C 
BRANCH  26  27
ATOM     27  O   UNL     1      46.572   3.087  17.546  0.00  0.00    +0.000 OA
ATOM     28  H   UNL     1      45.950   3.826  17.428  0.00  0.00    +0.000 HD
ENDBRANCH  26  27
BRANCH  26  29
ATOM     29  C   UNL     1      48.839   2.419  16.933  0.00  0.00    +0.000 C 
BRANCH  29  30
ATOM     30  C   UNL     1      50.265   2.582  17.402  0.00  0.00    +0.000 A 
ATOM     31  C   UNL     1      51.138   1.488  17.313  0.00  0.00    +0.000 A 
ATOM     32  C   UNL     1      52.442   1.603  17.777  0.00  0.00    +0.000 A 
ATOM     33  C   UNL     1      52.844   2.813  18.310  0.00  0.00    +0.000 A 
ATOM     34  N   UNL     1      52.043   3.893  18.406  0.00  0.00    +0.000 NA
ATOM     35  C   UNL     1      50.775   3.751  17.958  0.00  0.00    +0.000 A 
ENDBRANCH  29  30
ENDBRANCH  26  29
ENDBRANCH  23  26
ENDBRANCH  19  20
ENDBRANCH   1  19
TORSDOF 10
ENDMDL
MODEL 5
REMARK VINA RESULT:    -7.839      2.658      3.762
REMARK INTER + INTRA:         -13.516
REMARK INTER:                 -11.871
REMARK INTRA:                  -1.646
REMARK UNBOUND:                -1.324
REMARK  Name = 
REMARK  11 active torsions:
REMARK  status: ('A' for Active; 'I' for Inactive)
REMARK    1  A    between atoms: C_1  and  C_2
REMARK    2  A    between atoms: C_2  and  C_3
REMARK    3  A    between atoms: C_3  and  N_4
REMARK    4  A    between atoms: C_3  and  C_21
REMARK    5  A    between atoms: N_4  and  C_5
REMARK    6  A    between atoms: C_5  and  C_6
REMARK    7  A    between atoms: C_9  and  C_10
REMARK    8  A    between atoms: C_10  and  O_11
REMARK    9  A    between atoms: C_10  and  C_12
REMARK   10  A    between atoms: C_12  and  C_13
REMARK   11  A    between atoms: C_21  and  C_23
REMARK                            x       y       z     vdW  Elec       q    Type
REMARK                         _______ _______ _______ _____ _____    ______ ____
ROOT
ATOM      1  N   UNL     1      49.017   6.301  13.752  0.00  0.00    +0.000 NA
ATOM      2  H   UNL     1      49.582   5.655  14.300  0.00  0.00    +0.000 HD
ENDROOT
BRANCH   1   3
ATOM      3  C   UNL     1      49.605   7.657  13.842  0.00  0.00    +0.000 C 
BRANCH   3   5
ATOM      4  C   UNL     1      49.608   9.168  11.715  0.00  0.00    +0.000 C 
ATOM      5  C   UNL     1      50.336   8.135  12.567  0.00  0.00    +0.000 C 
ENDBRANCH   3   5
BRANCH   3   6
ATOM      6  C   UNL     1      50.520   7.856  15.096  0.00  0.00    +0.000 C 
ATOM      7  O   UNL     1      51.741   7.758  14.997  0.00  0.00    +0.000 OA
BRANCH   6   8
ATOM      8  C   UNL     1      49.919   8.129  16.417  0.00  0.00    +0.000 A 
ATOM      9  C   UNL     1      49.822   9.396  16.981  0.00  0.00    +0.000 A 
ATOM     10  S   UNL     1      48.835   9.443  18.372  0.00  0.00    +0.000 S 
ATOM     11  C   UNL     1      48.557   7.767  18.302  0.00  0.00    +0.000 A 
ATOM     12  N   UNL     1      47.719   7.156  19.178  0.00  0.00    +0.000 NA
ATOM     13  C   UNL     1      47.621   5.879  19.010  0.00  0.00    +0.000 A 
ATOM     14  N   UNL     1      48.320   5.154  18.076  0.00  0.00    +0.000 N 
ATOM     15  C   UNL     1      49.272   5.719  17.252  0.00  0.00    +0.000 A 
ATOM     16  O   UNL     1      50.089   5.028  16.651  0.00  0.00    +0.000 OA
ATOM     17  C   UNL     1      49.287   7.171  17.292  0.00  0.00    +0.000 A 
ATOM     18  H   UNL     1      48.284   4.146  18.081  0.00  0.00    +0.000 HD
ENDBRANCH   6   8
ENDBRANCH   3   6
ENDBRANCH   1   3
BRANCH   1  19
ATOM     19  C   UNL     1      47.618   6.178  14.156  0.00  0.00    +0.000 C 
BRANCH  19  20
ATOM     20  C   UNL     1      46.751   5.765  12.987  0.00  0.00    +0.000 A 
ATOM     21  C   UNL     1      46.754   6.448  11.765  0.00  0.00    +0.000 A 
ATOM     22  C   UNL     1      45.971   5.990  10.705  0.00  0.00    +0.000 A 
ATOM     23  C   UNL     1      45.198   4.848  10.882  0.00  0.00    +0.000 A 
ATOM     24  N   UNL     1      45.199   4.156  12.048  0.00  0.00    +0.000 NA
ATOM     25  C   UNL     1      45.943   4.637  13.069  0.00  0.00    +0.000 A 
BRANCH  23  26
ATOM     26  C   UNL     1      44.402   4.264   9.728  0.00  0.00    +0.000 C 
BRANCH  26  27
ATOM     27  O   UNL     1      43.168   4.985   9.629  0.00  0.00    +0.000 OA
ATOM     28  H   UNL     1      42.840   4.846   8.722  0.00  0.00    +0.000 HD
ENDBRANCH  26  27
BRANCH  26  29
ATOM     29  C   UNL     1      45.180   4.360   8.397  0.00  0.00    +0.000 C 
BRANCH  29  30
ATOM     30  C   UNL     1      45.954   3.139   7.960  0.00  0.00    +0.000 A 
ATOM     31  C   UNL     1      46.899   3.267   6.932  0.00  0.00    +0.000 A 
ATOM     32  C   UNL     1      47.593   2.150   6.486  0.00  0.00    +0.000 A 
ATOM     33  C   UNL     1      47.329   0.932   7.085  0.00  0.00    +0.000 A 
ATOM     34  N   UNL     1      46.438   0.764   8.081  0.00  0.00    +0.000 NA
ATOM     35  C   UNL     1      45.768   1.866   8.490  0.00  0.00    +0.000 A 
ENDBRANCH  29  30
ENDBRANCH  26  29
ENDBRANCH  23  26
ENDBRANCH  19  20
ENDBRANCH   1  19
TORSDOF 10
ENDMDL
MODEL 6
REMARK VINA RESULT:    -7.673      2.041      2.453
REMARK INTER + INTRA:         -13.257
REMARK INTER:                 -11.759
REMARK INTRA:                  -1.498
REMARK UNBOUND:                -1.324
REMARK  Name = 
REMARK  11 active torsions:
REMARK  status: ('A' for Active; 'I' for Inactive)
REMARK    1  A    between atoms: C_1  and  C_2
REMARK    2  A    between atoms: C_2  and  C_3
REMARK    3  A    between atoms: C_3  and  N_4
REMARK    4  A    between atoms: C_3  and  C_21
REMARK    5  A    between atoms: N_4  and  C_5
REMARK    6  A    between atoms: C_5  and  C_6
REMARK    7  A    between atoms: C_9  and  C_10
REMARK    8  A    between atoms: C_10  and  O_11
REMARK    9  A    between atoms: C_10  and  C_12
REMARK   10  A    between atoms: C_12  and  C_13
REMARK   11  A    between atoms: C_21  and  C_23
REMARK                            x       y       z     vdW  Elec       q    Type
REMARK                         _______ _______ _______ _____ _____    ______ ____
ROOT
ATOM      1  N   UNL     1      47.986   6.214  15.143  0.00  0.00    +0.000 NA
ATOM      2  H   UNL     1      47.000   6.159  15.388  0.00  0.00    +0.000 HD
ENDROOT
BRANCH   1   3
ATOM      3  C   UNL     1      48.639   7.242  15.985  0.00  0.00    +0.000 C 
BRANCH   3   5
ATOM      4  C   UNL     1      48.553   9.813  16.419  0.00  0.00    +0.000 C 
ATOM      5  C   UNL     1      48.604   8.675  15.407  0.00  0.00    +0.000 C 
ENDBRANCH   3   5
BRANCH   3   6
ATOM      6  C   UNL     1      50.099   6.865  16.406  0.00  0.00    +0.000 C 
ATOM      7  O   UNL     1      50.986   6.768  15.560  0.00  0.00    +0.000 OA
BRANCH   6   8
ATOM      8  C   UNL     1      50.415   6.589  17.822  0.00  0.00    +0.000 A 
ATOM      9  C   UNL     1      51.265   7.369  18.596  0.00  0.00    +0.000 A 
ATOM     10  S   UNL     1      51.218   6.979  20.256  0.00  0.00    +0.000 S 
ATOM     11  C   UNL     1      50.109   5.717  19.987  0.00  0.00    +0.000 A 
ATOM     12  N   UNL     1      49.589   5.006  21.019  0.00  0.00    +0.000 NA
ATOM     13  C   UNL     1      48.775   4.070  20.657  0.00  0.00    +0.000 A 
ATOM     14  N   UNL     1      48.470   3.756  19.356  0.00  0.00    +0.000 N 
ATOM     15  C   UNL     1      49.073   4.372  18.278  0.00  0.00    +0.000 A 
ATOM     16  O   UNL     1      49.024   3.884  17.153  0.00  0.00    +0.000 OA
ATOM     17  C   UNL     1      49.860   5.537  18.640  0.00  0.00    +0.000 A 
ATOM     18  H   UNL     1      47.920   2.937  19.145  0.00  0.00    +0.000 HD
ENDBRANCH   6   8
ENDBRANCH   3   6
ENDBRANCH   1   3
BRANCH   1  19
ATOM     19  C   UNL     1      48.114   6.390  13.697  0.00  0.00    +0.000 C 
BRANCH  19  20
ATOM     20  C   UNL     1      47.011   5.658  12.964  0.00  0.00    +0.000 A 
ATOM     21  C   UNL     1      46.397   6.173  11.816  0.00  0.00    +0.000 A 
ATOM     22  C   UNL     1      45.420   5.429  11.153  0.00  0.00    +0.000 A 
ATOM     23  C   UNL     1      45.074   4.176  11.647  0.00  0.00    +0.000 A 
ATOM     24  N   UNL     1      45.673   3.648  12.743  0.00  0.00    +0.000 NA
ATOM     25  C   UNL     1      46.596   4.400  13.384  0.00  0.00    +0.000 A 
BRANCH  23  26
ATOM     26  C   UNL     1      44.082   3.296  10.906  0.00  0.00    +0.000 C 
BRANCH  26  27
ATOM     27  O   UNL     1      42.770   3.591  11.401  0.00  0.00    +0.000 OA
ATOM     28  H   UNL     1      42.660   3.068  12.216  0.00  0.00    +0.000 HD
ENDBRANCH  26  27
BRANCH  26  29
ATOM     29  C   UNL     1      44.140   3.538   9.381  0.00  0.00    +0.000 C 
BRANCH  29  30
ATOM     30  C   UNL     1      45.239   2.843   8.613  0.00  0.00    +0.000 A 
ATOM     31  C   UNL     1      46.009   3.587   7.707  0.00  0.00    +0.000 A 
ATOM     32  C   UNL     1      46.998   2.960   6.960  0.00  0.00    +0.000 A 
ATOM     33  C   UNL     1      47.197   1.604   7.144  0.00  0.00    +0.000 A 
ATOM     34  N   UNL     1      46.488   0.852   8.009  0.00  0.00    +0.000 NA
ATOM     35  C   UNL     1      45.525   1.485   8.716  0.00  0.00    +0.000 A 
ENDBRANCH  29  30
ENDBRANCH  26  29
ENDBRANCH  23  26
ENDBRANCH  19  20
ENDBRANCH   1  19
TORSDOF 10
ENDMDL
MODEL 7
REMARK VINA RESULT:    -7.499      2.353      3.034
REMARK INTER + INTRA:         -12.987
REMARK INTER:                 -11.613
REMARK INTRA:                  -1.375
REMARK UNBOUND:                -1.324
REMARK  Name = 
REMARK  11 active torsions:
REMARK  status: ('A' for Active; 'I' for Inactive)
REMARK    1  A    between atoms: C_1  and  C_2
REMARK    2  A    between atoms: C_2  and  C_3
REMARK    3  A    between atoms: C_3  and  N_4
REMARK    4  A    between atoms: C_3  and  C_21
REMARK    5  A    between atoms: N_4  and  C_5
REMARK    6  A    between atoms: C_5  and  C_6
REMARK    7  A    between atoms: C_9  and  C_10
REMARK    8  A    between atoms: C_10  and  O_11
REMARK    9  A    between atoms: C_10  and  C_12
REMARK   10  A    between atoms: C_12  and  C_13
REMARK   11  A    between atoms: C_21  and  C_23
REMARK                            x       y       z     vdW  Elec       q    Type
REMARK                         _______ _______ _______ _____ _____    ______ ____
ROOT
ATOM      1  N   UNL     1      48.965   6.263  13.868  0.00  0.00    +0.000 NA
ATOM      2  H   UNL     1      49.777   5.723  14.163  0.00  0.00    +0.000 HD
ENDROOT
BRANCH   1   3
ATOM      3  C   UNL     1      49.281   7.706  13.966  0.00  0.00    +0.000 C 
BRANCH   3   5
ATOM      4  C   UNL     1      49.202   8.023  11.377  0.00  0.00    +0.000 C 
ATOM      5  C   UNL     1      49.907   8.323  12.695  0.00  0.00    +0.000 C 
ENDBRANCH   3   5
BRANCH   3   6
ATOM      6  C   UNL     1      50.140   8.071  15.222  0.00  0.00    +0.000 C 
ATOM      7  O   UNL     1      49.692   8.821  16.087  0.00  0.00    +0.000 OA
BRANCH   6   8
ATOM      8  C   UNL     1      51.513   7.545  15.361  0.00  0.00    +0.000 A 
ATOM      9  C   UNL     1      52.616   8.063  14.692  0.00  0.00    +0.000 A 
ATOM     10  S   UNL     1      54.103   7.447  15.260  0.00  0.00    +0.000 S 
ATOM     11  C   UNL     1      53.320   6.425  16.371  0.00  0.00    +0.000 A 
ATOM     12  N   UNL     1      54.027   5.660  17.242  0.00  0.00    +0.000 NA
ATOM     13  C   UNL     1      53.295   4.925  18.012  0.00  0.00    +0.000 A 
ATOM     14  N   UNL     1      51.925   4.854  17.959  0.00  0.00    +0.000 N 
ATOM     15  C   UNL     1      51.179   5.520  17.008  0.00  0.00    +0.000 A 
ATOM     16  O   UNL     1      50.012   5.215  16.781  0.00  0.00    +0.000 OA
ATOM     17  C   UNL     1      51.946   6.484  16.238  0.00  0.00    +0.000 A 
ATOM     18  H   UNL     1      51.428   4.170  18.509  0.00  0.00    +0.000 HD
ENDBRANCH   6   8
ENDBRANCH   3   6
ENDBRANCH   1   3
BRANCH   1  19
ATOM     19  C   UNL     1      47.790   5.810  14.610  0.00  0.00    +0.000 C 
BRANCH  19  20
ATOM     20  C   UNL     1      46.760   5.210  13.678  0.00  0.00    +0.000 A 
ATOM     21  C   UNL     1      46.009   5.983  12.785  0.00  0.00    +0.000 A 
ATOM     22  C   UNL     1      45.109   5.368  11.913  0.00  0.00    +0.000 A 
ATOM     23  C   UNL     1      44.977   3.984  11.946  0.00  0.00    +0.000 A 
ATOM     24  N   UNL     1      45.712   3.214  12.786  0.00  0.00    +0.000 NA
ATOM     25  C   UNL     1      46.556   3.836  13.640  0.00  0.00    +0.000 A 
BRANCH  23  26
ATOM     26  C   UNL     1      44.078   3.267  10.955  0.00  0.00    +0.000 C 
BRANCH  26  27
ATOM     27  O   UNL     1      42.717   3.494  11.344  0.00  0.00    +0.000 OA
ATOM     28  H   UNL     1      42.627   4.454  11.480  0.00  0.00    +0.000 HD
ENDBRANCH  26  27
BRANCH  26  29
ATOM     29  C   UNL     1      44.308   3.772   9.513  0.00  0.00    +0.000 C 
BRANCH  29  30
ATOM     30  C   UNL     1      45.326   3.033   8.677  0.00  0.00    +0.000 A 
ATOM     31  C   UNL     1      46.074   3.749   7.731  0.00  0.00    +0.000 A 
ATOM     32  C   UNL     1      46.986   3.083   6.922  0.00  0.00    +0.000 A 
ATOM     33  C   UNL     1      47.133   1.718   7.086  0.00  0.00    +0.000 A 
ATOM     34  N   UNL     1      46.444   0.993   7.988  0.00  0.00    +0.000 NA
ATOM     35  C   UNL     1      45.554   1.663   8.755  0.00  0.00    +0.000 A 
ENDBRANCH  29  30
ENDBRANCH  26  29
ENDBRANCH  23  26
ENDBRANCH  19  20
ENDBRANCH   1  19
TORSDOF 10
ENDMDL
MODEL 8
REMARK VINA RESULT:    -7.188      2.639      4.225
REMARK INTER + INTRA:         -12.504
REMARK INTER:                 -11.344
REMARK INTRA:                  -1.159
REMARK UNBOUND:                -1.324
REMARK  Name = 
REMARK  11 active torsions:
REMARK  status: ('A' for Active; 'I' for Inactive)
REMARK    1  A    between atoms: C_1  and  C_2
REMARK    2  A    between atoms: C_2  and  C_3
REMARK    3  A    between atoms: C_3  and  N_4
REMARK    4  A    between atoms: C_3  and  C_21
REMARK    5  A    between atoms: N_4  and  C_5
REMARK    6  A    between atoms: C_5  and  C_6
REMARK    7  A    between atoms: C_9  and  C_10
REMARK    8  A    between atoms: C_10  and  O_11
REMARK    9  A    between atoms: C_10  and  C_12
REMARK   10  A    between atoms: C_12  and  C_13
REMARK   11  A    between atoms: C_21  and  C_23
REMARK                            x       y       z     vdW  Elec       q    Type
REMARK                         _______ _______ _______ _____ _____    ______ ____
ROOT
ATOM      1  N   UNL     1      47.873   5.234  15.752  0.00  0.00    +0.000 NA
ATOM      2  H   UNL     1      46.947   5.305  16.170  0.00  0.00    +0.000 HD
ENDROOT
BRANCH   1   3
ATOM      3  C   UNL     1      48.882   5.712  16.724  0.00  0.00    +0.000 C 
BRANCH   3   5
ATOM      4  C   UNL     1      49.159   3.311  17.709  0.00  0.00    +0.000 C 
ATOM      5  C   UNL     1      49.820   4.616  17.281  0.00  0.00    +0.000 C 
ENDBRANCH   3   5
BRANCH   3   6
ATOM      6  C   UNL     1      48.269   6.545  17.899  0.00  0.00    +0.000 C 
ATOM      7  O   UNL     1      47.459   6.032  18.669  0.00  0.00    +0.000 OA
BRANCH   6   8
ATOM      8  C   UNL     1      48.631   7.966  18.069  0.00  0.00    +0.000 A 
ATOM      9  C   UNL     1      48.170   8.990  17.250  0.00  0.00    +0.000 A 
ATOM     10  S   UNL     1      48.520  10.548  17.852  0.00  0.00    +0.000 S 
ATOM     11  C   UNL     1      49.351   9.906  19.190  0.00  0.00    +0.000 A 
ATOM     12  N   UNL     1      49.852  10.713  20.160  0.00  0.00    +0.000 NA
ATOM     13  C   UNL     1      50.471  10.083  21.103  0.00  0.00    +0.000 A 
ATOM     14  N   UNL     1      50.671   8.725  21.139  0.00  0.00    +0.000 N 
ATOM     15  C   UNL     1      50.287   7.886  20.113  0.00  0.00    +0.000 A 
ATOM     16  O   UNL     1      50.735   6.748  20.016  0.00  0.00    +0.000 OA
ATOM     17  C   UNL     1      49.443   8.530  19.121  0.00  0.00    +0.000 A 
ATOM     18  H   UNL     1      51.266   8.316  21.844  0.00  0.00    +0.000 HD
ENDBRANCH   6   8
ENDBRANCH   3   6
ENDBRANCH   1   3
BRANCH   1  19
ATOM     19  C   UNL     1      47.867   5.901  14.451  0.00  0.00    +0.000 C 
BRANCH  19  20
ATOM     20  C   UNL     1      46.824   5.294  13.538  0.00  0.00    +0.000 A 
ATOM     21  C   UNL     1      46.228   6.009  12.492  0.00  0.00    +0.000 A 
ATOM     22  C   UNL     1      45.309   5.381  11.650  0.00  0.00    +0.000 A 
ATOM     23  C   UNL     1      45.003   4.042  11.865  0.00  0.00    +0.000 A 
ATOM     24  N   UNL     1      45.588   3.323  12.856  0.00  0.00    +0.000 NA
ATOM     25  C   UNL     1      46.452   3.962  13.675  0.00  0.00    +0.000 A 
BRANCH  23  26
ATOM     26  C   UNL     1      44.079   3.296  10.918  0.00  0.00    +0.000 C 
BRANCH  26  27
ATOM     27  O   UNL     1      42.728   3.545  11.328  0.00  0.00    +0.000 OA
ATOM     28  H   UNL     1      42.667   4.501  11.505  0.00  0.00    +0.000 HD
ENDBRANCH  26  27
BRANCH  26  29
ATOM     29  C   UNL     1      44.281   3.749   9.455  0.00  0.00    +0.000 C 
BRANCH  29  30
ATOM     30  C   UNL     1      45.330   3.024   8.647  0.00  0.00    +0.000 A 
ATOM     31  C   UNL     1      46.048   3.735   7.673  0.00  0.00    +0.000 A 
ATOM     32  C   UNL     1      46.989   3.079   6.890  0.00  0.00    +0.000 A 
ATOM     33  C   UNL     1      47.195   1.729   7.105  0.00  0.00    +0.000 A 
ATOM     34  N   UNL     1      46.536   1.009   8.035  0.00  0.00    +0.000 NA
ATOM     35  C   UNL     1      45.618   1.668   8.777  0.00  0.00    +0.000 A 
ENDBRANCH  29  30
ENDBRANCH  26  29
ENDBRANCH  23  26
ENDBRANCH  19  20
ENDBRANCH   1  19
TORSDOF 10
ENDMDL
MODEL 9
REMARK VINA RESULT:    -6.859      2.898      4.097
REMARK INTER + INTRA:         -11.992
REMARK INTER:                 -10.839
REMARK INTRA:                  -1.153
REMARK UNBOUND:                -1.324
REMARK  Name = 
REMARK  11 active torsions:
REMARK  status: ('A' for Active; 'I' for Inactive)
REMARK    1  A    between atoms: C_1  and  C_2
REMARK    2  A    between atoms: C_2  and  C_3
REMARK    3  A    between atoms: C_3  and  N_4
REMARK    4  A    between atoms: C_3  and  C_21
REMARK    5  A    between atoms: N_4  and  C_5
REMARK    6  A    between atoms: C_5  and  C_6
REMARK    7  A    between atoms: C_9  and  C_10
REMARK    8  A    between atoms: C_10  and  O_11
REMARK    9  A    between atoms: C_10  and  C_12
REMARK   10  A    between atoms: C_12  and  C_13
REMARK   11  A    between atoms: C_21  and  C_23
REMARK                            x       y       z     vdW  Elec       q    Type
REMARK                         _______ _______ _______ _____ _____    ______ ____
ROOT
ATOM      1  N   UNL     1      47.987   5.360  15.607  0.00  0.00    +0.000 NA
ATOM      2  H   UNL     1      47.070   5.418  16.046  0.00  0.00    +0.000 HD
ENDROOT
BRANCH   1   3
ATOM      3  C   UNL     1      49.009   5.866  16.552  0.00  0.00    +0.000 C 
BRANCH   3   5
ATOM      4  C   UNL     1      47.354   5.310  18.490  0.00  0.00    +0.000 C 
ATOM      5  C   UNL     1      48.799   5.448  18.024  0.00  0.00    +0.000 C 
ENDBRANCH   3   5
BRANCH   3   6
ATOM      6  C   UNL     1      49.233   7.412  16.456  0.00  0.00    +0.000 C 
ATOM      7  O   UNL     1      48.315   8.191  16.708  0.00  0.00    +0.000 OA
BRANCH   6   8
ATOM      8  C   UNL     1      50.540   7.948  16.027  0.00  0.00    +0.000 A 
ATOM      9  C   UNL     1      51.041   7.836  14.735  0.00  0.00    +0.000 A 
ATOM     10  S   UNL     1      52.430   8.789  14.463  0.00  0.00    +0.000 S 
ATOM     11  C   UNL     1      52.443   9.332  16.075  0.00  0.00    +0.000 A 
ATOM     12  N   UNL     1      53.350  10.249  16.500  0.00  0.00    +0.000 NA
ATOM     13  C   UNL     1      53.246  10.551  17.752  0.00  0.00    +0.000 A 
ATOM     14  N   UNL     1      52.346   9.987  18.623  0.00  0.00    +0.000 N 
ATOM     15  C   UNL     1      51.494   8.965  18.259  0.00  0.00    +0.000 A 
ATOM     16  O   UNL     1      50.927   8.275  19.100  0.00  0.00    +0.000 OA
ATOM     17  C   UNL     1      51.463   8.717  16.828  0.00  0.00    +0.000 A 
ATOM     18  H   UNL     1      52.402  10.184  19.612  0.00  0.00    +0.000 HD
ENDBRANCH   6   8
ENDBRANCH   3   6
ENDBRANCH   1   3
BRANCH   1  19
ATOM     19  C   UNL     1      47.938   6.015  14.301  0.00  0.00    +0.000 C 
BRANCH  19  20
ATOM     20  C   UNL     1      46.884   5.382  13.419  0.00  0.00    +0.000 A 
ATOM     21  C   UNL     1      46.311   6.049  12.329  0.00  0.00    +0.000 A 
ATOM     22  C   UNL     1      45.380   5.396  11.520  0.00  0.00    +0.000 A 
ATOM     23  C   UNL     1      45.039   4.080  11.812  0.00  0.00    +0.000 A 
ATOM     24  N   UNL     1      45.599   3.407  12.847  0.00  0.00    +0.000 NA
ATOM     25  C   UNL     1      46.477   4.070  13.632  0.00  0.00    +0.000 A 
BRANCH  23  26
ATOM     26  C   UNL     1      44.099   3.303  10.906  0.00  0.00    +0.000 C 
BRANCH  26  27
ATOM     27  O   UNL     1      42.756   3.555  11.337  0.00  0.00    +0.000 OA
ATOM     28  H   UNL     1      42.692   4.515  11.489  0.00  0.00    +0.000 HD
ENDBRANCH  26  27
BRANCH  26  29
ATOM     29  C   UNL     1      44.268   3.717   9.427  0.00  0.00    +0.000 C 
BRANCH  29  30
ATOM     30  C   UNL     1      45.345   3.018   8.633  0.00  0.00    +0.000 A 
ATOM     31  C   UNL     1      46.101   3.762   7.715  0.00  0.00    +0.000 A 
ATOM     32  C   UNL     1      47.070   3.131   6.944  0.00  0.00    +0.000 A 
ATOM     33  C   UNL     1      47.263   1.773   7.117  0.00  0.00    +0.000 A 
ATOM     34  N   UNL     1      46.567   1.022   7.992  0.00  0.00    +0.000 NA
ATOM     35  C   UNL     1      45.623   1.658   8.723  0.00  0.00    +0.000 A 
ENDBRANCH  29  30
ENDBRANCH  26  29
ENDBRANCH  23  26
ENDBRANCH  19  20
ENDBRANCH   1  19
TORSDOF 10
ENDMDL
