MODEL 1
REMARK VINA RESULT:    -8.455      0.000      0.000
REMARK INTER + INTRA:         -12.320
REMARK INTER:                 -11.421
REMARK INTRA:                  -0.899
REMARK UNBOUND:                -0.899
REMARK  Name = 
REMARK  7 active torsions:
REMARK  status: ('A' for Active; 'I' for Inactive)
REMARK    1  A    between atoms: C_1  and  C_2
REMARK    2  A    between atoms: C_2  and  N_3
REMARK    3  A    between atoms: C_2  and  C_11
REMARK    4  A    between atoms: C_4  and  C_6
REMARK    5  A    between atoms: C_14  and  C_15
REMARK    6  A    between atoms: C_15  and  N_16
REMARK    7  A    between atoms: C_17  and  C_19
REMARK                            x       y       z     vdW  Elec       q    Type
REMARK                         _______ _______ _______ _____ _____    ______ ____
ROOT
ATOM      1  C   UNL     1      45.210   4.736  11.690  0.00  0.00    +0.000 A 
ATOM      2  C   UNL     1      45.884   4.327  12.852  0.00  0.00    +0.000 A 
ATOM      3  C   UNL     1      46.775   5.183  13.507  0.00  0.00    +0.000 A 
ATOM      4  C   UNL     1      47.000   6.478  13.025  0.00  0.00    +0.000 A 
ATOM      5  C   UNL     1      46.320   6.895  11.875  0.00  0.00    +0.000 A 
ATOM      6  C   UNL     1      45.425   6.041  11.225  0.00  0.00    +0.000 A 
ENDROOT
BRANCH   1   8
ATOM      7  C   UNL     1      43.428   2.930  11.985  0.00  0.00    +0.000 C 
ATOM      8  C   UNL     1      44.255   3.769  11.006  0.00  0.00    +0.000 C 
BRANCH   8   9
ATOM      9  N   UNL     1      45.000   2.931  10.082  0.00  0.00    +0.000 N 
ATOM     10  C   UNL     1      45.262   3.316   8.790  0.00  0.00    +0.000 C 
ATOM     11  O   UNL     1      44.843   4.366   8.311  0.00  0.00    +0.000 OA
ATOM     12  H   UNL     1      45.324   2.037  10.414  0.00  0.00    +0.000 HD
BRANCH  10  13
ATOM     13  C   UNL     1      46.076   2.404   8.028  0.00  0.00    +0.000 A 
ATOM     14  C   UNL     1      46.939   2.558   6.959  0.00  0.00    +0.000 A 
ATOM     15  C   UNL     1      47.412   1.261   6.676  0.00  0.00    +0.000 A 
ATOM     16  N   UNL     1      46.895   0.347   7.494  0.00  0.00    +0.000 NA
ATOM     17  N   UNL     1      46.083   1.058   8.294  0.00  0.00    +0.000 N 
ATOM     18  H   UNL     1      45.548   0.577   9.011  0.00  0.00    +0.000 HD
ENDBRANCH  10  13
ENDBRANCH   8   9
ENDBRANCH   1   8
BRANCH   4  19
ATOM     19  C   UNL     1      48.007   7.386  13.682  0.00  0.00    +0.000 C 
BRANCH  19  20
ATOM     20  N   UNL     1      47.900   7.303  15.117  0.00  0.00    +0.000 N 
ATOM     21  C   UNL     1      48.948   6.884  15.892  0.00  0.00    +0.000 C 
ATOM     22  O   UNL     1      50.040   6.593  15.409  0.00  0.00    +0.000 OA
ATOM     23  H   UNL     1      46.964   7.324  15.509  0.00  0.00    +0.000 HD
BRANCH  21  24
ATOM     24  C   UNL     1      48.720   6.863  17.343  0.00  0.00    +0.000 A 
ATOM     25  C   UNL     1      48.435   8.048  18.010  0.00  0.00    +0.000 A 
ATOM     26  S   UNL     1      48.136   7.840  19.676  0.00  0.00    +0.000 S 
ATOM     27  C   UNL     1      48.426   6.167  19.576  0.00  0.00    +0.000 A 
ATOM     28  N   UNL     1      48.351   5.377  20.680  0.00  0.00    +0.000 NA
ATOM     29  C   UNL     1      48.622   4.133  20.468  0.00  0.00    +0.000 A 
ATOM     30  N   UNL     1      48.961   3.606  19.247  0.00  0.00    +0.000 N 
ATOM     31  C   UNL     1      49.024   4.360  18.099  0.00  0.00    +0.000 A 
ATOM     32  O   UNL     1      49.294   3.848  17.016  0.00  0.00    +0.000 OA
ATOM     33  C   UNL     1      48.734   5.768  18.286  0.00  0.00    +0.000 A 
ATOM     34  H   UNL     1      49.156   2.621  19.146  0.00  0.00    +0.000 HD
ENDBRANCH  21  24
ENDBRANCH  19  20
ENDBRANCH   4  19
TORSDOF 6
ENDMDL
MODEL 2
REMARK VINA RESULT:    -8.246      1.323      2.018
REMARK INTER + INTRA:         -12.038
REMARK INTER:                 -10.939
REMARK INTRA:                  -1.098
REMARK UNBOUND:                -0.899
REMARK  Name = 
REMARK  7 active torsions:
REMARK  status: ('A' for Active; 'I' for Inactive)
REMARK    1  A    between atoms: C_1  and  C_2
REMARK    2  A    between atoms: C_2  and  N_3
REMARK    3  A    between atoms: C_2  and  C_11
REMARK    4  A    between atoms: C_4  and  C_6
REMARK    5  A    between atoms: C_14  and  C_15
REMARK    6  A    between atoms: C_15  and  N_16
REMARK    7  A    between atoms: C_17  and  C_19
REMARK                            x       y       z     vdW  Elec       q    Type
REMARK                         _______ _______ _______ _____ _____    ______ ____
ROOT
ATOM      1  C   UNL     1      45.254   4.828  11.597  0.00  0.00    +0.000 A 
ATOM      2  C   UNL     1      45.665   4.506  12.901  0.00  0.00    +0.000 A 
ATOM      3  C   UNL     1      46.503   5.363  13.623  0.00  0.00    +0.000 A 
ATOM      4  C   UNL     1      46.935   6.572  13.065  0.00  0.00    +0.000 A 
ATOM      5  C   UNL     1      46.516   6.903  11.771  0.00  0.00    +0.000 A 
ATOM      6  C   UNL     1      45.675   6.050  11.052  0.00  0.00    +0.000 A 
ENDROOT
BRANCH   1   8
ATOM      7  C   UNL     1      43.484   2.993  11.763  0.00  0.00    +0.000 C 
ATOM      8  C   UNL     1      44.349   3.864  10.846  0.00  0.00    +0.000 C 
BRANCH   8   9
ATOM      9  N   UNL     1      45.152   3.055   9.944  0.00  0.00    +0.000 N 
ATOM     10  C   UNL     1      45.253   3.331   8.603  0.00  0.00    +0.000 C 
ATOM     11  O   UNL     1      44.636   4.246   8.065  0.00  0.00    +0.000 OA
ATOM     12  H   UNL     1      45.640   2.263  10.330  0.00  0.00    +0.000 HD
BRANCH  10  13
ATOM     13  C   UNL     1      46.148   2.478   7.863  0.00  0.00    +0.000 A 
ATOM     14  C   UNL     1      47.070   2.703   6.859  0.00  0.00    +0.000 A 
ATOM     15  C   UNL     1      47.608   1.435   6.561  0.00  0.00    +0.000 A 
ATOM     16  N   UNL     1      47.075   0.473   7.310  0.00  0.00    +0.000 NA
ATOM     17  N   UNL     1      46.187   1.125   8.080  0.00  0.00    +0.000 N 
ATOM     18  H   UNL     1      45.627   0.598   8.743  0.00  0.00    +0.000 HD
ENDBRANCH  10  13
ENDBRANCH   8   9
ENDBRANCH   1   8
BRANCH   4  19
ATOM     19  C   UNL     1      47.891   7.470  13.806  0.00  0.00    +0.000 C 
BRANCH  19  20
ATOM     20  N   UNL     1      47.939   7.114  15.202  0.00  0.00    +0.000 N 
ATOM     21  C   UNL     1      49.101   6.701  15.798  0.00  0.00    +0.000 C 
ATOM     22  O   UNL     1      50.164   6.650  15.184  0.00  0.00    +0.000 OA
ATOM     23  H   UNL     1      47.051   6.940  15.661  0.00  0.00    +0.000 HD
BRANCH  21  24
ATOM     24  C   UNL     1      49.024   6.386  17.230  0.00  0.00    +0.000 A 
ATOM     25  C   UNL     1      49.475   5.154  17.686  0.00  0.00    +0.000 A 
ATOM     26  S   UNL     1      49.373   4.973  19.379  0.00  0.00    +0.000 S 
ATOM     27  C   UNL     1      48.676   6.514  19.557  0.00  0.00    +0.000 A 
ATOM     28  N   UNL     1      48.319   6.982  20.783  0.00  0.00    +0.000 NA
ATOM     29  C   UNL     1      47.775   8.152  20.772  0.00  0.00    +0.000 A 
ATOM     30  N   UNL     1      47.557   8.900  19.642  0.00  0.00    +0.000 N 
ATOM     31  C   UNL     1      47.924   8.480  18.386  0.00  0.00    +0.000 A 
ATOM     32  O   UNL     1      47.748   9.191  17.400  0.00  0.00    +0.000 OA
ATOM     33  C   UNL     1      48.534   7.165  18.344  0.00  0.00    +0.000 A 
ATOM     34  H   UNL     1      47.132   9.813  19.702  0.00  0.00    +0.000 HD
ENDBRANCH  21  24
ENDBRANCH  19  20
ENDBRANCH   4  19
TORSDOF 6
ENDMDL
MODEL 3
REMARK VINA RESULT:    -7.985      1.835      2.093
REMARK INTER + INTRA:         -11.685
REMARK INTER:                 -10.539
REMARK INTRA:                  -1.145
REMARK UNBOUND:                -0.899
REMARK  Name = 
REMARK  7 active torsions:
REMARK  status: ('A' for Active; 'I' for Inactive)
REMARK    1  A    between atoms: C_1  and  C_2
REMARK    2  A    between atoms: C_2  and  N_3
REMARK    3  A    between atoms: C_2  and  C_11
REMARK    4  A    between atoms: C_4  and  C_6
REMARK    5  A    between atoms: C_14  and  C_15
REMARK    6  A    between atoms: C_15  and  N_16
REMARK    7  A    between atoms: C_17  and  C_19
REMARK                            x       y       z     vdW  Elec       q    Type
REMARK                         _______ _______ _______ _____ _____    ______ ____
ROOT
ATOM      1  C   UNL     1      45.033   4.818  11.636  0.00  0.00    +0.000 A 
ATOM      2  C   UNL     1      45.594   4.567  12.899  0.00  0.00    +0.000 A 
ATOM      3  C   UNL     1      46.357   5.540  13.555  0.00  0.00    +0.000 A 
ATOM      4  C   UNL     1      46.562   6.795  12.970  0.00  0.00    +0.000 A 
ATOM      5  C   UNL     1      45.993   7.054  11.717  0.00  0.00    +0.000 A 
ATOM      6  C   UNL     1      45.226   6.085  11.066  0.00  0.00    +0.000 A 
ENDROOT
BRANCH   1   8
ATOM      7  C   UNL     1      43.480   2.813  11.939  0.00  0.00    +0.000 C 
ATOM      8  C   UNL     1      44.217   3.729  10.957  0.00  0.00    +0.000 C 
BRANCH   8   9
ATOM      9  N   UNL     1      45.076   2.972  10.063  0.00  0.00    +0.000 N 
ATOM     10  C   UNL     1      45.096   3.186   8.707  0.00  0.00    +0.000 C 
ATOM     11  O   UNL     1      44.355   3.993   8.151  0.00  0.00    +0.000 OA
ATOM     12  H   UNL     1      45.669   2.264  10.466  0.00  0.00    +0.000 HD
BRANCH  10  13
ATOM     13  C   UNL     1      46.057   2.404   7.972  0.00  0.00    +0.000 A 
ATOM     14  C   UNL     1      47.005   2.710   7.014  0.00  0.00    +0.000 A 
ATOM     15  C   UNL     1      47.614   1.481   6.692  0.00  0.00    +0.000 A 
ATOM     16  N   UNL     1      47.100   0.466   7.383  0.00  0.00    +0.000 NA
ATOM     17  N   UNL     1      46.153   1.046   8.141  0.00  0.00    +0.000 N 
ATOM     18  H   UNL     1      45.593   0.469   8.762  0.00  0.00    +0.000 HD
ENDBRANCH  10  13
ENDBRANCH   8   9
ENDBRANCH   1   8
BRANCH   4  19
ATOM     19  C   UNL     1      47.436   7.827  13.634  0.00  0.00    +0.000 C 
BRANCH  19  20
ATOM     20  N   UNL     1      48.539   7.193  14.312  0.00  0.00    +0.000 N 
ATOM     21  C   UNL     1      49.363   7.893  15.152  0.00  0.00    +0.000 C 
ATOM     22  O   UNL     1      49.182   9.083  15.398  0.00  0.00    +0.000 OA
ATOM     23  H   UNL     1      48.834   6.288  13.959  0.00  0.00    +0.000 HD
BRANCH  21  24
ATOM     24  C   UNL     1      50.438   7.129  15.797  0.00  0.00    +0.000 A 
ATOM     25  C   UNL     1      51.754   7.557  15.672  0.00  0.00    +0.000 A 
ATOM     26  S   UNL     1      52.870   6.595  16.531  0.00  0.00    +0.000 S 
ATOM     27  C   UNL     1      51.642   5.544  17.060  0.00  0.00    +0.000 A 
ATOM     28  N   UNL     1      51.931   4.467  17.839  0.00  0.00    +0.000 NA
ATOM     29  C   UNL     1      50.911   3.738  18.144  0.00  0.00    +0.000 A 
ATOM     30  N   UNL     1      49.623   3.990  17.740  0.00  0.00    +0.000 N 
ATOM     31  C   UNL     1      49.280   5.078  16.974  0.00  0.00    +0.000 A 
ATOM     32  O   UNL     1      48.112   5.294  16.662  0.00  0.00    +0.000 OA
ATOM     33  C   UNL     1      50.394   5.927  16.599  0.00  0.00    +0.000 A 
ATOM     34  H   UNL     1      48.867   3.383  18.018  0.00  0.00    +0.000 HD
ENDBRANCH  21  24
ENDBRANCH  19  20
ENDBRANCH   4  19
TORSDOF 6
ENDMDL
MODEL 4
REMARK VINA RESULT:    -7.447      4.699      9.275
REMARK INTER + INTRA:         -10.958
REMARK INTER:                  -9.994
REMARK INTRA:                  -0.964
REMARK UNBOUND:                -0.899
REMARK  Name = 
REMARK  7 active torsions:
REMARK  status: ('A' for Active; 'I' for Inactive)
REMARK    1  A    between atoms: C_1  and  C_2
REMARK    2  A    between atoms: C_2  and  N_3
REMARK    3  A    between atoms: C_2  and  C_11
REMARK    4  A    between atoms: C_4  and  C_6
REMARK    5  A    between atoms: C_14  and  C_15
REMARK    6  A    between atoms: C_15  and  N_16
REMARK    7  A    between atoms: C_17  and  C_19
REMARK                            x       y       z     vdW  Elec       q    Type
REMARK                         _______ _______ _______ _____ _____    ______ ____
ROOT
ATOM      1  C   UNL     1      51.371   3.108  17.799  0.00  0.00    +0.000 A 
ATOM      2  C   UNL     1      50.617   4.226  18.189  0.00  0.00    +0.000 A 
ATOM      3  C   UNL     1      49.246   4.302  17.916  0.00  0.00    +0.000 A 
ATOM      4  C   UNL     1      48.594   3.251  17.262  0.00  0.00    +0.000 A 
ATOM      5  C   UNL     1      49.339   2.128  16.884  0.00  0.00    +0.000 A 
ATOM      6  C   UNL     1      50.706   2.050  17.162  0.00  0.00    +0.000 A 
ENDROOT
BRANCH   1   8
ATOM      7  C   UNL     1      53.593   4.369  17.754  0.00  0.00    +0.000 C 
ATOM      8  C   UNL     1      52.859   3.072  18.110  0.00  0.00    +0.000 C 
BRANCH   8   9
ATOM      9  N   UNL     1      53.459   1.923  17.453  0.00  0.00    +0.000 N 
ATOM     10  C   UNL     1      54.197   0.988  18.137  0.00  0.00    +0.000 C 
ATOM     11  O   UNL     1      54.443   1.084  19.337  0.00  0.00    +0.000 OA
ATOM     12  H   UNL     1      53.326   1.825  16.459  0.00  0.00    +0.000 HD
BRANCH  10  13
ATOM     13  C   UNL     1      54.658  -0.129  17.352  0.00  0.00    +0.000 A 
ATOM     14  C   UNL     1      55.451  -0.242  16.226  0.00  0.00    +0.000 A 
ATOM     15  C   UNL     1      55.509  -1.623  15.953  0.00  0.00    +0.000 A 
ATOM     16  N   UNL     1      54.810  -2.341  16.830  0.00  0.00    +0.000 NA
ATOM     17  N   UNL     1      54.295  -1.416  17.658  0.00  0.00    +0.000 N 
ATOM     18  H   UNL     1      53.697  -1.714  18.423  0.00  0.00    +0.000 HD
ENDBRANCH  10  13
ENDBRANCH   8   9
ENDBRANCH   1   8
BRANCH   4  19
ATOM     19  C   UNL     1      47.134   3.348  16.903  0.00  0.00    +0.000 C 
BRANCH  19  20
ATOM     20  N   UNL     1      46.921   4.397  15.938  0.00  0.00    +0.000 N 
ATOM     21  C   UNL     1      47.051   4.174  14.593  0.00  0.00    +0.000 C 
ATOM     22  O   UNL     1      47.319   3.063  14.141  0.00  0.00    +0.000 OA
ATOM     23  H   UNL     1      46.918   5.350  16.289  0.00  0.00    +0.000 HD
BRANCH  21  24
ATOM     24  C   UNL     1      46.788   5.319  13.712  0.00  0.00    +0.000 A 
ATOM     25  C   UNL     1      47.797   6.240  13.465  0.00  0.00    +0.000 A 
ATOM     26  S   UNL     1      47.347   7.472  12.374  0.00  0.00    +0.000 S 
ATOM     27  C   UNL     1      45.772   6.847  12.233  0.00  0.00    +0.000 A 
ATOM     28  N   UNL     1      44.846   7.456  11.445  0.00  0.00    +0.000 NA
ATOM     29  C   UNL     1      43.684   6.894  11.451  0.00  0.00    +0.000 A 
ATOM     30  N   UNL     1      43.364   5.773  12.175  0.00  0.00    +0.000 N 
ATOM     31  C   UNL     1      44.272   5.109  12.964  0.00  0.00    +0.000 A 
ATOM     32  O   UNL     1      43.962   4.086  13.569  0.00  0.00    +0.000 OA
ATOM     33  C   UNL     1      45.593   5.705  12.996  0.00  0.00    +0.000 A 
ATOM     34  H   UNL     1      42.436   5.378  12.132  0.00  0.00    +0.000 HD
ENDBRANCH  21  24
ENDBRANCH  19  20
ENDBRANCH   4  19
TORSDOF 6
ENDMDL
MODEL 5
REMARK VINA RESULT:    -7.226      3.427      5.304
REMARK INTER + INTRA:         -10.659
REMARK INTER:                  -9.472
REMARK INTRA:                  -1.187
REMARK UNBOUND:                -0.899
REMARK  Name = 
REMARK  7 active torsions:
REMARK  status: ('A' for Active; 'I' for Inactive)
REMARK    1  A    between atoms: C_1  and  C_2
REMARK    2  A    between atoms: C_2  and  N_3
REMARK    3  A    between atoms: C_2  and  C_11
REMARK    4  A    between atoms: C_4  and  C_6
REMARK    5  A    between atoms: C_14  and  C_15
REMARK    6  A    between atoms: C_15  and  N_16
REMARK    7  A    between atoms: C_17  and  C_19
REMARK                            x       y       z     vdW  Elec       q    Type
REMARK                         _______ _______ _______ _____ _____    ______ ____
ROOT
ATOM      1  C   UNL     1      45.403   5.092  11.505  0.00  0.00    +0.000 A 
ATOM      2  C   UNL     1      45.663   4.396  12.697  0.00  0.00    +0.000 A 
ATOM      3  C   UNL     1      46.576   4.890  13.635  0.00  0.00    +0.000 A 
ATOM      4  C   UNL     1      47.237   6.103  13.411  0.00  0.00    +0.000 A 
ATOM      5  C   UNL     1      46.970   6.808  12.231  0.00  0.00    +0.000 A 
ATOM      6  C   UNL     1      46.054   6.316  11.298  0.00  0.00    +0.000 A 
ENDROOT
BRANCH   1   8
ATOM      7  C   UNL     1      43.102   4.039  11.155  0.00  0.00    +0.000 C 
ATOM      8  C   UNL     1      44.408   4.514  10.510  0.00  0.00    +0.000 C 
BRANCH   8   9
ATOM      9  N   UNL     1      45.047   3.450   9.755  0.00  0.00    +0.000 N 
ATOM     10  C   UNL     1      45.682   3.678   8.558  0.00  0.00    +0.000 C 
ATOM     11  O   UNL     1      45.709   4.782   8.021  0.00  0.00    +0.000 OA
ATOM     12  H   UNL     1      45.010   2.517  10.132  0.00  0.00    +0.000 HD
BRANCH  10  13
ATOM     13  C   UNL     1      46.329   2.531   7.975  0.00  0.00    +0.000 A 
ATOM     14  C   UNL     1      46.122   1.167   8.067  0.00  0.00    +0.000 A 
ATOM     15  C   UNL     1      47.114   0.588   7.252  0.00  0.00    +0.000 A 
ATOM     16  N   UNL     1      47.897   1.501   6.683  0.00  0.00    +0.000 NA
ATOM     17  N   UNL     1      47.411   2.667   7.144  0.00  0.00    +0.000 N 
ATOM     18  H   UNL     1      47.857   3.535   6.861  0.00  0.00    +0.000 HD
ENDBRANCH  10  13
ENDBRANCH   8   9
ENDBRANCH   1   8
BRANCH   4  19
ATOM     19  C   UNL     1      48.271   6.613  14.381  0.00  0.00    +0.000 C 
BRANCH  19  20
ATOM     20  N   UNL     1      49.021   7.696  13.796  0.00  0.00    +0.000 N 
ATOM     21  C   UNL     1      50.251   8.060  14.277  0.00  0.00    +0.000 C 
ATOM     22  O   UNL     1      50.791   7.460  15.203  0.00  0.00    +0.000 OA
ATOM     23  H   UNL     1      48.512   8.332  13.191  0.00  0.00    +0.000 HD
BRANCH  21  24
ATOM     24  C   UNL     1      50.922   9.166  13.582  0.00  0.00    +0.000 A 
ATOM     25  C   UNL     1      51.151  10.360  14.254  0.00  0.00    +0.000 A 
ATOM     26  S   UNL     1      51.994  11.516  13.327  0.00  0.00    +0.000 S 
ATOM     27  C   UNL     1      52.040  10.481  11.978  0.00  0.00    +0.000 A 
ATOM     28  N   UNL     1      52.620  10.876  10.813  0.00  0.00    +0.000 NA
ATOM     29  C   UNL     1      52.560  10.006   9.862  0.00  0.00    +0.000 A 
ATOM     30  N   UNL     1      51.971   8.770   9.972  0.00  0.00    +0.000 N 
ATOM     31  C   UNL     1      51.396   8.318  11.135  0.00  0.00    +0.000 A 
ATOM     32  O   UNL     1      50.912   7.192  11.210  0.00  0.00    +0.000 OA
ATOM     33  C   UNL     1      51.432   9.264  12.233  0.00  0.00    +0.000 A 
ATOM     34  H   UNL     1      51.963   8.132   9.191  0.00  0.00    +0.000 HD
ENDBRANCH  21  24
ENDBRANCH  19  20
ENDBRANCH   4  19
TORSDOF 6
ENDMDL
MODEL 6
REMARK VINA RESULT:    -7.098      2.677      3.335
REMARK INTER + INTRA:         -10.487
REMARK INTER:                  -9.558
REMARK INTRA:                  -0.928
REMARK UNBOUND:                -0.899
REMARK  Name = 
REMARK  7 active torsions:
REMARK  status: ('A' for Active; 'I' for Inactive)
REMARK    1  A    between atoms: C_1  and  C_2
REMARK    2  A    between atoms: C_2  and  N_3
REMARK    3  A    between atoms: C_2  and  C_11
REMARK    4  A    between atoms: C_4  and  C_6
REMARK    5  A    between atoms: C_14  and  C_15
REMARK    6  A    between atoms: C_15  and  N_16
REMARK    7  A    between atoms: C_17  and  C_19
REMARK                            x       y       z     vdW  Elec       q    Type
REMARK                         _______ _______ _______ _____ _____    ______ ____
ROOT
ATOM      1  C   UNL     1      44.713   4.963  11.605  0.00  0.00    +0.000 A 
ATOM      2  C   UNL     1      45.616   4.722  12.653  0.00  0.00    +0.000 A 
ATOM      3  C   UNL     1      46.272   5.778  13.296  0.00  0.00    +0.000 A 
ATOM      4  C   UNL     1      46.025   7.102  12.918  0.00  0.00    +0.000 A 
ATOM      5  C   UNL     1      45.114   7.348  11.883  0.00  0.00    +0.000 A 
ATOM      6  C   UNL     1      44.455   6.293  11.246  0.00  0.00    +0.000 A 
ENDROOT
BRANCH   1   8
ATOM      7  C   UNL     1      43.375   2.808  11.914  0.00  0.00    +0.000 C 
ATOM      8  C   UNL     1      44.028   3.784  10.930  0.00  0.00    +0.000 C 
BRANCH   8   9
ATOM      9  N   UNL     1      44.978   3.110  10.062  0.00  0.00    +0.000 N 
ATOM     10  C   UNL     1      45.036   3.349   8.711  0.00  0.00    +0.000 C 
ATOM     11  O   UNL     1      44.260   4.108   8.137  0.00  0.00    +0.000 OA
ATOM     12  H   UNL     1      45.606   2.441  10.479  0.00  0.00    +0.000 HD
BRANCH  10  13
ATOM     13  C   UNL     1      46.084   2.655   8.006  0.00  0.00    +0.000 A 
ATOM     14  C   UNL     1      46.458   1.328   7.916  0.00  0.00    +0.000 A 
ATOM     15  C   UNL     1      47.581   1.318   7.066  0.00  0.00    +0.000 A 
ATOM     16  N   UNL     1      47.906   2.537   6.644  0.00  0.00    +0.000 NA
ATOM     17  N   UNL     1      46.994   3.330   7.234  0.00  0.00    +0.000 N 
ATOM     18  H   UNL     1      47.037   4.333   7.079  0.00  0.00    +0.000 HD
ENDBRANCH  10  13
ENDBRANCH   8   9
ENDBRANCH   1   8
BRANCH   4  19
ATOM     19  C   UNL     1      46.773   8.244  13.556  0.00  0.00    +0.000 C 
BRANCH  19  20
ATOM     20  N   UNL     1      47.861   7.747  14.359  0.00  0.00    +0.000 N 
ATOM     21  C   UNL     1      48.714   8.593  15.016  0.00  0.00    +0.000 C 
ATOM     22  O   UNL     1      48.572   9.814  14.984  0.00  0.00    +0.000 OA
ATOM     23  H   UNL     1      48.126   6.776  14.223  0.00  0.00    +0.000 HD
BRANCH  21  24
ATOM     24  C   UNL     1      49.770   7.963  15.819  0.00  0.00    +0.000 A 
ATOM     25  C   UNL     1      49.486   7.527  17.106  0.00  0.00    +0.000 A 
ATOM     26  S   UNL     1      50.803   6.764  17.876  0.00  0.00    +0.000 S 
ATOM     27  C   UNL     1      51.814   7.035  16.536  0.00  0.00    +0.000 A 
ATOM     28  N   UNL     1      53.114   6.634  16.549  0.00  0.00    +0.000 NA
ATOM     29  C   UNL     1      53.775   6.927  15.480  0.00  0.00    +0.000 A 
ATOM     30  N   UNL     1      53.253   7.587  14.396  0.00  0.00    +0.000 N 
ATOM     31  C   UNL     1      51.940   7.988  14.327  0.00  0.00    +0.000 A 
ATOM     32  O   UNL     1      51.495   8.543  13.326  0.00  0.00    +0.000 OA
ATOM     33  C   UNL     1      51.155   7.687  15.508  0.00  0.00    +0.000 A 
ATOM     34  H   UNL     1      53.823   7.781  13.586  0.00  0.00    +0.000 HD
ENDBRANCH  21  24
ENDBRANCH  19  20
ENDBRANCH   4  19
TORSDOF 6
ENDMDL
MODEL 7
REMARK VINA RESULT:    -7.063      3.559      8.683
REMARK INTER + INTRA:         -10.439
REMARK INTER:                  -9.531
REMARK INTRA:                  -0.908
REMARK UNBOUND:                -0.899
REMARK  Name = 
REMARK  7 active torsions:
REMARK  status: ('A' for Active; 'I' for Inactive)
REMARK    1  A    between atoms: C_1  and  C_2
REMARK    2  A    between atoms: C_2  and  N_3
REMARK    3  A    between atoms: C_2  and  C_11
REMARK    4  A    between atoms: C_4  and  C_6
REMARK    5  A    between atoms: C_14  and  C_15
REMARK    6  A    between atoms: C_15  and  N_16
REMARK    7  A    between atoms: C_17  and  C_19
REMARK                            x       y       z     vdW  Elec       q    Type
REMARK                         _______ _______ _______ _____ _____    ______ ____
ROOT
ATOM      1  C   UNL     1      48.763   4.670  17.341  0.00  0.00    +0.000 A 
ATOM      2  C   UNL     1      49.549   5.799  17.061  0.00  0.00    +0.000 A 
ATOM      3  C   UNL     1      49.313   6.576  15.921  0.00  0.00    +0.000 A 
ATOM      4  C   UNL     1      48.272   6.252  15.044  0.00  0.00    +0.000 A 
ATOM      5  C   UNL     1      47.477   5.135  15.327  0.00  0.00    +0.000 A 
ATOM      6  C   UNL     1      47.709   4.363  16.468  0.00  0.00    +0.000 A 
ENDROOT
BRANCH   1   8
ATOM      7  C   UNL     1      48.922   4.644  19.890  0.00  0.00    +0.000 C 
ATOM      8  C   UNL     1      49.059   3.850  18.587  0.00  0.00    +0.000 C 
BRANCH   8   9
ATOM      9  N   UNL     1      50.377   3.249  18.465  0.00  0.00    +0.000 N 
ATOM     10  C   UNL     1      50.634   2.212  17.602  0.00  0.00    +0.000 C 
ATOM     11  O   UNL     1      49.762   1.690  16.913  0.00  0.00    +0.000 OA
ATOM     12  H   UNL     1      51.116   3.612  19.045  0.00  0.00    +0.000 HD
BRANCH  10  13
ATOM     13  C   UNL     1      52.008   1.782  17.547  0.00  0.00    +0.000 A 
ATOM     14  C   UNL     1      53.212   2.388  17.852  0.00  0.00    +0.000 A 
ATOM     15  C   UNL     1      54.195   1.421  17.563  0.00  0.00    +0.000 A 
ATOM     16  N   UNL     1      53.669   0.287  17.107  0.00  0.00    +0.000 NA
ATOM     17  N   UNL     1      52.347   0.532  17.094  0.00  0.00    +0.000 N 
ATOM     18  H   UNL     1      51.713  -0.189  16.765  0.00  0.00    +0.000 HD
ENDBRANCH  10  13
ENDBRANCH   8   9
ENDBRANCH   1   8
BRANCH   4  19
ATOM     19  C   UNL     1      48.051   7.040  13.779  0.00  0.00    +0.000 C 
BRANCH  19  20
ATOM     20  N   UNL     1      47.448   6.210  12.766  0.00  0.00    +0.000 N 
ATOM     21  C   UNL     1      46.154   6.398  12.361  0.00  0.00    +0.000 C 
ATOM     22  O   UNL     1      45.455   7.303  12.811  0.00  0.00    +0.000 OA
ATOM     23  H   UNL     1      47.921   5.339  12.547  0.00  0.00    +0.000 HD
BRANCH  21  24
ATOM     24  C   UNL     1      45.663   5.500  11.308  0.00  0.00    +0.000 A 
ATOM     25  C   UNL     1      45.932   5.792   9.976  0.00  0.00    +0.000 A 
ATOM     26  S   UNL     1      45.346   4.618   8.887  0.00  0.00    +0.000 S 
ATOM     27  C   UNL     1      44.668   3.704  10.150  0.00  0.00    +0.000 A 
ATOM     28  N   UNL     1      43.988   2.554   9.894  0.00  0.00    +0.000 NA
ATOM     29  C   UNL     1      43.502   1.975  10.940  0.00  0.00    +0.000 A 
ATOM     30  N   UNL     1      43.635   2.443  12.224  0.00  0.00    +0.000 N 
ATOM     31  C   UNL     1      44.334   3.586  12.533  0.00  0.00    +0.000 A 
ATOM     32  O   UNL     1      44.466   3.956  13.696  0.00  0.00    +0.000 OA
ATOM     33  C   UNL     1      44.896   4.277  11.389  0.00  0.00    +0.000 A 
ATOM     34  H   UNL     1      43.235   1.939  13.001  0.00  0.00    +0.000 HD
ENDBRANCH  21  24
ENDBRANCH  19  20
ENDBRANCH   4  19
TORSDOF 6
ENDMDL
MODEL 8
REMARK VINA RESULT:    -6.920      4.192      9.100
REMARK INTER + INTRA:         -10.246
REMARK INTER:                  -9.291
REMARK INTRA:                  -0.956
REMARK UNBOUND:                -0.899
REMARK  Name = 
REMARK  7 active torsions:
REMARK  status: ('A' for Active; 'I' for Inactive)
REMARK    1  A    between atoms: C_1  and  C_2
REMARK    2  A    between atoms: C_2  and  N_3
REMARK    3  A    between atoms: C_2  and  C_11
REMARK    4  A    between atoms: C_4  and  C_6
REMARK    5  A    between atoms: C_14  and  C_15
REMARK    6  A    between atoms: C_15  and  N_16
REMARK    7  A    between atoms: C_17  and  C_19
REMARK                            x       y       z     vdW  Elec       q    Type
REMARK                         _______ _______ _______ _____ _____    ______ ____
ROOT
ATOM      1  C   UNL     1      51.350   4.335  17.650  0.00  0.00    +0.000 A 
ATOM      2  C   UNL     1      50.388   5.352  17.549  0.00  0.00    +0.000 A 
ATOM      3  C   UNL     1      49.049   5.053  17.275  0.00  0.00    +0.000 A 
ATOM      4  C   UNL     1      48.637   3.725  17.114  0.00  0.00    +0.000 A 
ATOM      5  C   UNL     1      49.590   2.706  17.229  0.00  0.00    +0.000 A 
ATOM      6  C   UNL     1      50.926   3.005  17.508  0.00  0.00    +0.000 A 
ENDROOT
BRANCH   1   8
ATOM      7  C   UNL     1      53.028   5.183  19.380  0.00  0.00    +0.000 C 
ATOM      8  C   UNL     1      52.796   4.706  17.942  0.00  0.00    +0.000 C 
BRANCH   8   9
ATOM      9  N   UNL     1      53.243   5.694  16.975  0.00  0.00    +0.000 N 
ATOM     10  C   UNL     1      54.416   5.557  16.274  0.00  0.00    +0.000 C 
ATOM     11  O   UNL     1      55.191   4.621  16.453  0.00  0.00    +0.000 OA
ATOM     12  H   UNL     1      52.664   6.505  16.827  0.00  0.00    +0.000 HD
BRANCH  10  13
ATOM     13  C   UNL     1      54.677   6.585  15.299  0.00  0.00    +0.000 A 
ATOM     14  C   UNL     1      54.833   7.956  15.376  0.00  0.00    +0.000 A 
ATOM     15  C   UNL     1      55.055   8.377  14.050  0.00  0.00    +0.000 A 
ATOM     16  N   UNL     1      55.041   7.362  13.189  0.00  0.00    +0.000 NA
ATOM     17  N   UNL     1      54.799   6.291  13.965  0.00  0.00    +0.000 N 
ATOM     18  H   UNL     1      54.724   5.374  13.535  0.00  0.00    +0.000 HD
ENDBRANCH  10  13
ENDBRANCH   8   9
ENDBRANCH   1   8
BRANCH   4  19
ATOM     19  C   UNL     1      47.212   3.393  16.753  0.00  0.00    +0.000 C 
BRANCH  19  20
ATOM     20  N   UNL     1      46.700   4.342  15.798  0.00  0.00    +0.000 N 
ATOM     21  C   UNL     1      46.743   4.101  14.451  0.00  0.00    +0.000 C 
ATOM     22  O   UNL     1      47.186   3.050  13.992  0.00  0.00    +0.000 OA
ATOM     23  H   UNL     1      46.538   5.287  16.132  0.00  0.00    +0.000 HD
BRANCH  21  24
ATOM     24  C   UNL     1      46.171   5.137  13.582  0.00  0.00    +0.000 A 
ATOM     25  C   UNL     1      46.901   6.289  13.316  0.00  0.00    +0.000 A 
ATOM     26  S   UNL     1      46.120   7.360  12.243  0.00  0.00    +0.000 S 
ATOM     27  C   UNL     1      44.758   6.348  12.135  0.00  0.00    +0.000 A 
ATOM     28  N   UNL     1      43.687   6.695  11.373  0.00  0.00    +0.000 NA
ATOM     29  C   UNL     1      42.711   5.851  11.403  0.00  0.00    +0.000 A 
ATOM     30  N   UNL     1      42.710   4.686  12.129  0.00  0.00    +0.000 N 
ATOM     31  C   UNL     1      43.779   4.281  12.893  0.00  0.00    +0.000 A 
ATOM     32  O   UNL     1      43.759   3.214  13.500  0.00  0.00    +0.000 OA
ATOM     33  C   UNL     1      44.900   5.200  12.897  0.00  0.00    +0.000 A 
ATOM     34  H   UNL     1      41.916   4.064  12.106  0.00  0.00    +0.000 HD
ENDBRANCH  21  24
ENDBRANCH  19  20
ENDBRANCH   4  19
TORSDOF 6
ENDMDL
MODEL 9
REMARK VINA RESULT:    -6.584      3.291      4.750
REMARK INTER + INTRA:          -9.793
REMARK INTER:                  -8.653
REMARK INTRA:                  -1.140
REMARK UNBOUND:                -0.899
REMARK  Name = 
REMARK  7 active torsions:
REMARK  status: ('A' for Active; 'I' for Inactive)
REMARK    1  A    between atoms: C_1  and  C_2
REMARK    2  A    between atoms: C_2  and  N_3
REMARK    3  A    between atoms: C_2  and  C_11
REMARK    4  A    between atoms: C_4  and  C_6
REMARK    5  A    between atoms: C_14  and  C_15
REMARK    6  A    between atoms: C_15  and  N_16
REMARK    7  A    between atoms: C_17  and  C_19
REMARK                            x       y       z     vdW  Elec       q    Type
REMARK                         _______ _______ _______ _____ _____    ______ ____
ROOT
ATOM      1  C   UNL     1      47.555   7.673  13.706  0.00  0.00    +0.000 A 
ATOM      2  C   UNL     1      47.692   8.890  14.393  0.00  0.00    +0.000 A 
ATOM      3  C   UNL     1      48.436   8.969  15.576  0.00  0.00    +0.000 A 
ATOM      4  C   UNL     1      49.077   7.836  16.089  0.00  0.00    +0.000 A 
ATOM      5  C   UNL     1      48.954   6.624  15.399  0.00  0.00    +0.000 A 
ATOM      6  C   UNL     1      48.216   6.547  14.215  0.00  0.00    +0.000 A 
ENDROOT
BRANCH   1   8
ATOM      7  C   UNL     1      45.983   8.937  12.138  0.00  0.00    +0.000 C 
ATOM      8  C   UNL     1      46.731   7.631  12.428  0.00  0.00    +0.000 C 
BRANCH   8   9
ATOM      9  N   UNL     1      45.824   6.497  12.479  0.00  0.00    +0.000 N 
ATOM     10  C   UNL     1      45.589   5.696  11.388  0.00  0.00    +0.000 C 
ATOM     11  O   UNL     1      46.087   5.910  10.287  0.00  0.00    +0.000 OA
ATOM     12  H   UNL     1      45.353   6.308  13.349  0.00  0.00    +0.000 HD
BRANCH  10  13
ATOM     13  C   UNL     1      44.722   4.570  11.625  0.00  0.00    +0.000 A 
ATOM     14  C   UNL     1      43.712   3.972  10.896  0.00  0.00    +0.000 A 
ATOM     15  C   UNL     1      43.252   2.912  11.703  0.00  0.00    +0.000 A 
ATOM     16  N   UNL     1      43.909   2.835  12.857  0.00  0.00    +0.000 NA
ATOM     17  N   UNL     1      44.784   3.853  12.793  0.00  0.00    +0.000 N 
ATOM     18  H   UNL     1      45.407   4.021  13.578  0.00  0.00    +0.000 HD
ENDBRANCH  10  13
ENDBRANCH   8   9
ENDBRANCH   1   8
BRANCH   4  19
ATOM     19  C   UNL     1      49.825   7.893  17.395  0.00  0.00    +0.000 C 
BRANCH  19  20
ATOM     20  N   UNL     1      50.673   6.737  17.542  0.00  0.00    +0.000 N 
ATOM     21  C   UNL     1      50.834   6.113  18.751  0.00  0.00    +0.000 C 
ATOM     22  O   UNL     1      50.237   6.484  19.759  0.00  0.00    +0.000 OA
ATOM     23  H   UNL     1      51.332   6.554  16.793  0.00  0.00    +0.000 HD
BRANCH  21  24
ATOM     24  C   UNL     1      51.709   4.934  18.766  0.00  0.00    +0.000 A 
ATOM     25  C   UNL     1      52.937   5.000  19.410  0.00  0.00    +0.000 A 
ATOM     26  S   UNL     1      53.801   3.529  19.388  0.00  0.00    +0.000 S 
ATOM     27  C   UNL     1      52.586   2.766  18.473  0.00  0.00    +0.000 A 
ATOM     28  N   UNL     1      52.713   1.468  18.087  0.00  0.00    +0.000 NA
ATOM     29  C   UNL     1      51.733   1.024  17.374  0.00  0.00    +0.000 A 
ATOM     30  N   UNL     1      50.634   1.762  17.012  0.00  0.00    +0.000 N 
ATOM     31  C   UNL     1      50.451   3.068  17.399  0.00  0.00    +0.000 A 
ATOM     32  O   UNL     1      49.437   3.688  17.089  0.00  0.00    +0.000 OA
ATOM     33  C   UNL     1      51.529   3.617  18.198  0.00  0.00    +0.000 A 
ATOM     34  H   UNL     1      49.898   1.353  16.456  0.00  0.00    +0.000 HD
ENDBRANCH  21  24
ENDBRANCH  19  20
ENDBRANCH   4  19
TORSDOF 6
ENDMDL
