MODEL 1
REMARK VINA RESULT:    -7.168      0.000      0.000
REMARK INTER + INTRA:         -10.395
REMARK INTER:                  -9.892
REMARK INTRA:                  -0.504
REMARK UNBOUND:                -0.504
REMARK  Name = 
REMARK  8 active torsions:
REMARK  status: ('A' for Active; 'I' for Inactive)
REMARK    1  A    between atoms: C_1  and  S_2
REMARK    2  A    between atoms: S_2  and  C_3
REMARK    3  A    between atoms: C_6  and  C_7
REMARK    4  A    between atoms: C_11  and  O_12
REMARK    5  A    between atoms: O_12  and  C_13
REMARK    6  A    between atoms: C_13  and  C_14
REMARK    7  A    between atoms: C_18  and  C_19
REMARK    8  A    between atoms: C_19  and  O_20
REMARK                            x       y       z     vdW  Elec       q    Type
REMARK                         _______ _______ _______ _____ _____    ______ ____
ROOT
ATOM      1  C   UNL     1      45.692   5.299  12.542  0.00  0.00    +0.000 A 
ATOM      2  N   UNL     1      45.929   6.406  13.292  0.00  0.00    +0.000 NA
ATOM      3  C   UNL     1      45.466   7.588  12.828  0.00  0.00    +0.000 A 
ATOM      4  C   UNL     1      44.766   7.733  11.644  0.00  0.00    +0.000 A 
ATOM      5  C   UNL     1      44.520   6.580  10.889  0.00  0.00    +0.000 A 
ATOM      6  C   UNL     1      44.981   5.337  11.332  0.00  0.00    +0.000 A 
ENDROOT
BRANCH   4   7
ATOM      7  C   UNL     1      44.276   9.037  11.137  0.00  0.00    +0.000 C 
ATOM      8  N   UNL     1      43.013   9.123  10.622  0.00  0.00    +0.000 N 
ATOM      9  O   UNL     1      44.987  10.032  11.176  0.00  0.00    +0.000 OA
ATOM     10  H   UNL     1      42.345   8.372  10.540  0.00  0.00    +0.000 HD
ATOM     11  H   UNL     1      42.722  10.035  10.294  0.00  0.00    +0.000 HD
ENDBRANCH   4   7
BRANCH   1  13
ATOM     12  C   UNL     1      47.149   4.382  14.686  0.00  0.00    +0.000 C 
ATOM     13  S   UNL     1      46.310   3.755  13.209  0.00  0.00    +0.000 S 
ENDBRANCH   1  13
BRANCH   6  14
ATOM     14  O   UNL     1      44.804   4.159  10.664  0.00  0.00    +0.000 OA
BRANCH  14  15
ATOM     15  C   UNL     1      44.474   4.197   9.274  0.00  0.00    +0.000 C 
BRANCH  15  16
ATOM     16  C   UNL     1      45.304   3.173   8.547  0.00  0.00    +0.000 A 
ATOM     17  C   UNL     1      45.364   1.862   9.005  0.00  0.00    +0.000 A 
ATOM     18  N   UNL     1      46.091   0.886   8.416  0.00  0.00    +0.000 NA
ATOM     19  C   UNL     1      46.795   1.230   7.315  0.00  0.00    +0.000 A 
ATOM     20  C   UNL     1      46.825   2.510   6.775  0.00  0.00    +0.000 A 
ATOM     21  C   UNL     1      46.071   3.494   7.419  0.00  0.00    +0.000 A 
BRANCH  20  22
ATOM     22  C   UNL     1      47.600   2.798   5.525  0.00  0.00    +0.000 C 
BRANCH  22  23
ATOM     23  O   UNL     1      48.590   1.803   5.312  0.00  0.00    +0.000 OA
ATOM     24  H   UNL     1      49.033   1.657   6.167  0.00  0.00    +0.000 HD
ENDBRANCH  22  23
ENDBRANCH  20  22
ENDBRANCH  15  16
ENDBRANCH  14  15
ENDBRANCH   6  14
TORSDOF 7
ENDMDL
MODEL 2
REMARK VINA RESULT:    -6.958      2.243      3.908
REMARK INTER + INTRA:         -10.105
REMARK INTER:                  -9.625
REMARK INTRA:                  -0.480
REMARK UNBOUND:                -0.504
REMARK  Name = 
REMARK  8 active torsions:
REMARK  status: ('A' for Active; 'I' for Inactive)
REMARK    1  A    between atoms: C_1  and  S_2
REMARK    2  A    between atoms: S_2  and  C_3
REMARK    3  A    between atoms: C_6  and  C_7
REMARK    4  A    between atoms: C_11  and  O_12
REMARK    5  A    between atoms: O_12  and  C_13
REMARK    6  A    between atoms: C_13  and  C_14
REMARK    7  A    between atoms: C_18  and  C_19
REMARK    8  A    between atoms: C_19  and  O_20
REMARK                            x       y       z     vdW  Elec       q    Type
REMARK                         _______ _______ _______ _____ _____    ______ ____
ROOT
ATOM      1  C   UNL     1      44.784   6.588  12.026  0.00  0.00    +0.000 A 
ATOM      2  N   UNL     1      45.645   7.202  12.878  0.00  0.00    +0.000 NA
ATOM      3  C   UNL     1      46.352   6.422  13.725  0.00  0.00    +0.000 A 
ATOM      4  C   UNL     1      46.253   5.043  13.772  0.00  0.00    +0.000 A 
ATOM      5  C   UNL     1      45.369   4.425  12.878  0.00  0.00    +0.000 A 
ATOM      6  C   UNL     1      44.618   5.194  11.985  0.00  0.00    +0.000 A 
ENDROOT
BRANCH   4   7
ATOM      7  C   UNL     1      47.022   4.198  14.716  0.00  0.00    +0.000 C 
ATOM      8  N   UNL     1      47.277   4.664  15.975  0.00  0.00    +0.000 N 
ATOM      9  O   UNL     1      47.428   3.093  14.380  0.00  0.00    +0.000 OA
ATOM     10  H   UNL     1      46.993   5.553  16.356  0.00  0.00    +0.000 HD
ATOM     11  H   UNL     1      47.800   4.048  16.585  0.00  0.00    +0.000 HD
ENDBRANCH   4   7
BRANCH   1  13
ATOM     12  C   UNL     1      44.576   9.261  11.415  0.00  0.00    +0.000 C 
ATOM     13  S   UNL     1      43.886   7.665  10.911  0.00  0.00    +0.000 S 
ENDBRANCH   1  13
BRANCH   6  14
ATOM     14  O   UNL     1      43.723   4.689  11.086  0.00  0.00    +0.000 OA
BRANCH  14  15
ATOM     15  C   UNL     1      43.867   3.334  10.656  0.00  0.00    +0.000 C 
BRANCH  15  16
ATOM     16  C   UNL     1      44.810   3.291   9.484  0.00  0.00    +0.000 A 
ATOM     17  C   UNL     1      45.132   4.456   8.796  0.00  0.00    +0.000 A 
ATOM     18  N   UNL     1      45.962   4.502   7.730  0.00  0.00    +0.000 NA
ATOM     19  C   UNL     1      46.501   3.330   7.326  0.00  0.00    +0.000 A 
ATOM     20  C   UNL     1      46.241   2.103   7.923  0.00  0.00    +0.000 A 
ATOM     21  C   UNL     1      45.368   2.094   9.014  0.00  0.00    +0.000 A 
BRANCH  20  22
ATOM     22  C   UNL     1      46.913   0.855   7.438  0.00  0.00    +0.000 C 
BRANCH  22  23
ATOM     23  O   UNL     1      48.006   1.175   6.589  0.00  0.00    +0.000 OA
ATOM     24  H   UNL     1      47.876   2.094   6.296  0.00  0.00    +0.000 HD
ENDBRANCH  22  23
ENDBRANCH  20  22
ENDBRANCH  15  16
ENDBRANCH  14  15
ENDBRANCH   6  14
TORSDOF 7
ENDMDL
MODEL 3
REMARK VINA RESULT:    -6.789      2.020      2.511
REMARK INTER + INTRA:          -9.872
REMARK INTER:                  -9.323
REMARK INTRA:                  -0.549
REMARK UNBOUND:                -0.504
REMARK  Name = 
REMARK  8 active torsions:
REMARK  status: ('A' for Active; 'I' for Inactive)
REMARK    1  A    between atoms: C_1  and  S_2
REMARK    2  A    between atoms: S_2  and  C_3
REMARK    3  A    between atoms: C_6  and  C_7
REMARK    4  A    between atoms: C_11  and  O_12
REMARK    5  A    between atoms: O_12  and  C_13
REMARK    6  A    between atoms: C_13  and  C_14
REMARK    7  A    between atoms: C_18  and  C_19
REMARK    8  A    between atoms: C_19  and  O_20
REMARK                            x       y       z     vdW  Elec       q    Type
REMARK                         _______ _______ _______ _____ _____    ______ ____
ROOT
ATOM      1  C   UNL     1      44.833   5.875  12.545  0.00  0.00    +0.000 A 
ATOM      2  N   UNL     1      45.131   6.930  13.346  0.00  0.00    +0.000 NA
ATOM      3  C   UNL     1      46.248   7.637  13.061  0.00  0.00    +0.000 A 
ATOM      4  C   UNL     1      47.096   7.351  12.007  0.00  0.00    +0.000 A 
ATOM      5  C   UNL     1      46.767   6.267  11.184  0.00  0.00    +0.000 A 
ATOM      6  C   UNL     1      45.622   5.509  11.443  0.00  0.00    +0.000 A 
ENDROOT
BRANCH   4   7
ATOM      7  C   UNL     1      48.327   8.123  11.713  0.00  0.00    +0.000 C 
ATOM      8  N   UNL     1      48.255   9.485  11.615  0.00  0.00    +0.000 N 
ATOM      9  O   UNL     1      49.401   7.556  11.559  0.00  0.00    +0.000 OA
ATOM     10  H   UNL     1      47.429  10.052  11.722  0.00  0.00    +0.000 HD
ATOM     11  H   UNL     1      49.123   9.968  11.419  0.00  0.00    +0.000 HD
ENDBRANCH   4   7
BRANCH   1  13
ATOM     12  C   UNL     1      42.222   5.681  11.705  0.00  0.00    +0.000 C 
ATOM     13  S   UNL     1      43.333   4.984  12.953  0.00  0.00    +0.000 S 
ENDBRANCH   1  13
BRANCH   6  14
ATOM     14  O   UNL     1      45.222   4.428  10.709  0.00  0.00    +0.000 OA
BRANCH  14  15
ATOM     15  C   UNL     1      44.970   4.597   9.313  0.00  0.00    +0.000 C 
BRANCH  15  16
ATOM     16  C   UNL     1      45.580   3.443   8.564  0.00  0.00    +0.000 A 
ATOM     17  C   UNL     1      45.444   2.144   9.039  0.00  0.00    +0.000 A 
ATOM     18  N   UNL     1      45.967   1.055   8.432  0.00  0.00    +0.000 NA
ATOM     19  C   UNL     1      46.663   1.268   7.292  0.00  0.00    +0.000 A 
ATOM     20  C   UNL     1      46.879   2.520   6.731  0.00  0.00    +0.000 A 
ATOM     21  C   UNL     1      46.333   3.622   7.395  0.00  0.00    +0.000 A 
BRANCH  20  22
ATOM     22  C   UNL     1      47.628   2.665   5.441  0.00  0.00    +0.000 C 
BRANCH  22  23
ATOM     23  O   UNL     1      48.667   1.700   5.358  0.00  0.00    +0.000 OA
ATOM     24  H   UNL     1      49.354   2.074   4.779  0.00  0.00    +0.000 HD
ENDBRANCH  22  23
ENDBRANCH  20  22
ENDBRANCH  15  16
ENDBRANCH  14  15
ENDBRANCH   6  14
TORSDOF 7
ENDMDL
MODEL 4
REMARK VINA RESULT:    -6.422      2.362      2.991
REMARK INTER + INTRA:          -9.366
REMARK INTER:                  -8.645
REMARK INTRA:                  -0.722
REMARK UNBOUND:                -0.504
REMARK  Name = 
REMARK  8 active torsions:
REMARK  status: ('A' for Active; 'I' for Inactive)
REMARK    1  A    between atoms: C_1  and  S_2
REMARK    2  A    between atoms: S_2  and  C_3
REMARK    3  A    between atoms: C_6  and  C_7
REMARK    4  A    between atoms: C_11  and  O_12
REMARK    5  A    between atoms: O_12  and  C_13
REMARK    6  A    between atoms: C_13  and  C_14
REMARK    7  A    between atoms: C_18  and  C_19
REMARK    8  A    between atoms: C_19  and  O_20
REMARK                            x       y       z     vdW  Elec       q    Type
REMARK                         _______ _______ _______ _____ _____    ______ ____
ROOT
ATOM      1  C   UNL     1      47.134   5.695  13.239  0.00  0.00    +0.000 A 
ATOM      2  N   UNL     1      48.407   6.131  13.420  0.00  0.00    +0.000 NA
ATOM      3  C   UNL     1      48.690   7.403  13.062  0.00  0.00    +0.000 A 
ATOM      4  C   UNL     1      47.763   8.281  12.528  0.00  0.00    +0.000 A 
ATOM      5  C   UNL     1      46.452   7.818  12.359  0.00  0.00    +0.000 A 
ATOM      6  C   UNL     1      46.117   6.510  12.717  0.00  0.00    +0.000 A 
ENDROOT
BRANCH   4   7
ATOM      7  C   UNL     1      48.088   9.670  12.124  0.00  0.00    +0.000 C 
ATOM      8  N   UNL     1      47.448  10.711  12.734  0.00  0.00    +0.000 N 
ATOM      9  O   UNL     1      48.920   9.890  11.253  0.00  0.00    +0.000 OA
ATOM     10  H   UNL     1      46.749  10.647  13.458  0.00  0.00    +0.000 HD
ATOM     11  H   UNL     1      47.708  11.641  12.428  0.00  0.00    +0.000 HD
ENDBRANCH   4   7
BRANCH   1  13
ATOM     12  C   UNL     1      47.253   4.131  15.498  0.00  0.00    +0.000 C 
ATOM     13  S   UNL     1      46.806   4.008  13.748  0.00  0.00    +0.000 S 
ENDBRANCH   1  13
BRANCH   6  14
ATOM     14  O   UNL     1      44.873   5.961  12.580  0.00  0.00    +0.000 OA
BRANCH  14  15
ATOM     15  C   UNL     1      44.198   6.087  11.327  0.00  0.00    +0.000 C 
BRANCH  15  16
ATOM     16  C   UNL     1      44.356   4.804  10.556  0.00  0.00    +0.000 A 
ATOM     17  C   UNL     1      43.748   3.635  11.001  0.00  0.00    +0.000 A 
ATOM     18  N   UNL     1      43.847   2.443  10.373  0.00  0.00    +0.000 NA
ATOM     19  C   UNL     1      44.590   2.408   9.243  0.00  0.00    +0.000 A 
ATOM     20  C   UNL     1      45.257   3.505   8.713  0.00  0.00    +0.000 A 
ATOM     21  C   UNL     1      45.140   4.717   9.397  0.00  0.00    +0.000 A 
BRANCH  20  22
ATOM     22  C   UNL     1      46.026   3.390   7.432  0.00  0.00    +0.000 C 
BRANCH  22  23
ATOM     23  O   UNL     1      46.960   4.454   7.316  0.00  0.00    +0.000 OA
ATOM     24  H   UNL     1      47.822   4.106   7.603  0.00  0.00    +0.000 HD
ENDBRANCH  22  23
ENDBRANCH  20  22
ENDBRANCH  15  16
ENDBRANCH  14  15
ENDBRANCH   6  14
TORSDOF 7
ENDMDL
MODEL 5
REMARK VINA RESULT:    -6.194      3.303      5.530
REMARK INTER + INTRA:          -9.051
REMARK INTER:                  -8.454
REMARK INTRA:                  -0.597
REMARK UNBOUND:                -0.504
REMARK  Name = 
REMARK  8 active torsions:
REMARK  status: ('A' for Active; 'I' for Inactive)
REMARK    1  A    between atoms: C_1  and  S_2
REMARK    2  A    between atoms: S_2  and  C_3
REMARK    3  A    between atoms: C_6  and  C_7
REMARK    4  A    between atoms: C_11  and  O_12
REMARK    5  A    between atoms: O_12  and  C_13
REMARK    6  A    between atoms: C_13  and  C_14
REMARK    7  A    between atoms: C_18  and  C_19
REMARK    8  A    between atoms: C_19  and  O_20
REMARK                            x       y       z     vdW  Elec       q    Type
REMARK                         _______ _______ _______ _____ _____    ______ ____
ROOT
ATOM      1  C   UNL     1      48.331   6.396  14.529  0.00  0.00    +0.000 A 
ATOM      2  N   UNL     1      49.022   6.424  15.697  0.00  0.00    +0.000 NA
ATOM      3  C   UNL     1      48.747   5.467  16.611  0.00  0.00    +0.000 A 
ATOM      4  C   UNL     1      47.810   4.467  16.426  0.00  0.00    +0.000 A 
ATOM      5  C   UNL     1      47.114   4.446  15.211  0.00  0.00    +0.000 A 
ATOM      6  C   UNL     1      47.368   5.416  14.238  0.00  0.00    +0.000 A 
ENDROOT
BRANCH   4   7
ATOM      7  C   UNL     1      47.504   3.432  17.443  0.00  0.00    +0.000 C 
ATOM      8  N   UNL     1      48.464   3.082  18.350  0.00  0.00    +0.000 N 
ATOM      9  O   UNL     1      46.406   2.892  17.476  0.00  0.00    +0.000 OA
ATOM     10  H   UNL     1      49.397   3.459  18.414  0.00  0.00    +0.000 HD
ATOM     11  H   UNL     1      48.206   2.376  19.028  0.00  0.00    +0.000 HD
ENDBRANCH   4   7
BRANCH   1  13
ATOM     12  C   UNL     1      47.406   8.842  13.678  0.00  0.00    +0.000 C 
ATOM     13  S   UNL     1      48.747   7.673  13.343  0.00  0.00    +0.000 S 
ENDBRANCH   1  13
BRANCH   6  14
ATOM     14  O   UNL     1      46.735   5.489  13.029  0.00  0.00    +0.000 OA
BRANCH  14  15
ATOM     15  C   UNL     1      45.307   5.507  12.999  0.00  0.00    +0.000 C 
BRANCH  15  16
ATOM     16  C   UNL     1      44.830   4.559  11.930  0.00  0.00    +0.000 A 
ATOM     17  C   UNL     1      43.971   3.514  12.248  0.00  0.00    +0.000 A 
ATOM     18  N   UNL     1      43.504   2.617  11.351  0.00  0.00    +0.000 NA
ATOM     19  C   UNL     1      43.913   2.765  10.071  0.00  0.00    +0.000 A 
ATOM     20  C   UNL     1      44.782   3.759   9.638  0.00  0.00    +0.000 A 
ATOM     21  C   UNL     1      45.253   4.659  10.597  0.00  0.00    +0.000 A 
BRANCH  20  22
ATOM     22  C   UNL     1      45.154   3.878   8.191  0.00  0.00    +0.000 C 
BRANCH  22  23
ATOM     23  O   UNL     1      46.147   4.877   8.013  0.00  0.00    +0.000 OA
ATOM     24  H   UNL     1      45.933   5.601   8.626  0.00  0.00    +0.000 HD
ENDBRANCH  22  23
ENDBRANCH  20  22
ENDBRANCH  15  16
ENDBRANCH  14  15
ENDBRANCH   6  14
TORSDOF 7
ENDMDL
MODEL 6
REMARK VINA RESULT:    -5.932      2.720      6.753
REMARK INTER + INTRA:          -8.690
REMARK INTER:                  -8.635
REMARK INTRA:                  -0.055
REMARK UNBOUND:                -0.504
REMARK  Name = 
REMARK  8 active torsions:
REMARK  status: ('A' for Active; 'I' for Inactive)
REMARK    1  A    between atoms: C_1  and  S_2
REMARK    2  A    between atoms: S_2  and  C_3
REMARK    3  A    between atoms: C_6  and  C_7
REMARK    4  A    between atoms: C_11  and  O_12
REMARK    5  A    between atoms: O_12  and  C_13
REMARK    6  A    between atoms: C_13  and  C_14
REMARK    7  A    between atoms: C_18  and  C_19
REMARK    8  A    between atoms: C_19  and  O_20
REMARK                            x       y       z     vdW  Elec       q    Type
REMARK                         _______ _______ _______ _____ _____    ______ ____
ROOT
ATOM      1  C   UNL     1      44.108   3.954  10.759  0.00  0.00    +0.000 A 
ATOM      2  N   UNL     1      43.831   2.834  10.043  0.00  0.00    +0.000 NA
ATOM      3  C   UNL     1      44.546   2.616   8.917  0.00  0.00    +0.000 A 
ATOM      4  C   UNL     1      45.540   3.461   8.457  0.00  0.00    +0.000 A 
ATOM      5  C   UNL     1      45.821   4.606   9.213  0.00  0.00    +0.000 A 
ATOM      6  C   UNL     1      45.105   4.869  10.384  0.00  0.00    +0.000 A 
ENDROOT
BRANCH   4   7
ATOM      7  C   UNL     1      46.307   3.221   7.211  0.00  0.00    +0.000 C 
ATOM      8  N   UNL     1      46.878   1.997   7.003  0.00  0.00    +0.000 N 
ATOM      9  O   UNL     1      46.434   4.105   6.373  0.00  0.00    +0.000 OA
ATOM     10  H   UNL     1      46.839   1.202   7.622  0.00  0.00    +0.000 HD
ATOM     11  H   UNL     1      47.387   1.880   6.135  0.00  0.00    +0.000 HD
ENDBRANCH   4   7
BRANCH   1  13
ATOM     12  C   UNL     1      42.212   5.663  11.781  0.00  0.00    +0.000 C 
ATOM     13  S   UNL     1      43.146   4.185  12.253  0.00  0.00    +0.000 S 
ENDBRANCH   1  13
BRANCH   6  14
ATOM     14  O   UNL     1      45.295   5.961  11.183  0.00  0.00    +0.000 OA
BRANCH  14  15
ATOM     15  C   UNL     1      46.630   6.374  11.480  0.00  0.00    +0.000 C 
BRANCH  15  16
ATOM     16  C   UNL     1      46.986   5.912  12.868  0.00  0.00    +0.000 A 
ATOM     17  C   UNL     1      46.386   4.781  13.409  0.00  0.00    +0.000 A 
ATOM     18  N   UNL     1      46.643   4.305  14.648  0.00  0.00    +0.000 NA
ATOM     19  C   UNL     1      47.543   4.990  15.389  0.00  0.00    +0.000 A 
ATOM     20  C   UNL     1      48.193   6.142  14.962  0.00  0.00    +0.000 A 
ATOM     21  C   UNL     1      47.891   6.609  13.681  0.00  0.00    +0.000 A 
BRANCH  20  22
ATOM     22  C   UNL     1      49.209   6.818  15.832  0.00  0.00    +0.000 C 
BRANCH  22  23
ATOM     23  O   UNL     1      50.203   5.893  16.247  0.00  0.00    +0.000 OA
ATOM     24  H   UNL     1      49.792   5.315  16.914  0.00  0.00    +0.000 HD
ENDBRANCH  22  23
ENDBRANCH  20  22
ENDBRANCH  15  16
ENDBRANCH  14  15
ENDBRANCH   6  14
TORSDOF 7
ENDMDL
MODEL 7
REMARK VINA RESULT:    -5.915      3.046      6.597
REMARK INTER + INTRA:          -8.666
REMARK INTER:                  -8.311
REMARK INTRA:                  -0.356
REMARK UNBOUND:                -0.504
REMARK  Name = 
REMARK  8 active torsions:
REMARK  status: ('A' for Active; 'I' for Inactive)
REMARK    1  A    between atoms: C_1  and  S_2
REMARK    2  A    between atoms: S_2  and  C_3
REMARK    3  A    between atoms: C_6  and  C_7
REMARK    4  A    between atoms: C_11  and  O_12
REMARK    5  A    between atoms: O_12  and  C_13
REMARK    6  A    between atoms: C_13  and  C_14
REMARK    7  A    between atoms: C_18  and  C_19
REMARK    8  A    between atoms: C_19  and  O_20
REMARK                            x       y       z     vdW  Elec       q    Type
REMARK                         _______ _______ _______ _____ _____    ______ ____
ROOT
ATOM      1  C   UNL     1      44.184   4.139  10.832  0.00  0.00    +0.000 A 
ATOM      2  N   UNL     1      43.905   2.969  10.202  0.00  0.00    +0.000 NA
ATOM      3  C   UNL     1      44.586   2.689   9.069  0.00  0.00    +0.000 A 
ATOM      4  C   UNL     1      45.546   3.519   8.518  0.00  0.00    +0.000 A 
ATOM      5  C   UNL     1      45.829   4.717   9.186  0.00  0.00    +0.000 A 
ATOM      6  C   UNL     1      45.149   5.045  10.361  0.00  0.00    +0.000 A 
ENDROOT
BRANCH   4   7
ATOM      7  C   UNL     1      46.275   3.210   7.265  0.00  0.00    +0.000 C 
ATOM      8  N   UNL     1      46.794   1.959   7.084  0.00  0.00    +0.000 N 
ATOM      9  O   UNL     1      46.416   4.060   6.396  0.00  0.00    +0.000 OA
ATOM     10  H   UNL     1      46.738   1.186   7.730  0.00  0.00    +0.000 HD
ATOM     11  H   UNL     1      47.278   1.794   6.210  0.00  0.00    +0.000 HD
ENDBRANCH   4   7
BRANCH   1  13
ATOM     12  C   UNL     1      42.157   5.755  11.750  0.00  0.00    +0.000 C 
ATOM     13  S   UNL     1      43.269   4.454  12.340  0.00  0.00    +0.000 S 
ENDBRANCH   1  13
BRANCH   6  14
ATOM     14  O   UNL     1      45.343   6.192  11.078  0.00  0.00    +0.000 OA
BRANCH  14  15
ATOM     15  C   UNL     1      46.311   6.193  12.129  0.00  0.00    +0.000 C 
BRANCH  15  16
ATOM     16  C   UNL     1      47.114   7.464  12.052  0.00  0.00    +0.000 A 
ATOM     17  C   UNL     1      46.505   8.695  12.266  0.00  0.00    +0.000 A 
ATOM     18  N   UNL     1      47.150   9.881  12.207  0.00  0.00    +0.000 NA
ATOM     19  C   UNL     1      48.471   9.843  11.920  0.00  0.00    +0.000 A 
ATOM     20  C   UNL     1      49.183   8.676  11.670  0.00  0.00    +0.000 A 
ATOM     21  C   UNL     1      48.478   7.472  11.728  0.00  0.00    +0.000 A 
BRANCH  20  22
ATOM     22  C   UNL     1      50.656   8.718  11.399  0.00  0.00    +0.000 C 
BRANCH  22  23
ATOM     23  O   UNL     1      51.186   7.403  11.322  0.00  0.00    +0.000 OA
ATOM     24  H   UNL     1      51.490   7.168  12.215  0.00  0.00    +0.000 HD
ENDBRANCH  22  23
ENDBRANCH  20  22
ENDBRANCH  15  16
ENDBRANCH  14  15
ENDBRANCH   6  14
TORSDOF 7
ENDMDL
MODEL 8
REMARK VINA RESULT:    -5.875      3.936      8.333
REMARK INTER + INTRA:          -8.610
REMARK INTER:                  -8.094
REMARK INTRA:                  -0.516
REMARK UNBOUND:                -0.504
REMARK  Name = 
REMARK  8 active torsions:
REMARK  status: ('A' for Active; 'I' for Inactive)
REMARK    1  A    between atoms: C_1  and  S_2
REMARK    2  A    between atoms: S_2  and  C_3
REMARK    3  A    between atoms: C_6  and  C_7
REMARK    4  A    between atoms: C_11  and  O_12
REMARK    5  A    between atoms: O_12  and  C_13
REMARK    6  A    between atoms: C_13  and  C_14
REMARK    7  A    between atoms: C_18  and  C_19
REMARK    8  A    between atoms: C_19  and  O_20
REMARK                            x       y       z     vdW  Elec       q    Type
REMARK                         _______ _______ _______ _____ _____    ______ ____
ROOT
ATOM      1  C   UNL     1      46.786   6.127  12.314  0.00  0.00    +0.000 A 
ATOM      2  N   UNL     1      45.974   6.255  11.234  0.00  0.00    +0.000 NA
ATOM      3  C   UNL     1      45.129   5.235  10.961  0.00  0.00    +0.000 A 
ATOM      4  C   UNL     1      45.043   4.079  11.715  0.00  0.00    +0.000 A 
ATOM      5  C   UNL     1      45.881   3.969  12.832  0.00  0.00    +0.000 A 
ATOM      6  C   UNL     1      46.768   4.999  13.151  0.00  0.00    +0.000 A 
ENDROOT
BRANCH   4   7
ATOM      7  C   UNL     1      44.125   2.960  11.397  0.00  0.00    +0.000 C 
ATOM      8  N   UNL     1      43.598   2.216  12.416  0.00  0.00    +0.000 N 
ATOM      9  O   UNL     1      43.835   2.697  10.237  0.00  0.00    +0.000 OA
ATOM     10  H   UNL     1      43.767   2.343  13.402  0.00  0.00    +0.000 HD
ATOM     11  H   UNL     1      42.972   1.467  12.149  0.00  0.00    +0.000 HD
ENDBRANCH   4   7
BRANCH   1  13
ATOM     12  C   UNL     1      46.671   8.674  13.343  0.00  0.00    +0.000 C 
ATOM     13  S   UNL     1      47.872   7.514  12.644  0.00  0.00    +0.000 S 
ENDBRANCH   1  13
BRANCH   6  14
ATOM     14  O   UNL     1      47.632   4.982  14.209  0.00  0.00    +0.000 OA
BRANCH  14  15
ATOM     15  C   UNL     1      47.201   4.405  15.442  0.00  0.00    +0.000 C 
BRANCH  15  16
ATOM     16  C   UNL     1      48.008   4.996  16.567  0.00  0.00    +0.000 A 
ATOM     17  C   UNL     1      48.864   6.066  16.332  0.00  0.00    +0.000 A 
ATOM     18  N   UNL     1      49.628   6.648  17.283  0.00  0.00    +0.000 NA
ATOM     19  C   UNL     1      49.537   6.141  18.534  0.00  0.00    +0.000 A 
ATOM     20  C   UNL     1      48.730   5.066  18.884  0.00  0.00    +0.000 A 
ATOM     21  C   UNL     1      47.965   4.483  17.871  0.00  0.00    +0.000 A 
BRANCH  20  22
ATOM     22  C   UNL     1      48.656   4.592  20.304  0.00  0.00    +0.000 C 
BRANCH  22  23
ATOM     23  O   UNL     1      48.331   3.210  20.351  0.00  0.00    +0.000 OA
ATOM     24  H   UNL     1      47.701   3.043  19.628  0.00  0.00    +0.000 HD
ENDBRANCH  22  23
ENDBRANCH  20  22
ENDBRANCH  15  16
ENDBRANCH  14  15
ENDBRANCH   6  14
TORSDOF 7
ENDMDL
MODEL 9
REMARK VINA RESULT:    -5.680      4.284      7.844
REMARK INTER + INTRA:          -8.342
REMARK INTER:                  -7.832
REMARK INTRA:                  -0.510
REMARK UNBOUND:                -0.504
REMARK  Name = 
REMARK  8 active torsions:
REMARK  status: ('A' for Active; 'I' for Inactive)
REMARK    1  A    between atoms: C_1  and  S_2
REMARK    2  A    between atoms: S_2  and  C_3
REMARK    3  A    between atoms: C_6  and  C_7
REMARK    4  A    between atoms: C_11  and  O_12
REMARK    5  A    between atoms: O_12  and  C_13
REMARK    6  A    between atoms: C_13  and  C_14
REMARK    7  A    between atoms: C_18  and  C_19
REMARK    8  A    between atoms: C_19  and  O_20
REMARK                            x       y       z     vdW  Elec       q    Type
REMARK                         _______ _______ _______ _____ _____    ______ ____
ROOT
ATOM      1  C   UNL     1      47.208   6.400  12.892  0.00  0.00    +0.000 A 
ATOM      2  N   UNL     1      46.559   6.582  11.713  0.00  0.00    +0.000 NA
ATOM      3  C   UNL     1      45.623   5.671  11.366  0.00  0.00    +0.000 A 
ATOM      4  C   UNL     1      45.287   4.574  12.138  0.00  0.00    +0.000 A 
ATOM      5  C   UNL     1      45.958   4.407  13.356  0.00  0.00    +0.000 A 
ATOM      6  C   UNL     1      46.933   5.326  13.754  0.00  0.00    +0.000 A 
ENDROOT
BRANCH   4   7
ATOM      7  C   UNL     1      44.269   3.572  11.740  0.00  0.00    +0.000 C 
ATOM      8  N   UNL     1      44.041   2.493  12.547  0.00  0.00    +0.000 N 
ATOM      9  O   UNL     1      43.636   3.701  10.701  0.00  0.00    +0.000 OA
ATOM     10  H   UNL     1      44.502   2.287  13.420  0.00  0.00    +0.000 HD
ATOM     11  H   UNL     1      43.333   1.840  12.236  0.00  0.00    +0.000 HD
ENDBRANCH   4   7
BRANCH   1  13
ATOM     12  C   UNL     1      49.383   7.661  11.780  0.00  0.00    +0.000 C 
ATOM     13  S   UNL     1      48.425   7.645  13.316  0.00  0.00    +0.000 S 
ENDBRANCH   1  13
BRANCH   6  14
ATOM     14  O   UNL     1      47.650   5.245  14.914  0.00  0.00    +0.000 OA
BRANCH  14  15
ATOM     15  C   UNL     1      47.263   4.285  15.898  0.00  0.00    +0.000 C 
BRANCH  15  16
ATOM     16  C   UNL     1      48.500   3.628  16.452  0.00  0.00    +0.000 A 
ATOM     17  C   UNL     1      48.793   2.305  16.141  0.00  0.00    +0.000 A 
ATOM     18  N   UNL     1      49.876   1.641  16.602  0.00  0.00    +0.000 NA
ATOM     19  C   UNL     1      50.712   2.326  17.415  0.00  0.00    +0.000 A 
ATOM     20  C   UNL     1      50.514   3.644  17.807  0.00  0.00    +0.000 A 
ATOM     21  C   UNL     1      49.377   4.293  17.320  0.00  0.00    +0.000 A 
BRANCH  20  22
ATOM     22  C   UNL     1      51.512   4.343  18.679  0.00  0.00    +0.000 C 
BRANCH  22  23
ATOM     23  O   UNL     1      51.112   4.283  20.040  0.00  0.00    +0.000 OA
ATOM     24  H   UNL     1      51.736   4.836  20.543  0.00  0.00    +0.000 HD
ENDBRANCH  22  23
ENDBRANCH  20  22
ENDBRANCH  15  16
ENDBRANCH  14  15
ENDBRANCH   6  14
TORSDOF 7
ENDMDL
