MODEL 1
REMARK VINA RESULT:    -8.806      0.000      0.000
REMARK INTER + INTRA:         -11.406
REMARK INTER:                 -10.866
REMARK INTRA:                  -0.540
REMARK UNBOUND:                -0.540
REMARK  Name = 
REMARK  5 active torsions:
REMARK  status: ('A' for Active; 'I' for Inactive)
REMARK    1  A    between atoms: C_1  and  C_2
REMARK    2  A    between atoms: C_10  and  C_11
REMARK    3  A    between atoms: C_11  and  O_12
REMARK    4  A    between atoms: O_12  and  C_13
REMARK    5  A    between atoms: C_16  and  C_17
REMARK                            x       y       z     vdW  Elec       q    Type
REMARK                         _______ _______ _______ _____ _____    ______ ____
ROOT
ATOM      1  C   UNL     1      48.181   5.019  18.361  0.00  0.00    +0.000 C 
ATOM      2  C   UNL     1      48.338   4.956  16.845  0.00  0.00    +0.000 C 
ATOM      3  C   UNL     1      47.191   4.139  16.231  0.00  0.00    +0.000 C 
ATOM      4  C   UNL     1      47.224   4.174  14.707  0.00  0.00    +0.000 C 
ATOM      5  N   UNL     1      47.270   5.560  14.281  0.00  0.00    +0.000 N 
ATOM      6  C   UNL     1      46.452   5.987  13.265  0.00  0.00    +0.000 A 
ATOM      7  N   UNL     1      46.513   7.259  12.852  0.00  0.00    +0.000 NA
ATOM      8  C   UNL     1      45.645   7.642  11.899  0.00  0.00    +0.000 A 
ATOM      9  C   UNL     1      44.711   6.808  11.341  0.00  0.00    +0.000 A 
ATOM     10  C   UNL     1      44.692   5.521  11.832  0.00  0.00    +0.000 A 
ATOM     11  N   UNL     1      45.561   5.112  12.772  0.00  0.00    +0.000 NA
ATOM     12  C   UNL     1      48.402   6.351  14.719  0.00  0.00    +0.000 C 
ATOM     13  C   UNL     1      48.398   6.375  16.248  0.00  0.00    +0.000 C 
ENDROOT
BRANCH  10  14
ATOM     14  C   UNL     1      43.655   4.519  11.392  0.00  0.00    +0.000 C 
BRANCH  14  15
ATOM     15  O   UNL     1      43.538   4.516   9.969  0.00  0.00    +0.000 OA
BRANCH  15  16
ATOM     16  C   UNL     1      44.452   3.764   9.282  0.00  0.00    +0.000 A 
ATOM     17  C   UNL     1      44.616   2.381   9.372  0.00  0.00    +0.000 A 
ATOM     18  C   UNL     1      45.587   1.734   8.597  0.00  0.00    +0.000 A 
ATOM     19  C   UNL     1      46.399   2.462   7.718  0.00  0.00    +0.000 A 
ATOM     20  C   UNL     1      46.236   3.848   7.624  0.00  0.00    +0.000 A 
ATOM     21  C   UNL     1      45.271   4.489   8.412  0.00  0.00    +0.000 A 
BRANCH  19  22
ATOM     22  C   UNL     1      47.435   1.726   6.945  0.00  0.00    +0.000 C 
ATOM     23  N   UNL     1      48.517   2.423   6.494  0.00  0.00    +0.000 N 
ATOM     24  O   UNL     1      47.312   0.528   6.696  0.00  0.00    +0.000 OA
ATOM     25  H   UNL     1      48.633   3.422   6.590  0.00  0.00    +0.000 HD
ATOM     26  H   UNL     1      49.189   1.915   5.935  0.00  0.00    +0.000 HD
ENDBRANCH  19  22
ENDBRANCH  15  16
ENDBRANCH  14  15
ENDBRANCH  10  14
TORSDOF 4
ENDMDL
MODEL 2
REMARK VINA RESULT:    -8.790      1.721      3.232
REMARK INTER + INTRA:         -11.386
REMARK INTER:                 -10.806
REMARK INTRA:                  -0.579
REMARK UNBOUND:                -0.540
REMARK  Name = 
REMARK  5 active torsions:
REMARK  status: ('A' for Active; 'I' for Inactive)
REMARK    1  A    between atoms: C_1  and  C_2
REMARK    2  A    between atoms: C_10  and  C_11
REMARK    3  A    between atoms: C_11  and  O_12
REMARK    4  A    between atoms: O_12  and  C_13
REMARK    5  A    between atoms: C_16  and  C_17
REMARK                            x       y       z     vdW  Elec       q    Type
REMARK                         _______ _______ _______ _____ _____    ______ ____
ROOT
ATOM      1  C   UNL     1      48.725  10.722  11.747  0.00  0.00    +0.000 C 
ATOM      2  C   UNL     1      47.897   9.843  12.680  0.00  0.00    +0.000 C 
ATOM      3  C   UNL     1      46.660   9.312  11.940  0.00  0.00    +0.000 C 
ATOM      4  C   UNL     1      45.882   8.309  12.786  0.00  0.00    +0.000 C 
ATOM      5  N   UNL     1      46.800   7.280  13.237  0.00  0.00    +0.000 N 
ATOM      6  C   UNL     1      46.437   5.960  13.154  0.00  0.00    +0.000 A 
ATOM      7  N   UNL     1      47.271   5.011  13.596  0.00  0.00    +0.000 NA
ATOM      8  C   UNL     1      46.895   3.730  13.432  0.00  0.00    +0.000 A 
ATOM      9  C   UNL     1      45.718   3.354  12.838  0.00  0.00    +0.000 A 
ATOM     10  C   UNL     1      44.921   4.383  12.387  0.00  0.00    +0.000 A 
ATOM     11  N   UNL     1      45.270   5.670  12.556  0.00  0.00    +0.000 NA
ATOM     12  C   UNL     1      47.920   7.702  14.055  0.00  0.00    +0.000 C 
ATOM     13  C   UNL     1      48.754   8.691  13.238  0.00  0.00    +0.000 C 
ENDROOT
BRANCH  10  14
ATOM     14  C   UNL     1      43.648   4.126  11.622  0.00  0.00    +0.000 C 
BRANCH  14  15
ATOM     15  O   UNL     1      43.793   4.536  10.262  0.00  0.00    +0.000 OA
BRANCH  15  16
ATOM     16  C   UNL     1      44.631   3.785   9.483  0.00  0.00    +0.000 A 
ATOM     17  C   UNL     1      44.706   2.392   9.459  0.00  0.00    +0.000 A 
ATOM     18  C   UNL     1      45.604   1.749   8.599  0.00  0.00    +0.000 A 
ATOM     19  C   UNL     1      46.431   2.491   7.746  0.00  0.00    +0.000 A 
ATOM     20  C   UNL     1      46.357   3.887   7.767  0.00  0.00    +0.000 A 
ATOM     21  C   UNL     1      45.465   4.524   8.639  0.00  0.00    +0.000 A 
BRANCH  19  22
ATOM     22  C   UNL     1      47.388   1.755   6.878  0.00  0.00    +0.000 C 
ATOM     23  N   UNL     1      48.471   2.431   6.398  0.00  0.00    +0.000 N 
ATOM     24  O   UNL     1      47.200   0.577   6.579  0.00  0.00    +0.000 OA
ATOM     25  H   UNL     1      48.636   3.418   6.535  0.00  0.00    +0.000 HD
ATOM     26  H   UNL     1      49.088   1.925   5.776  0.00  0.00    +0.000 HD
ENDBRANCH  19  22
ENDBRANCH  15  16
ENDBRANCH  14  15
ENDBRANCH  10  14
TORSDOF 4
ENDMDL
MODEL 3
REMARK VINA RESULT:    -7.940      1.569      2.155
REMARK INTER + INTRA:         -10.336
REMARK INTER:                  -9.961
REMARK INTRA:                  -0.376
REMARK UNBOUND:                -0.540
REMARK  Name = 
REMARK  5 active torsions:
REMARK  status: ('A' for Active; 'I' for Inactive)
REMARK    1  A    between atoms: C_1  and  C_2
REMARK    2  A    between atoms: C_10  and  C_11
REMARK    3  A    between atoms: C_11  and  O_12
REMARK    4  A    between atoms: O_12  and  C_13
REMARK    5  A    between atoms: C_16  and  C_17
REMARK                            x       y       z     vdW  Elec       q    Type
REMARK                         _______ _______ _______ _____ _____    ______ ____
ROOT
ATOM      1  C   UNL     1      49.220   8.246  16.503  0.00  0.00    +0.000 C 
ATOM      2  C   UNL     1      48.924   7.971  15.032  0.00  0.00    +0.000 C 
ATOM      3  C   UNL     1      48.455   6.519  14.854  0.00  0.00    +0.000 C 
ATOM      4  C   UNL     1      48.005   6.241  13.423  0.00  0.00    +0.000 C 
ATOM      5  N   UNL     1      47.021   7.240  13.050  0.00  0.00    +0.000 N 
ATOM      6  C   UNL     1      45.869   6.855  12.414  0.00  0.00    +0.000 A 
ATOM      7  N   UNL     1      44.973   7.779  12.043  0.00  0.00    +0.000 NA
ATOM      8  C   UNL     1      43.831   7.343  11.481  0.00  0.00    +0.000 A 
ATOM      9  C   UNL     1      43.541   6.019  11.277  0.00  0.00    +0.000 A 
ATOM     10  C   UNL     1      44.498   5.126  11.705  0.00  0.00    +0.000 A 
ATOM     11  N   UNL     1      45.654   5.540  12.253  0.00  0.00    +0.000 NA
ATOM     12  C   UNL     1      47.444   8.626  13.069  0.00  0.00    +0.000 C 
ATOM     13  C   UNL     1      47.879   8.967  14.496  0.00  0.00    +0.000 C 
ENDROOT
BRANCH  10  14
ATOM     14  C   UNL     1      44.279   3.635  11.643  0.00  0.00    +0.000 C 
BRANCH  14  15
ATOM     15  O   UNL     1      43.755   3.263  10.368  0.00  0.00    +0.000 OA
BRANCH  15  16
ATOM     16  C   UNL     1      44.662   3.116   9.354  0.00  0.00    +0.000 A 
ATOM     17  C   UNL     1      45.160   4.135   8.540  0.00  0.00    +0.000 A 
ATOM     18  C   UNL     1      46.100   3.845   7.543  0.00  0.00    +0.000 A 
ATOM     19  C   UNL     1      46.559   2.535   7.355  0.00  0.00    +0.000 A 
ATOM     20  C   UNL     1      46.063   1.513   8.170  0.00  0.00    +0.000 A 
ATOM     21  C   UNL     1      45.114   1.808   9.156  0.00  0.00    +0.000 A 
BRANCH  19  22
ATOM     22  C   UNL     1      47.532   2.282   6.259  0.00  0.00    +0.000 C 
ATOM     23  N   UNL     1      47.413   3.011   5.112  0.00  0.00    +0.000 N 
ATOM     24  O   UNL     1      48.406   1.424   6.369  0.00  0.00    +0.000 OA
ATOM     25  H   UNL     1      46.667   3.666   4.927  0.00  0.00    +0.000 HD
ATOM     26  H   UNL     1      48.057   2.795   4.363  0.00  0.00    +0.000 HD
ENDBRANCH  19  22
ENDBRANCH  15  16
ENDBRANCH  14  15
ENDBRANCH  10  14
TORSDOF 4
ENDMDL
MODEL 4
REMARK VINA RESULT:    -6.984      4.135      8.169
REMARK INTER + INTRA:          -9.158
REMARK INTER:                  -8.726
REMARK INTRA:                  -0.432
REMARK UNBOUND:                -0.540
REMARK  Name = 
REMARK  5 active torsions:
REMARK  status: ('A' for Active; 'I' for Inactive)
REMARK    1  A    between atoms: C_1  and  C_2
REMARK    2  A    between atoms: C_10  and  C_11
REMARK    3  A    between atoms: C_11  and  O_12
REMARK    4  A    between atoms: O_12  and  C_13
REMARK    5  A    between atoms: C_16  and  C_17
REMARK                            x       y       z     vdW  Elec       q    Type
REMARK                         _______ _______ _______ _____ _____    ______ ____
ROOT
ATOM      1  C   UNL     1      44.977   2.768   8.078  0.00  0.00    +0.000 C 
ATOM      2  C   UNL     1      44.696   3.721   9.236  0.00  0.00    +0.000 C 
ATOM      3  C   UNL     1      44.875   2.988  10.574  0.00  0.00    +0.000 C 
ATOM      4  C   UNL     1      44.750   3.939  11.761  0.00  0.00    +0.000 C 
ATOM      5  N   UNL     1      45.661   5.049  11.557  0.00  0.00    +0.000 N 
ATOM      6  C   UNL     1      46.453   5.478  12.591  0.00  0.00    +0.000 A 
ATOM      7  N   UNL     1      47.274   6.521  12.413  0.00  0.00    +0.000 NA
ATOM      8  C   UNL     1      48.075   6.860  13.438  0.00  0.00    +0.000 A 
ATOM      9  C   UNL     1      48.098   6.197  14.638  0.00  0.00    +0.000 A 
ATOM     10  C   UNL     1      47.244   5.120  14.740  0.00  0.00    +0.000 A 
ATOM     11  N   UNL     1      46.422   4.775  13.734  0.00  0.00    +0.000 NA
ATOM     12  C   UNL     1      45.460   5.864  10.375  0.00  0.00    +0.000 C 
ATOM     13  C   UNL     1      45.606   4.961   9.149  0.00  0.00    +0.000 C 
ENDROOT
BRANCH  10  14
ATOM     14  C   UNL     1      47.229   4.231  15.958  0.00  0.00    +0.000 C 
BRANCH  14  15
ATOM     15  O   UNL     1      48.131   4.727  16.947  0.00  0.00    +0.000 OA
BRANCH  15  16
ATOM     16  C   UNL     1      49.258   3.983  17.174  0.00  0.00    +0.000 A 
ATOM     17  C   UNL     1      50.463   4.453  17.697  0.00  0.00    +0.000 A 
ATOM     18  C   UNL     1      51.537   3.575  17.891  0.00  0.00    +0.000 A 
ATOM     19  C   UNL     1      51.415   2.217  17.572  0.00  0.00    +0.000 A 
ATOM     20  C   UNL     1      50.208   1.744  17.048  0.00  0.00    +0.000 A 
ATOM     21  C   UNL     1      49.142   2.630  16.845  0.00  0.00    +0.000 A 
BRANCH  19  22
ATOM     22  C   UNL     1      52.599   1.339  17.768  0.00  0.00    +0.000 C 
ATOM     23  N   UNL     1      52.386   0.051  18.163  0.00  0.00    +0.000 N 
ATOM     24  O   UNL     1      53.741   1.764  17.605  0.00  0.00    +0.000 OA
ATOM     25  H   UNL     1      51.482  -0.333  18.397  0.00  0.00    +0.000 HD
ATOM     26  H   UNL     1      53.205  -0.518  18.332  0.00  0.00    +0.000 HD
ENDBRANCH  19  22
ENDBRANCH  15  16
ENDBRANCH  14  15
ENDBRANCH  10  14
TORSDOF 4
ENDMDL
MODEL 5
REMARK VINA RESULT:    -6.366      2.994      4.701
REMARK INTER + INTRA:          -8.395
REMARK INTER:                  -7.922
REMARK INTRA:                  -0.473
REMARK UNBOUND:                -0.540
REMARK  Name = 
REMARK  5 active torsions:
REMARK  status: ('A' for Active; 'I' for Inactive)
REMARK    1  A    between atoms: C_1  and  C_2
REMARK    2  A    between atoms: C_10  and  C_11
REMARK    3  A    between atoms: C_11  and  O_12
REMARK    4  A    between atoms: O_12  and  C_13
REMARK    5  A    between atoms: C_16  and  C_17
REMARK                            x       y       z     vdW  Elec       q    Type
REMARK                         _______ _______ _______ _____ _____    ______ ____
ROOT
ATOM      1  C   UNL     1      47.309   5.917  20.697  0.00  0.00    +0.000 C 
ATOM      2  C   UNL     1      48.175   5.452  19.530  0.00  0.00    +0.000 C 
ATOM      3  C   UNL     1      47.377   5.534  18.220  0.00  0.00    +0.000 C 
ATOM      4  C   UNL     1      48.248   5.221  17.007  0.00  0.00    +0.000 C 
ATOM      5  N   UNL     1      49.420   6.076  17.052  0.00  0.00    +0.000 N 
ATOM      6  C   UNL     1      49.833   6.723  15.915  0.00  0.00    +0.000 A 
ATOM      7  N   UNL     1      50.931   7.489  15.948  0.00  0.00    +0.000 NA
ATOM      8  C   UNL     1      51.256   8.152  14.824  0.00  0.00    +0.000 A 
ATOM      9  C   UNL     1      50.526   8.089  13.665  0.00  0.00    +0.000 A 
ATOM     10  C   UNL     1      49.398   7.300  13.713  0.00  0.00    +0.000 A 
ATOM     11  N   UNL     1      49.064   6.614  14.821  0.00  0.00    +0.000 NA
ATOM     12  C   UNL     1      50.289   5.949  18.205  0.00  0.00    +0.000 C 
ATOM     13  C   UNL     1      49.469   6.284  19.452  0.00  0.00    +0.000 C 
ENDROOT
BRANCH  10  14
ATOM     14  C   UNL     1      48.440   7.212  12.552  0.00  0.00    +0.000 C 
BRANCH  14  15
ATOM     15  O   UNL     1      47.100   7.068  13.023  0.00  0.00    +0.000 OA
BRANCH  15  16
ATOM     16  C   UNL     1      46.351   6.081  12.441  0.00  0.00    +0.000 A 
ATOM     17  C   UNL     1      45.936   6.039  11.109  0.00  0.00    +0.000 A 
ATOM     18  C   UNL     1      45.180   4.958  10.640  0.00  0.00    +0.000 A 
ATOM     19  C   UNL     1      44.839   3.902  11.495  0.00  0.00    +0.000 A 
ATOM     20  C   UNL     1      45.255   3.940  12.829  0.00  0.00    +0.000 A 
ATOM     21  C   UNL     1      45.999   5.032  13.295  0.00  0.00    +0.000 A 
BRANCH  19  22
ATOM     22  C   UNL     1      44.007   2.796  10.949  0.00  0.00    +0.000 C 
ATOM     23  N   UNL     1      44.429   2.177   9.808  0.00  0.00    +0.000 N 
ATOM     24  O   UNL     1      42.956   2.462  11.493  0.00  0.00    +0.000 OA
ATOM     25  H   UNL     1      45.233   2.461   9.269  0.00  0.00    +0.000 HD
ATOM     26  H   UNL     1      43.828   1.457   9.430  0.00  0.00    +0.000 HD
ENDBRANCH  19  22
ENDBRANCH  15  16
ENDBRANCH  14  15
ENDBRANCH  10  14
TORSDOF 4
ENDMDL
MODEL 6
REMARK VINA RESULT:    -6.018      3.783      6.088
REMARK INTER + INTRA:          -7.966
REMARK INTER:                  -7.548
REMARK INTRA:                  -0.418
REMARK UNBOUND:                -0.540
REMARK  Name = 
REMARK  5 active torsions:
REMARK  status: ('A' for Active; 'I' for Inactive)
REMARK    1  A    between atoms: C_1  and  C_2
REMARK    2  A    between atoms: C_10  and  C_11
REMARK    3  A    between atoms: C_11  and  O_12
REMARK    4  A    between atoms: O_12  and  C_13
REMARK    5  A    between atoms: C_16  and  C_17
REMARK                            x       y       z     vdW  Elec       q    Type
REMARK                         _______ _______ _______ _____ _____    ______ ____
ROOT
ATOM      1  C   UNL     1      55.775   4.151  17.312  0.00  0.00    +0.000 C 
ATOM      2  C   UNL     1      54.463   4.598  17.951  0.00  0.00    +0.000 C 
ATOM      3  C   UNL     1      53.647   5.426  16.948  0.00  0.00    +0.000 C 
ATOM      4  C   UNL     1      52.263   5.769  17.490  0.00  0.00    +0.000 C 
ATOM      5  N   UNL     1      51.621   4.539  17.917  0.00  0.00    +0.000 N 
ATOM      6  C   UNL     1      50.316   4.298  17.571  0.00  0.00    +0.000 A 
ATOM      7  N   UNL     1      49.713   3.178  17.988  0.00  0.00    +0.000 NA
ATOM      8  C   UNL     1      48.455   2.958  17.568  0.00  0.00    +0.000 A 
ATOM      9  C   UNL     1      47.770   3.811  16.741  0.00  0.00    +0.000 A 
ATOM     10  C   UNL     1      48.461   4.930  16.334  0.00  0.00    +0.000 A 
ATOM     11  N   UNL     1      49.713   5.178  16.756  0.00  0.00    +0.000 NA
ATOM     12  C   UNL     1      52.277   3.777  18.960  0.00  0.00    +0.000 C 
ATOM     13  C   UNL     1      53.665   3.380  18.453  0.00  0.00    +0.000 C 
ENDROOT
BRANCH  10  14
ATOM     14  C   UNL     1      47.879   5.907  15.343  0.00  0.00    +0.000 C 
BRANCH  14  15
ATOM     15  O   UNL     1      48.216   5.522  14.010  0.00  0.00    +0.000 OA
BRANCH  15  16
ATOM     16  C   UNL     1      47.170   5.235  13.174  0.00  0.00    +0.000 A 
ATOM     17  C   UNL     1      46.568   6.116  12.276  0.00  0.00    +0.000 A 
ATOM     18  C   UNL     1      45.509   5.684  11.467  0.00  0.00    +0.000 A 
ATOM     19  C   UNL     1      45.047   4.364  11.541  0.00  0.00    +0.000 A 
ATOM     20  C   UNL     1      45.650   3.478  12.439  0.00  0.00    +0.000 A 
ATOM     21  C   UNL     1      46.700   3.921  13.254  0.00  0.00    +0.000 A 
BRANCH  19  22
ATOM     22  C   UNL     1      43.899   3.972  10.681  0.00  0.00    +0.000 C 
ATOM     23  N   UNL     1      43.704   4.656   9.517  0.00  0.00    +0.000 N 
ATOM     24  O   UNL     1      43.129   3.074  11.018  0.00  0.00    +0.000 OA
ATOM     25  H   UNL     1      44.247   5.457   9.228  0.00  0.00    +0.000 HD
ATOM     26  H   UNL     1      42.894   4.402   8.967  0.00  0.00    +0.000 HD
ENDBRANCH  19  22
ENDBRANCH  15  16
ENDBRANCH  14  15
ENDBRANCH  10  14
TORSDOF 4
ENDMDL
MODEL 7
REMARK VINA RESULT:    -5.831      3.519      8.073
REMARK INTER + INTRA:          -7.735
REMARK INTER:                  -7.247
REMARK INTRA:                  -0.488
REMARK UNBOUND:                -0.540
REMARK  Name = 
REMARK  5 active torsions:
REMARK  status: ('A' for Active; 'I' for Inactive)
REMARK    1  A    between atoms: C_1  and  C_2
REMARK    2  A    between atoms: C_10  and  C_11
REMARK    3  A    between atoms: C_11  and  O_12
REMARK    4  A    between atoms: O_12  and  C_13
REMARK    5  A    between atoms: C_16  and  C_17
REMARK                            x       y       z     vdW  Elec       q    Type
REMARK                         _______ _______ _______ _____ _____    ______ ____
ROOT
ATOM      1  C   UNL     1      44.297   2.398  10.065  0.00  0.00    +0.000 C 
ATOM      2  C   UNL     1      44.037   3.476  11.113  0.00  0.00    +0.000 C 
ATOM      3  C   UNL     1      45.293   3.685  11.973  0.00  0.00    +0.000 C 
ATOM      4  C   UNL     1      45.130   4.856  12.937  0.00  0.00    +0.000 C 
ATOM      5  N   UNL     1      44.722   6.022  12.176  0.00  0.00    +0.000 N 
ATOM      6  C   UNL     1      45.330   7.230  12.405  0.00  0.00    +0.000 A 
ATOM      7  N   UNL     1      44.936   8.313  11.723  0.00  0.00    +0.000 NA
ATOM      8  C   UNL     1      45.608   9.458  11.938  0.00  0.00    +0.000 A 
ATOM      9  C   UNL     1      46.666   9.568  12.803  0.00  0.00    +0.000 A 
ATOM     10  C   UNL     1      47.030   8.408  13.451  0.00  0.00    +0.000 A 
ATOM     11  N   UNL     1      46.361   7.257  13.264  0.00  0.00    +0.000 NA
ATOM     12  C   UNL     1      43.473   5.934  11.446  0.00  0.00    +0.000 C 
ATOM     13  C   UNL     1      43.594   4.789  10.440  0.00  0.00    +0.000 C 
ENDROOT
BRANCH  10  14
ATOM     14  C   UNL     1      48.237   8.347  14.353  0.00  0.00    +0.000 C 
BRANCH  14  15
ATOM     15  O   UNL     1      48.765   7.021  14.387  0.00  0.00    +0.000 OA
BRANCH  15  16
ATOM     16  C   UNL     1      48.992   6.485  15.626  0.00  0.00    +0.000 A 
ATOM     17  C   UNL     1      49.968   6.895  16.535  0.00  0.00    +0.000 A 
ATOM     18  C   UNL     1      50.081   6.264  17.780  0.00  0.00    +0.000 A 
ATOM     19  C   UNL     1      49.214   5.223  18.134  0.00  0.00    +0.000 A 
ATOM     20  C   UNL     1      48.233   4.812  17.226  0.00  0.00    +0.000 A 
ATOM     21  C   UNL     1      48.134   5.439  15.977  0.00  0.00    +0.000 A 
BRANCH  19  22
ATOM     22  C   UNL     1      49.403   4.569  19.456  0.00  0.00    +0.000 C 
ATOM     23  N   UNL     1      48.497   3.625  19.842  0.00  0.00    +0.000 N 
ATOM     24  O   UNL     1      50.333   4.885  20.196  0.00  0.00    +0.000 OA
ATOM     25  H   UNL     1      47.666   3.384  19.320  0.00  0.00    +0.000 HD
ATOM     26  H   UNL     1      48.618   3.222  20.761  0.00  0.00    +0.000 HD
ENDBRANCH  19  22
ENDBRANCH  15  16
ENDBRANCH  14  15
ENDBRANCH  10  14
TORSDOF 4
ENDMDL
