MODEL 1
REMARK VINA RESULT:    -9.204      0.000      0.000
REMARK INTER + INTRA:         -14.063
REMARK INTER:                 -12.971
REMARK INTRA:                  -1.092
REMARK UNBOUND:                -1.092
REMARK  Name = 
REMARK  8 active torsions:
REMARK  status: ('A' for Active; 'I' for Inactive)
REMARK    1  A    between atoms: C_1  and  C_2
REMARK    2  A    between atoms: C_4  and  O_5
REMARK    3  A    between atoms: O_5  and  C_6
REMARK    4  A    between atoms: C_6  and  C_7
REMARK    5  A    between atoms: C_7  and  C_10
REMARK    6  A    between atoms: C_14  and  O_15
REMARK    7  A    between atoms: O_15  and  C_16
REMARK    8  A    between atoms: C_23  and  C_24
REMARK                            x       y       z     vdW  Elec       q    Type
REMARK                         _______ _______ _______ _____ _____    ______ ____
ROOT
ATOM      1  C   UNL     1      43.399   4.386  10.908  0.00  0.00    +0.000 C 
ENDROOT
BRANCH   1   2
ATOM      2  C   UNL     1      43.683   4.622  12.402  0.00  0.00    +0.000 C 
ATOM      3  F   UNL     1      43.568   3.436  13.067  0.00  0.00    +0.000 F 
ATOM      4  F   UNL     1      42.709   5.430  12.917  0.00  0.00    +0.000 F 
BRANCH   2   5
ATOM      5  C   UNL     1      45.068   5.232  12.570  0.00  0.00    +0.000 A 
ATOM      6  C   UNL     1      45.575   6.136  11.625  0.00  0.00    +0.000 A 
ATOM      7  C   UNL     1      46.858   6.668  11.775  0.00  0.00    +0.000 A 
ATOM      8  C   UNL     1      47.654   6.298  12.862  0.00  0.00    +0.000 A 
ATOM      9  C   UNL     1      47.169   5.385  13.795  0.00  0.00    +0.000 A 
ATOM     10  C   UNL     1      45.878   4.870  13.658  0.00  0.00    +0.000 A 
BRANCH   9  11
ATOM     11  O   UNL     1      47.859   4.951  14.899  0.00  0.00    +0.000 OA
BRANCH  11  12
ATOM     12  C   UNL     1      47.206   4.036  15.807  0.00  0.00    +0.000 C 
ATOM     13  C   UNL     1      47.138   4.414  17.294  0.00  0.00    +0.000 C 
ATOM     14  O   UNL     1      47.730   3.154  17.690  0.00  0.00    +0.000 OA
ATOM     15  C   UNL     1      48.077   2.876  16.312  0.00  0.00    +0.000 C 
ENDBRANCH  11  12
ENDBRANCH   9  11
ENDBRANCH   2   5
ENDBRANCH   1   2
BRANCH   1  16
ATOM     16  O   UNL     1      43.685   3.034  10.511  0.00  0.00    +0.000 OA
BRANCH  16  20
ATOM     17  C   UNL     1      46.687   0.285   7.679  0.00  0.00    +0.000 C 
ATOM     18  C   UNL     1      46.096   1.624   8.030  0.00  0.00    +0.000 A 
ATOM     19  C   UNL     1      45.181   1.682   9.101  0.00  0.00    +0.000 A 
ATOM     20  C   UNL     1      44.583   2.885   9.486  0.00  0.00    +0.000 A 
ATOM     21  C   UNL     1      44.907   4.048   8.794  0.00  0.00    +0.000 A 
ATOM     22  C   UNL     1      45.817   4.016   7.729  0.00  0.00    +0.000 A 
ATOM     23  C   UNL     1      46.414   2.806   7.332  0.00  0.00    +0.000 A 
BRANCH  23  24
ATOM     24  C   UNL     1      47.394   2.796   6.199  0.00  0.00    +0.000 C 
ATOM     25  N   UNL     1      48.720   2.684   6.516  0.00  0.00    +0.000 N 
ATOM     26  O   UNL     1      47.056   2.890   5.026  0.00  0.00    +0.000 OA
ATOM     27  H   UNL     1      49.080   2.787   7.454  0.00  0.00    +0.000 HD
ATOM     28  H   UNL     1      49.372   2.765   5.748  0.00  0.00    +0.000 HD
ENDBRANCH  23  24
ENDBRANCH  16  20
ENDBRANCH   1  16
TORSDOF 7
ENDMDL
MODEL 2
REMARK VINA RESULT:    -7.947      2.095      3.535
REMARK INTER + INTRA:         -12.290
REMARK INTER:                 -11.538
REMARK INTRA:                  -0.752
REMARK UNBOUND:                -1.092
REMARK  Name = 
REMARK  8 active torsions:
REMARK  status: ('A' for Active; 'I' for Inactive)
REMARK    1  A    between atoms: C_1  and  C_2
REMARK    2  A    between atoms: C_4  and  O_5
REMARK    3  A    between atoms: O_5  and  C_6
REMARK    4  A    between atoms: C_6  and  C_7
REMARK    5  A    between atoms: C_7  and  C_10
REMARK    6  A    between atoms: C_14  and  O_15
REMARK    7  A    between atoms: O_15  and  C_16
REMARK    8  A    between atoms: C_23  and  C_24
REMARK                            x       y       z     vdW  Elec       q    Type
REMARK                         _______ _______ _______ _____ _____    ______ ____
ROOT
ATOM      1  C   UNL     1      43.621   4.538  10.386  0.00  0.00    +0.000 C 
ENDROOT
BRANCH   1   2
ATOM      2  C   UNL     1      43.621   4.694  11.916  0.00  0.00    +0.000 C 
ATOM      3  F   UNL     1      43.253   3.507  12.481  0.00  0.00    +0.000 F 
ATOM      4  F   UNL     1      42.650   5.587  12.271  0.00  0.00    +0.000 F 
BRANCH   2   5
ATOM      5  C   UNL     1      44.997   5.141  12.387  0.00  0.00    +0.000 A 
ATOM      6  C   UNL     1      45.749   4.350  13.268  0.00  0.00    +0.000 A 
ATOM      7  C   UNL     1      47.000   4.782  13.714  0.00  0.00    +0.000 A 
ATOM      8  C   UNL     1      47.511   6.013  13.297  0.00  0.00    +0.000 A 
ATOM      9  C   UNL     1      46.766   6.817  12.438  0.00  0.00    +0.000 A 
ATOM     10  C   UNL     1      45.525   6.375  11.974  0.00  0.00    +0.000 A 
BRANCH   9  11
ATOM     11  O   UNL     1      47.168   8.040  11.963  0.00  0.00    +0.000 OA
BRANCH  11  12
ATOM     12  C   UNL     1      46.642   9.232  12.590  0.00  0.00    +0.000 C 
ATOM     13  C   UNL     1      45.445   9.931  11.929  0.00  0.00    +0.000 C 
ATOM     14  O   UNL     1      46.142  11.200  11.900  0.00  0.00    +0.000 OA
ATOM     15  C   UNL     1      47.380  10.535  12.249  0.00  0.00    +0.000 C 
ENDBRANCH  11  12
ENDBRANCH   9  11
ENDBRANCH   2   5
ENDBRANCH   1   2
BRANCH   1  16
ATOM     16  O   UNL     1      43.717   3.162   9.983  0.00  0.00    +0.000 OA
BRANCH  16  20
ATOM     17  C   UNL     1      46.725  -0.071   7.724  0.00  0.00    +0.000 C 
ATOM     18  C   UNL     1      46.280   1.348   7.957  0.00  0.00    +0.000 A 
ATOM     19  C   UNL     1      45.218   1.568   8.858  0.00  0.00    +0.000 A 
ATOM     20  C   UNL     1      44.742   2.855   9.125  0.00  0.00    +0.000 A 
ATOM     21  C   UNL     1      45.338   3.939   8.486  0.00  0.00    +0.000 A 
ATOM     22  C   UNL     1      46.398   3.744   7.590  0.00  0.00    +0.000 A 
ATOM     23  C   UNL     1      46.874   2.451   7.311  0.00  0.00    +0.000 A 
BRANCH  23  24
ATOM     24  C   UNL     1      48.017   2.268   6.359  0.00  0.00    +0.000 C 
ATOM     25  N   UNL     1      49.149   3.000   6.589  0.00  0.00    +0.000 N 
ATOM     26  O   UNL     1      47.969   1.507   5.401  0.00  0.00    +0.000 OA
ATOM     27  H   UNL     1      49.193   3.771   7.240  0.00  0.00    +0.000 HD
ATOM     28  H   UNL     1      49.877   2.929   5.891  0.00  0.00    +0.000 HD
ENDBRANCH  23  24
ENDBRANCH  16  20
ENDBRANCH   1  16
TORSDOF 7
ENDMDL
MODEL 3
REMARK VINA RESULT:    -7.306      3.087      8.147
REMARK INTER + INTRA:         -11.388
REMARK INTER:                 -10.588
REMARK INTRA:                  -0.800
REMARK UNBOUND:                -1.092
REMARK  Name = 
REMARK  8 active torsions:
REMARK  status: ('A' for Active; 'I' for Inactive)
REMARK    1  A    between atoms: C_1  and  C_2
REMARK    2  A    between atoms: C_4  and  O_5
REMARK    3  A    between atoms: O_5  and  C_6
REMARK    4  A    between atoms: C_6  and  C_7
REMARK    5  A    between atoms: C_7  and  C_10
REMARK    6  A    between atoms: C_14  and  O_15
REMARK    7  A    between atoms: O_15  and  C_16
REMARK    8  A    between atoms: C_23  and  C_24
REMARK                            x       y       z     vdW  Elec       q    Type
REMARK                         _______ _______ _______ _____ _____    ______ ____
ROOT
ATOM      1  C   UNL     1      45.801   5.965  12.725  0.00  0.00    +0.000 C 
ENDROOT
BRANCH   1   2
ATOM      2  C   UNL     1      45.764   6.233  11.211  0.00  0.00    +0.000 C 
ATOM      3  F   UNL     1      47.009   6.613  10.798  0.00  0.00    +0.000 F 
ATOM      4  F   UNL     1      44.954   7.306  10.970  0.00  0.00    +0.000 F 
BRANCH   2   5
ATOM      5  C   UNL     1      45.283   4.988  10.481  0.00  0.00    +0.000 A 
ATOM      6  C   UNL     1      44.507   4.023  11.140  0.00  0.00    +0.000 A 
ATOM      7  C   UNL     1      44.093   2.870  10.468  0.00  0.00    +0.000 A 
ATOM      8  C   UNL     1      44.457   2.660   9.136  0.00  0.00    +0.000 A 
ATOM      9  C   UNL     1      45.244   3.601   8.477  0.00  0.00    +0.000 A 
ATOM     10  C   UNL     1      45.639   4.765   9.141  0.00  0.00    +0.000 A 
BRANCH   9  11
ATOM     11  O   UNL     1      45.659   3.501   7.173  0.00  0.00    +0.000 OA
BRANCH  11  12
ATOM     12  C   UNL     1      47.032   3.134   6.910  0.00  0.00    +0.000 C 
ATOM     13  C   UNL     1      47.400   2.667   5.494  0.00  0.00    +0.000 C 
ATOM     14  O   UNL     1      47.991   1.446   6.000  0.00  0.00    +0.000 OA
ATOM     15  C   UNL     1      47.418   1.700   7.305  0.00  0.00    +0.000 C 
ENDBRANCH  11  12
ENDBRANCH   9  11
ENDBRANCH   2   5
ENDBRANCH   1   2
BRANCH   1  16
ATOM     16  O   UNL     1      47.015   6.443  13.329  0.00  0.00    +0.000 OA
BRANCH  16  20
ATOM     17  C   UNL     1      49.614   6.099  17.539  0.00  0.00    +0.000 C 
ATOM     18  C   UNL     1      48.700   5.473  16.519  0.00  0.00    +0.000 A 
ATOM     19  C   UNL     1      48.303   6.258  15.418  0.00  0.00    +0.000 A 
ATOM     20  C   UNL     1      47.452   5.753  14.431  0.00  0.00    +0.000 A 
ATOM     21  C   UNL     1      46.995   4.443  14.542  0.00  0.00    +0.000 A 
ATOM     22  C   UNL     1      47.380   3.643  15.627  0.00  0.00    +0.000 A 
ATOM     23  C   UNL     1      48.228   4.149  16.627  0.00  0.00    +0.000 A 
BRANCH  23  24
ATOM     24  C   UNL     1      48.638   3.271  17.770  0.00  0.00    +0.000 C 
ATOM     25  N   UNL     1      47.867   3.311  18.899  0.00  0.00    +0.000 N 
ATOM     26  O   UNL     1      49.620   2.542  17.731  0.00  0.00    +0.000 OA
ATOM     27  H   UNL     1      47.161   4.013  19.069  0.00  0.00    +0.000 HD
ATOM     28  H   UNL     1      48.204   2.778  19.690  0.00  0.00    +0.000 HD
ENDBRANCH  23  24
ENDBRANCH  16  20
ENDBRANCH   1  16
TORSDOF 7
ENDMDL
MODEL 4
REMARK VINA RESULT:    -6.607      3.261      7.670
REMARK INTER + INTRA:         -10.402
REMARK INTER:                  -9.693
REMARK INTRA:                  -0.708
REMARK UNBOUND:                -1.092
REMARK  Name = 
REMARK  8 active torsions:
REMARK  status: ('A' for Active; 'I' for Inactive)
REMARK    1  A    between atoms: C_1  and  C_2
REMARK    2  A    between atoms: C_4  and  O_5
REMARK    3  A    between atoms: O_5  and  C_6
REMARK    4  A    between atoms: C_6  and  C_7
REMARK    5  A    between atoms: C_7  and  C_10
REMARK    6  A    between atoms: C_14  and  O_15
REMARK    7  A    between atoms: O_15  and  C_16
REMARK    8  A    between atoms: C_23  and  C_24
REMARK                            x       y       z     vdW  Elec       q    Type
REMARK                         _______ _______ _______ _____ _____    ______ ____
ROOT
ATOM      1  C   UNL     1      46.413   5.895  12.301  0.00  0.00    +0.000 C 
ENDROOT
BRANCH   1   2
ATOM      2  C   UNL     1      45.142   6.052  11.448  0.00  0.00    +0.000 C 
ATOM      3  F   UNL     1      45.216   7.226  10.756  0.00  0.00    +0.000 F 
ATOM      4  F   UNL     1      44.064   6.182  12.278  0.00  0.00    +0.000 F 
BRANCH   2   5
ATOM      5  C   UNL     1      44.997   4.856  10.519  0.00  0.00    +0.000 A 
ATOM      6  C   UNL     1      44.261   3.728  10.907  0.00  0.00    +0.000 A 
ATOM      7  C   UNL     1      44.157   2.625  10.056  0.00  0.00    +0.000 A 
ATOM      8  C   UNL     1      44.795   2.629   8.813  0.00  0.00    +0.000 A 
ATOM      9  C   UNL     1      45.547   3.735   8.425  0.00  0.00    +0.000 A 
ATOM     10  C   UNL     1      45.632   4.847   9.266  0.00  0.00    +0.000 A 
BRANCH   9  11
ATOM     11  O   UNL     1      46.213   3.850   7.232  0.00  0.00    +0.000 OA
BRANCH  11  12
ATOM     12  C   UNL     1      46.509   2.647   6.486  0.00  0.00    +0.000 C 
ATOM     13  C   UNL     1      47.573   1.691   7.044  0.00  0.00    +0.000 C 
ATOM     14  O   UNL     1      48.308   1.707   5.797  0.00  0.00    +0.000 OA
ATOM     15  C   UNL     1      47.505   2.817   5.329  0.00  0.00    +0.000 C 
ENDBRANCH  11  12
ENDBRANCH   9  11
ENDBRANCH   2   5
ENDBRANCH   1   2
BRANCH   1  16
ATOM     16  O   UNL     1      46.724   7.093  13.032  0.00  0.00    +0.000 OA
BRANCH  16  20
ATOM     17  C   UNL     1      48.809  11.037  10.866  0.00  0.00    +0.000 C 
ATOM     18  C   UNL     1      48.947   9.698  11.539  0.00  0.00    +0.000 A 
ATOM     19  C   UNL     1      47.771   9.043  11.956  0.00  0.00    +0.000 A 
ATOM     20  C   UNL     1      47.814   7.800  12.593  0.00  0.00    +0.000 A 
ATOM     21  C   UNL     1      49.050   7.200  12.814  0.00  0.00    +0.000 A 
ATOM     22  C   UNL     1      50.233   7.830  12.404  0.00  0.00    +0.000 A 
ATOM     23  C   UNL     1      50.196   9.085  11.771  0.00  0.00    +0.000 A 
BRANCH  23  24
ATOM     24  C   UNL     1      51.472   9.735  11.330  0.00  0.00    +0.000 C 
ATOM     25  N   UNL     1      51.974   9.369  10.111  0.00  0.00    +0.000 N 
ATOM     26  O   UNL     1      52.069  10.558  12.010  0.00  0.00    +0.000 OA
ATOM     27  H   UNL     1      51.639   8.574   9.585  0.00  0.00    +0.000 HD
ATOM     28  H   UNL     1      52.877   9.752   9.866  0.00  0.00    +0.000 HD
ENDBRANCH  23  24
ENDBRANCH  16  20
ENDBRANCH   1  16
TORSDOF 7
ENDMDL
MODEL 5
REMARK VINA RESULT:    -6.396      3.507      8.496
REMARK INTER + INTRA:         -10.105
REMARK INTER:                  -9.454
REMARK INTRA:                  -0.651
REMARK UNBOUND:                -1.092
REMARK  Name = 
REMARK  8 active torsions:
REMARK  status: ('A' for Active; 'I' for Inactive)
REMARK    1  A    between atoms: C_1  and  C_2
REMARK    2  A    between atoms: C_4  and  O_5
REMARK    3  A    between atoms: O_5  and  C_6
REMARK    4  A    between atoms: C_6  and  C_7
REMARK    5  A    between atoms: C_7  and  C_10
REMARK    6  A    between atoms: C_14  and  O_15
REMARK    7  A    between atoms: O_15  and  C_16
REMARK    8  A    between atoms: C_23  and  C_24
REMARK                            x       y       z     vdW  Elec       q    Type
REMARK                         _______ _______ _______ _____ _____    ______ ____
ROOT
ATOM      1  C   UNL     1      47.858   5.797  13.123  0.00  0.00    +0.000 C 
ENDROOT
BRANCH   1   2
ATOM      2  C   UNL     1      46.760   6.433  12.253  0.00  0.00    +0.000 C 
ATOM      3  F   UNL     1      47.344   7.047  11.183  0.00  0.00    +0.000 F 
ATOM      4  F   UNL     1      46.152   7.429  12.962  0.00  0.00    +0.000 F 
BRANCH   2   5
ATOM      5  C   UNL     1      45.767   5.364  11.818  0.00  0.00    +0.000 A 
ATOM      6  C   UNL     1      45.230   4.461  12.746  0.00  0.00    +0.000 A 
ATOM      7  C   UNL     1      44.340   3.467  12.332  0.00  0.00    +0.000 A 
ATOM      8  C   UNL     1      43.985   3.354  10.985  0.00  0.00    +0.000 A 
ATOM      9  C   UNL     1      44.528   4.232  10.051  0.00  0.00    +0.000 A 
ATOM     10  C   UNL     1      45.400   5.241  10.468  0.00  0.00    +0.000 A 
BRANCH   9  11
ATOM     11  O   UNL     1      44.251   4.216   8.707  0.00  0.00    +0.000 OA
BRANCH  11  12
ATOM     12  C   UNL     1      44.855   3.189   7.888  0.00  0.00    +0.000 C 
ATOM     13  C   UNL     1      45.646   2.075   8.589  0.00  0.00    +0.000 C 
ATOM     14  O   UNL     1      46.811   2.319   7.764  0.00  0.00    +0.000 OA
ATOM     15  C   UNL     1      46.219   3.549   7.280  0.00  0.00    +0.000 C 
ENDBRANCH  11  12
ENDBRANCH   9  11
ENDBRANCH   2   5
ENDBRANCH   1   2
BRANCH   1  16
ATOM     16  O   UNL     1      48.329   6.697  14.140  0.00  0.00    +0.000 OA
BRANCH  16  20
ATOM     17  C   UNL     1      47.246   3.217  17.504  0.00  0.00    +0.000 C 
ATOM     18  C   UNL     1      47.801   4.576  17.170  0.00  0.00    +0.000 A 
ATOM     19  C   UNL     1      47.794   4.979  15.820  0.00  0.00    +0.000 A 
ATOM     20  C   UNL     1      48.295   6.223  15.427  0.00  0.00    +0.000 A 
ATOM     21  C   UNL     1      48.808   7.079  16.397  0.00  0.00    +0.000 A 
ATOM     22  C   UNL     1      48.822   6.701  17.747  0.00  0.00    +0.000 A 
ATOM     23  C   UNL     1      48.326   5.447  18.146  0.00  0.00    +0.000 A 
BRANCH  23  24
ATOM     24  C   UNL     1      48.339   5.069  19.596  0.00  0.00    +0.000 C 
ATOM     25  N   UNL     1      47.255   5.430  20.348  0.00  0.00    +0.000 N 
ATOM     26  O   UNL     1      49.268   4.467  20.119  0.00  0.00    +0.000 OA
ATOM     27  H   UNL     1      46.547   6.077  20.032  0.00  0.00    +0.000 HD
ATOM     28  H   UNL     1      47.316   5.243  21.340  0.00  0.00    +0.000 HD
ENDBRANCH  23  24
ENDBRANCH  16  20
ENDBRANCH   1  16
TORSDOF 7
ENDMDL
MODEL 6
REMARK VINA RESULT:    -6.259      3.615      6.270
REMARK INTER + INTRA:          -9.912
REMARK INTER:                  -9.034
REMARK INTRA:                  -0.877
REMARK UNBOUND:                -1.092
REMARK  Name = 
REMARK  8 active torsions:
REMARK  status: ('A' for Active; 'I' for Inactive)
REMARK    1  A    between atoms: C_1  and  C_2
REMARK    2  A    between atoms: C_4  and  O_5
REMARK    3  A    between atoms: O_5  and  C_6
REMARK    4  A    between atoms: C_6  and  C_7
REMARK    5  A    between atoms: C_7  and  C_10
REMARK    6  A    between atoms: C_14  and  O_15
REMARK    7  A    between atoms: O_15  and  C_16
REMARK    8  A    between atoms: C_23  and  C_24
REMARK                            x       y       z     vdW  Elec       q    Type
REMARK                         _______ _______ _______ _____ _____    ______ ____
ROOT
ATOM      1  C   UNL     1      47.171   4.099  16.092  0.00  0.00    +0.000 C 
ENDROOT
BRANCH   1   2
ATOM      2  C   UNL     1      48.009   3.047  16.840  0.00  0.00    +0.000 C 
ATOM      3  F   UNL     1      48.485   2.139  15.939  0.00  0.00    +0.000 F 
ATOM      4  F   UNL     1      47.192   2.341  17.677  0.00  0.00    +0.000 F 
BRANCH   2   5
ATOM      5  C   UNL     1      49.135   3.734  17.599  0.00  0.00    +0.000 A 
ATOM      6  C   UNL     1      50.457   3.275  17.496  0.00  0.00    +0.000 A 
ATOM      7  C   UNL     1      51.479   3.897  18.218  0.00  0.00    +0.000 A 
ATOM      8  C   UNL     1      51.194   4.975  19.059  0.00  0.00    +0.000 A 
ATOM      9  C   UNL     1      49.883   5.427  19.185  0.00  0.00    +0.000 A 
ATOM     10  C   UNL     1      48.864   4.820  18.446  0.00  0.00    +0.000 A 
BRANCH   9  11
ATOM     11  O   UNL     1      49.488   6.475  19.978  0.00  0.00    +0.000 OA
BRANCH  11  12
ATOM     12  C   UNL     1      48.155   7.008  19.806  0.00  0.00    +0.000 C 
ATOM     13  C   UNL     1      47.998   8.346  19.070  0.00  0.00    +0.000 C 
ATOM     14  O   UNL     1      47.238   8.913  20.164  0.00  0.00    +0.000 OA
ATOM     15  C   UNL     1      47.600   7.791  21.006  0.00  0.00    +0.000 C 
ENDBRANCH  11  12
ENDBRANCH   9  11
ENDBRANCH   2   5
ENDBRANCH   1   2
BRANCH   1  16
ATOM     16  O   UNL     1      47.762   4.464  14.834  0.00  0.00    +0.000 OA
BRANCH  16  20
ATOM     17  C   UNL     1      45.367   7.374  11.610  0.00  0.00    +0.000 C 
ATOM     18  C   UNL     1      45.655   6.002  12.159  0.00  0.00    +0.000 A 
ATOM     19  C   UNL     1      46.565   5.897  13.231  0.00  0.00    +0.000 A 
ATOM     20  C   UNL     1      46.890   4.660  13.793  0.00  0.00    +0.000 A 
ATOM     21  C   UNL     1      46.296   3.511  13.281  0.00  0.00    +0.000 A 
ATOM     22  C   UNL     1      45.385   3.591  12.218  0.00  0.00    +0.000 A 
ATOM     23  C   UNL     1      45.061   4.832  11.643  0.00  0.00    +0.000 A 
BRANCH  23  24
ATOM     24  C   UNL     1      44.076   4.897  10.516  0.00  0.00    +0.000 C 
ATOM     25  N   UNL     1      44.553   4.687   9.252  0.00  0.00    +0.000 N 
ATOM     26  O   UNL     1      42.886   5.131  10.685  0.00  0.00    +0.000 OA
ATOM     27  H   UNL     1      45.536   4.671   9.022  0.00  0.00    +0.000 HD
ATOM     28  H   UNL     1      43.893   4.818   8.497  0.00  0.00    +0.000 HD
ENDBRANCH  23  24
ENDBRANCH  16  20
ENDBRANCH   1  16
TORSDOF 7
ENDMDL
MODEL 7
REMARK VINA RESULT:    -6.248      3.732      6.498
REMARK INTER + INTRA:          -9.897
REMARK INTER:                  -9.195
REMARK INTRA:                  -0.702
REMARK UNBOUND:                -1.092
REMARK  Name = 
REMARK  8 active torsions:
REMARK  status: ('A' for Active; 'I' for Inactive)
REMARK    1  A    between atoms: C_1  and  C_2
REMARK    2  A    between atoms: C_4  and  O_5
REMARK    3  A    between atoms: O_5  and  C_6
REMARK    4  A    between atoms: C_6  and  C_7
REMARK    5  A    between atoms: C_7  and  C_10
REMARK    6  A    between atoms: C_14  and  O_15
REMARK    7  A    between atoms: O_15  and  C_16
REMARK    8  A    between atoms: C_23  and  C_24
REMARK                            x       y       z     vdW  Elec       q    Type
REMARK                         _______ _______ _______ _____ _____    ______ ____
ROOT
ATOM      1  C   UNL     1      47.224   4.231  16.102  0.00  0.00    +0.000 C 
ENDROOT
BRANCH   1   2
ATOM      2  C   UNL     1      47.863   3.103  16.930  0.00  0.00    +0.000 C 
ATOM      3  F   UNL     1      48.362   2.158  16.080  0.00  0.00    +0.000 F 
ATOM      4  F   UNL     1      46.887   2.472  17.649  0.00  0.00    +0.000 F 
BRANCH   2   5
ATOM      5  C   UNL     1      48.945   3.678  17.832  0.00  0.00    +0.000 A 
ATOM      6  C   UNL     1      48.616   4.282  19.055  0.00  0.00    +0.000 A 
ATOM      7  C   UNL     1      49.615   4.831  19.863  0.00  0.00    +0.000 A 
ATOM      8  C   UNL     1      50.951   4.795  19.456  0.00  0.00    +0.000 A 
ATOM      9  C   UNL     1      51.287   4.217  18.235  0.00  0.00    +0.000 A 
ATOM     10  C   UNL     1      50.292   3.647  17.438  0.00  0.00    +0.000 A 
BRANCH   9  11
ATOM     11  O   UNL     1      52.563   4.124  17.737  0.00  0.00    +0.000 OA
BRANCH  11  12
ATOM     12  C   UNL     1      53.468   3.164  18.327  0.00  0.00    +0.000 C 
ATOM     13  C   UNL     1      54.766   2.833  17.575  0.00  0.00    +0.000 C 
ATOM     14  O   UNL     1      54.481   1.414  17.613  0.00  0.00    +0.000 OA
ATOM     15  C   UNL     1      53.131   1.689  18.058  0.00  0.00    +0.000 C 
ENDBRANCH  11  12
ENDBRANCH   9  11
ENDBRANCH   2   5
ENDBRANCH   1   2
BRANCH   1  16
ATOM     16  O   UNL     1      47.748   4.283  14.765  0.00  0.00    +0.000 OA
BRANCH  16  20
ATOM     17  C   UNL     1      45.279   7.345  11.744  0.00  0.00    +0.000 C 
ATOM     18  C   UNL     1      45.562   5.951  12.235  0.00  0.00    +0.000 A 
ATOM     19  C   UNL     1      46.514   5.792  13.263  0.00  0.00    +0.000 A 
ATOM     20  C   UNL     1      46.837   4.531  13.770  0.00  0.00    +0.000 A 
ATOM     21  C   UNL     1      46.197   3.411  13.247  0.00  0.00    +0.000 A 
ATOM     22  C   UNL     1      45.244   3.545  12.227  0.00  0.00    +0.000 A 
ATOM     23  C   UNL     1      44.922   4.810  11.707  0.00  0.00    +0.000 A 
BRANCH  23  24
ATOM     24  C   UNL     1      43.891   4.931  10.627  0.00  0.00    +0.000 C 
ATOM     25  N   UNL     1      44.294   4.684   9.344  0.00  0.00    +0.000 N 
ATOM     26  O   UNL     1      42.728   5.244  10.849  0.00  0.00    +0.000 OA
ATOM     27  H   UNL     1      45.262   4.603   9.069  0.00  0.00    +0.000 HD
ATOM     28  H   UNL     1      43.608   4.852   8.620  0.00  0.00    +0.000 HD
ENDBRANCH  23  24
ENDBRANCH  16  20
ENDBRANCH   1  16
TORSDOF 7
ENDMDL
