MODEL 1
REMARK VINA RESULT:    -6.311      0.000      0.000
REMARK INTER + INTRA:          -9.465
REMARK INTER:                  -8.340
REMARK INTRA:                  -1.125
REMARK UNBOUND:                -1.125
REMARK  Name = 
REMARK  8 active torsions:
REMARK  status: ('A' for Active; 'I' for Inactive)
REMARK    1  A    between atoms: C_1  and  N_2
REMARK    2  A    between atoms: N_2  and  C_3
REMARK    3  A    between atoms: N_2  and  C_4
REMARK    4  A    between atoms: C_4  and  C_5
REMARK    5  A    between atoms: C_5  and  C_6
REMARK    6  A    between atoms: C_6  and  O_7
REMARK    7  A    between atoms: C_10  and  C_11
REMARK    8  A    between atoms: C_11  and  N_12
REMARK                            x       y       z     vdW  Elec       q    Type
REMARK                         _______ _______ _______ _____ _____    ______ ____
ROOT
ATOM      1  C   UNL     1      48.222   7.452  12.516  0.00  0.00    +0.000 C 
ATOM      2  C   UNL     1      47.645   6.013  12.552  0.00  0.00    +0.000 C 
ATOM      3  C   UNL     1      46.366   5.870  13.381  0.00  0.00    +0.000 C 
ATOM      4  C   UNL     1      45.253   6.839  12.957  0.00  0.00    +0.000 C 
ATOM      5  C   UNL     1      45.793   8.278  12.978  0.00  0.00    +0.000 C 
ATOM      6  C   UNL     1      47.075   8.452  12.152  0.00  0.00    +0.000 C 
ENDROOT
BRANCH   1   7
ATOM      7  C   UNL     1      49.302   7.553  11.375  0.00  0.00    +0.000 C 
BRANCH   7   9
ATOM      8  C   UNL     1      51.610   7.722  10.720  0.00  0.00    +0.000 C 
ATOM      9  N   UNL     1      50.562   8.303  11.576  0.00  0.00    +0.000 NA
ATOM     10  C   UNL     1      50.492   9.736  11.303  0.00  0.00    +0.000 C 
ENDBRANCH   7   9
ENDBRANCH   1   7
BRANCH   1  11
ATOM     11  C   UNL     1      48.782   7.853  13.904  0.00  0.00    +0.000 C 
BRANCH  11  12
ATOM     12  O   UNL     1      49.889   7.045  14.296  0.00  0.00    +0.000 OA
ATOM     13  H   UNL     1      50.520   7.018  13.559  0.00  0.00    +0.000 HD
ENDBRANCH  11  12
ENDBRANCH   1  11
BRANCH   4  14
ATOM     14  C   UNL     1      44.626   6.527  11.579  0.00  0.00    +0.000 C 
BRANCH  14  15
ATOM     15  N   UNL     1      44.293   5.131  11.335  0.00  0.00    +0.000 N 
ATOM     16  C   UNL     1      43.406   4.405  12.088  0.00  0.00    +0.000 A 
ATOM     17  C   UNL     1      43.292   3.155  11.527  0.00  0.00    +0.000 A 
ATOM     18  C   UNL     1      44.108   3.124  10.365  0.00  0.00    +0.000 A 
ATOM     19  C   UNL     1      44.366   2.145   9.384  0.00  0.00    +0.000 A 
ATOM     20  C   UNL     1      45.220   2.442   8.316  0.00  0.00    +0.000 A 
ATOM     21  C   UNL     1      45.816   3.695   8.226  0.00  0.00    +0.000 A 
ATOM     22 CL   UNL     1      46.852   4.048   6.894  0.00  0.00    +0.000 Cl
ATOM     23  C   UNL     1      45.587   4.681   9.189  0.00  0.00    +0.000 A 
ATOM     24  C   UNL     1      44.725   4.377  10.258  0.00  0.00    +0.000 A 
ENDBRANCH  14  15
ENDBRANCH   4  14
TORSDOF 6
ENDMDL
MODEL 2
REMARK VINA RESULT:    -5.766      3.779      7.344
REMARK INTER + INTRA:          -8.745
REMARK INTER:                  -7.871
REMARK INTRA:                  -0.874
REMARK UNBOUND:                -1.125
REMARK  Name = 
REMARK  8 active torsions:
REMARK  status: ('A' for Active; 'I' for Inactive)
REMARK    1  A    between atoms: C_1  and  N_2
REMARK    2  A    between atoms: N_2  and  C_3
REMARK    3  A    between atoms: N_2  and  C_4
REMARK    4  A    between atoms: C_4  and  C_5
REMARK    5  A    between atoms: C_5  and  C_6
REMARK    6  A    between atoms: C_6  and  O_7
REMARK    7  A    between atoms: C_10  and  C_11
REMARK    8  A    between atoms: C_11  and  N_12
REMARK                            x       y       z     vdW  Elec       q    Type
REMARK                         _______ _______ _______ _____ _____    ______ ____
ROOT
ATOM      1  C   UNL     1      44.934   4.448  11.114  0.00  0.00    +0.000 C 
ATOM      2  C   UNL     1      45.702   5.713  10.649  0.00  0.00    +0.000 C 
ATOM      3  C   UNL     1      45.647   6.880  11.638  0.00  0.00    +0.000 C 
ATOM      4  C   UNL     1      46.119   6.505  13.051  0.00  0.00    +0.000 C 
ATOM      5  C   UNL     1      45.320   5.291  13.551  0.00  0.00    +0.000 C 
ATOM      6  C   UNL     1      45.360   4.103  12.579  0.00  0.00    +0.000 C 
ENDROOT
BRANCH   1   7
ATOM      7  C   UNL     1      45.347   3.225  10.213  0.00  0.00    +0.000 C 
BRANCH   7   9
ATOM      8  C   UNL     1      44.993   3.560   7.858  0.00  0.00    +0.000 C 
ATOM      9  N   UNL     1      44.531   2.822   9.045  0.00  0.00    +0.000 NA
ATOM     10  C   UNL     1      44.544   1.396   8.731  0.00  0.00    +0.000 C 
ENDBRANCH   7   9
ENDBRANCH   1   7
BRANCH   1  11
ATOM     11  C   UNL     1      43.405   4.702  11.109  0.00  0.00    +0.000 C 
BRANCH  11  12
ATOM     12  O   UNL     1      42.658   3.513  11.355  0.00  0.00    +0.000 OA
ATOM     13  H   UNL     1      41.760   3.769  11.620  0.00  0.00    +0.000 HD
ENDBRANCH  11  12
ENDBRANCH   1  11
BRANCH   4  14
ATOM     14  C   UNL     1      47.635   6.228  13.164  0.00  0.00    +0.000 C 
BRANCH  14  15
ATOM     15  N   UNL     1      48.268   6.658  14.403  0.00  0.00    +0.000 N 
ATOM     16  C   UNL     1      48.860   7.883  14.583  0.00  0.00    +0.000 A 
ATOM     17  C   UNL     1      49.285   7.963  15.888  0.00  0.00    +0.000 A 
ATOM     18  C   UNL     1      48.906   6.760  16.544  0.00  0.00    +0.000 A 
ATOM     19  C   UNL     1      49.040   6.291  17.867  0.00  0.00    +0.000 A 
ATOM     20  C   UNL     1      48.520   5.039  18.213  0.00  0.00    +0.000 A 
ATOM     21  C   UNL     1      47.878   4.260  17.256  0.00  0.00    +0.000 A 
ATOM     22 CL   UNL     1      47.229   2.728  17.706  0.00  0.00    +0.000 Cl
ATOM     23  C   UNL     1      47.741   4.695  15.936  0.00  0.00    +0.000 A 
ATOM     24  C   UNL     1      48.264   5.955  15.595  0.00  0.00    +0.000 A 
ENDBRANCH  14  15
ENDBRANCH   4  14
TORSDOF 6
ENDMDL
MODEL 3
REMARK VINA RESULT:    -5.656      2.968      6.920
REMARK INTER + INTRA:          -8.599
REMARK INTER:                  -8.048
REMARK INTRA:                  -0.551
REMARK UNBOUND:                -1.125
REMARK  Name = 
REMARK  8 active torsions:
REMARK  status: ('A' for Active; 'I' for Inactive)
REMARK    1  A    between atoms: C_1  and  N_2
REMARK    2  A    between atoms: N_2  and  C_3
REMARK    3  A    between atoms: N_2  and  C_4
REMARK    4  A    between atoms: C_4  and  C_5
REMARK    5  A    between atoms: C_5  and  C_6
REMARK    6  A    between atoms: C_6  and  O_7
REMARK    7  A    between atoms: C_10  and  C_11
REMARK    8  A    between atoms: C_11  and  N_12
REMARK                            x       y       z     vdW  Elec       q    Type
REMARK                         _______ _______ _______ _____ _____    ______ ____
ROOT
ATOM      1  C   UNL     1      44.282   4.265  11.056  0.00  0.00    +0.000 C 
ATOM      2  C   UNL     1      44.359   5.797  11.283  0.00  0.00    +0.000 C 
ATOM      3  C   UNL     1      44.651   6.203  12.731  0.00  0.00    +0.000 C 
ATOM      4  C   UNL     1      45.919   5.552  13.303  0.00  0.00    +0.000 C 
ATOM      5  C   UNL     1      45.828   4.026  13.142  0.00  0.00    +0.000 C 
ATOM      6  C   UNL     1      45.539   3.590  11.699  0.00  0.00    +0.000 C 
ENDROOT
BRANCH   1   7
ATOM      7  C   UNL     1      44.336   3.963   9.512  0.00  0.00    +0.000 C 
BRANCH   7   9
ATOM      8  C   UNL     1      44.998   1.753   8.829  0.00  0.00    +0.000 C 
ATOM      9  N   UNL     1      45.432   3.157   8.926  0.00  0.00    +0.000 NA
ATOM     10  C   UNL     1      45.891   3.585   7.607  0.00  0.00    +0.000 C 
ENDBRANCH   7   9
ENDBRANCH   1   7
BRANCH   1  11
ATOM     11  C   UNL     1      43.023   3.672  11.735  0.00  0.00    +0.000 C 
BRANCH  11  12
ATOM     12  O   UNL     1      42.975   2.250  11.641  0.00  0.00    +0.000 OA
ATOM     13  H   UNL     1      42.986   1.886  12.541  0.00  0.00    +0.000 HD
ENDBRANCH  11  12
ENDBRANCH   1  11
BRANCH   4  14
ATOM     14  C   UNL     1      47.237   6.074  12.688  0.00  0.00    +0.000 C 
BRANCH  14  15
ATOM     15  N   UNL     1      48.221   6.581  13.633  0.00  0.00    +0.000 N 
ATOM     16  C   UNL     1      48.197   6.331  14.982  0.00  0.00    +0.000 A 
ATOM     17  C   UNL     1      49.313   6.907  15.543  0.00  0.00    +0.000 A 
ATOM     18  C   UNL     1      50.070   7.498  14.496  0.00  0.00    +0.000 A 
ATOM     19  C   UNL     1      51.298   8.190  14.455  0.00  0.00    +0.000 A 
ATOM     20  C   UNL     1      51.804   8.631  13.228  0.00  0.00    +0.000 A 
ATOM     21  C   UNL     1      51.097   8.394  12.055  0.00  0.00    +0.000 A 
ATOM     22 CL   UNL     1      51.744   8.932  10.550  0.00  0.00    +0.000 Cl
ATOM     23  C   UNL     1      49.871   7.722  12.066  0.00  0.00    +0.000 A 
ATOM     24  C   UNL     1      49.371   7.278  13.303  0.00  0.00    +0.000 A 
ENDBRANCH  14  15
ENDBRANCH   4  14
TORSDOF 6
ENDMDL
MODEL 4
REMARK VINA RESULT:    -5.626      2.012      3.198
REMARK INTER + INTRA:          -8.560
REMARK INTER:                  -7.561
REMARK INTRA:                  -0.999
REMARK UNBOUND:                -1.125
REMARK  Name = 
REMARK  8 active torsions:
REMARK  status: ('A' for Active; 'I' for Inactive)
REMARK    1  A    between atoms: C_1  and  N_2
REMARK    2  A    between atoms: N_2  and  C_3
REMARK    3  A    between atoms: N_2  and  C_4
REMARK    4  A    between atoms: C_4  and  C_5
REMARK    5  A    between atoms: C_5  and  C_6
REMARK    6  A    between atoms: C_6  and  O_7
REMARK    7  A    between atoms: C_10  and  C_11
REMARK    8  A    between atoms: C_11  and  N_12
REMARK                            x       y       z     vdW  Elec       q    Type
REMARK                         _______ _______ _______ _____ _____    ______ ____
ROOT
ATOM      1  C   UNL     1      48.709   8.137  14.363  0.00  0.00    +0.000 C 
ATOM      2  C   UNL     1      48.283   9.065  13.196  0.00  0.00    +0.000 C 
ATOM      3  C   UNL     1      48.334   8.403  11.816  0.00  0.00    +0.000 C 
ATOM      4  C   UNL     1      47.523   7.101  11.735  0.00  0.00    +0.000 C 
ATOM      5  C   UNL     1      47.979   6.144  12.849  0.00  0.00    +0.000 C 
ATOM      6  C   UNL     1      47.936   6.782  14.244  0.00  0.00    +0.000 C 
ENDROOT
BRANCH   1   7
ATOM      7  C   UNL     1      48.285   8.791  15.731  0.00  0.00    +0.000 C 
BRANCH   7   9
ATOM      8  C   UNL     1      49.761   9.876  17.290  0.00  0.00    +0.000 C 
ATOM      9  N   UNL     1      49.098   8.604  16.954  0.00  0.00    +0.000 NA
ATOM     10  C   UNL     1      48.367   8.145  18.132  0.00  0.00    +0.000 C 
ENDBRANCH   7   9
ENDBRANCH   1   7
BRANCH   1  11
ATOM     11  C   UNL     1      50.225   7.829  14.294  0.00  0.00    +0.000 C 
BRANCH  11  12
ATOM     12  O   UNL     1      50.594   6.735  15.131  0.00  0.00    +0.000 OA
ATOM     13  H   UNL     1      51.451   6.941  15.538  0.00  0.00    +0.000 HD
ENDBRANCH  11  12
ENDBRANCH   1  11
BRANCH   4  14
ATOM     14  C   UNL     1      45.991   7.298  11.798  0.00  0.00    +0.000 C 
BRANCH  14  15
ATOM     15  N   UNL     1      45.201   6.084  11.937  0.00  0.00    +0.000 N 
ATOM     16  C   UNL     1      44.395   5.804  13.012  0.00  0.00    +0.000 A 
ATOM     17  C   UNL     1      43.755   4.613  12.768  0.00  0.00    +0.000 A 
ATOM     18  C   UNL     1      44.151   4.162  11.480  0.00  0.00    +0.000 A 
ATOM     19  C   UNL     1      43.807   3.043  10.693  0.00  0.00    +0.000 A 
ATOM     20  C   UNL     1      44.362   2.897   9.417  0.00  0.00    +0.000 A 
ATOM     21  C   UNL     1      45.253   3.848   8.929  0.00  0.00    +0.000 A 
ATOM     22 CL   UNL     1      45.914   3.659   7.349  0.00  0.00    +0.000 Cl
ATOM     23  C   UNL     1      45.620   4.960   9.691  0.00  0.00    +0.000 A 
ATOM     24  C   UNL     1      45.055   5.103  10.971  0.00  0.00    +0.000 A 
ENDBRANCH  14  15
ENDBRANCH   4  14
TORSDOF 6
ENDMDL
MODEL 5
REMARK VINA RESULT:    -5.517      3.682      7.329
REMARK INTER + INTRA:          -8.415
REMARK INTER:                  -7.186
REMARK INTRA:                  -1.229
REMARK UNBOUND:                -1.125
REMARK  Name = 
REMARK  8 active torsions:
REMARK  status: ('A' for Active; 'I' for Inactive)
REMARK    1  A    between atoms: C_1  and  N_2
REMARK    2  A    between atoms: N_2  and  C_3
REMARK    3  A    between atoms: N_2  and  C_4
REMARK    4  A    between atoms: C_4  and  C_5
REMARK    5  A    between atoms: C_5  and  C_6
REMARK    6  A    between atoms: C_6  and  O_7
REMARK    7  A    between atoms: C_10  and  C_11
REMARK    8  A    between atoms: C_11  and  N_12
REMARK                            x       y       z     vdW  Elec       q    Type
REMARK                         _______ _______ _______ _____ _____    ______ ____
ROOT
ATOM      1  C   UNL     1      45.771   6.520  12.332  0.00  0.00    +0.000 C 
ATOM      2  C   UNL     1      47.058   5.818  12.839  0.00  0.00    +0.000 C 
ATOM      3  C   UNL     1      48.341   6.626  12.620  0.00  0.00    +0.000 C 
ATOM      4  C   UNL     1      48.280   8.040  13.216  0.00  0.00    +0.000 C 
ATOM      5  C   UNL     1      47.042   8.771  12.672  0.00  0.00    +0.000 C 
ATOM      6  C   UNL     1      45.740   7.985  12.880  0.00  0.00    +0.000 C 
ENDROOT
BRANCH   1   7
ATOM      7  C   UNL     1      44.509   5.782  12.917  0.00  0.00    +0.000 C 
BRANCH   7   9
ATOM      8  C   UNL     1      43.501   3.616  12.644  0.00  0.00    +0.000 C 
ATOM      9  N   UNL     1      43.634   4.958  12.053  0.00  0.00    +0.000 NA
ATOM     10  C   UNL     1      42.294   5.491  11.823  0.00  0.00    +0.000 C 
ENDBRANCH   7   9
ENDBRANCH   1   7
BRANCH   1  11
ATOM     11  C   UNL     1      45.757   6.589  10.785  0.00  0.00    +0.000 C 
BRANCH  11  12
ATOM     12  O   UNL     1      45.725   5.296  10.185  0.00  0.00    +0.000 OA
ATOM     13  H   UNL     1      45.595   4.639  10.888  0.00  0.00    +0.000 HD
ENDBRANCH  11  12
ENDBRANCH   1  11
BRANCH   4  14
ATOM     14  C   UNL     1      48.287   8.083  14.761  0.00  0.00    +0.000 C 
BRANCH  14  15
ATOM     15  N   UNL     1      49.409   7.421  15.409  0.00  0.00    +0.000 N 
ATOM     16  C   UNL     1      50.673   7.947  15.494  0.00  0.00    +0.000 A 
ATOM     17  C   UNL     1      51.448   7.082  16.229  0.00  0.00    +0.000 A 
ATOM     18  C   UNL     1      50.621   6.004  16.646  0.00  0.00    +0.000 A 
ATOM     19  C   UNL     1      50.843   4.856  17.433  0.00  0.00    +0.000 A 
ATOM     20  C   UNL     1      49.785   3.978  17.693  0.00  0.00    +0.000 A 
ATOM     21  C   UNL     1      48.521   4.234  17.172  0.00  0.00    +0.000 A 
ATOM     22 CL   UNL     1      47.226   3.150  17.515  0.00  0.00    +0.000 Cl
ATOM     23  C   UNL     1      48.275   5.358  16.378  0.00  0.00    +0.000 A 
ATOM     24  C   UNL     1      49.342   6.238  16.125  0.00  0.00    +0.000 A 
ENDBRANCH  14  15
ENDBRANCH   4  14
TORSDOF 6
ENDMDL
MODEL 6
REMARK VINA RESULT:    -5.494      2.855      6.733
REMARK INTER + INTRA:          -8.385
REMARK INTER:                  -7.739
REMARK INTRA:                  -0.646
REMARK UNBOUND:                -1.125
REMARK  Name = 
REMARK  8 active torsions:
REMARK  status: ('A' for Active; 'I' for Inactive)
REMARK    1  A    between atoms: C_1  and  N_2
REMARK    2  A    between atoms: N_2  and  C_3
REMARK    3  A    between atoms: N_2  and  C_4
REMARK    4  A    between atoms: C_4  and  C_5
REMARK    5  A    between atoms: C_5  and  C_6
REMARK    6  A    between atoms: C_6  and  O_7
REMARK    7  A    between atoms: C_10  and  C_11
REMARK    8  A    between atoms: C_11  and  N_12
REMARK                            x       y       z     vdW  Elec       q    Type
REMARK                         _______ _______ _______ _____ _____    ______ ____
ROOT
ATOM      1  C   UNL     1      44.823   3.990  11.070  0.00  0.00    +0.000 C 
ATOM      2  C   UNL     1      44.975   5.466  10.618  0.00  0.00    +0.000 C 
ATOM      3  C   UNL     1      44.551   6.492  11.672  0.00  0.00    +0.000 C 
ATOM      4  C   UNL     1      45.264   6.311  13.021  0.00  0.00    +0.000 C 
ATOM      5  C   UNL     1      45.067   4.868  13.512  0.00  0.00    +0.000 C 
ATOM      6  C   UNL     1      45.487   3.817  12.476  0.00  0.00    +0.000 C 
ENDROOT
BRANCH   1   7
ATOM      7  C   UNL     1      45.605   3.055  10.073  0.00  0.00    +0.000 C 
BRANCH   7   9
ATOM      8  C   UNL     1      44.950   3.411   7.785  0.00  0.00    +0.000 C 
ATOM      9  N   UNL     1      44.931   2.450   8.901  0.00  0.00    +0.000 NA
ATOM     10  C   UNL     1      45.500   1.191   8.429  0.00  0.00    +0.000 C 
ENDBRANCH   7   9
ENDBRANCH   1   7
BRANCH   1  11
ATOM     11  C   UNL     1      43.328   3.607  11.198  0.00  0.00    +0.000 C 
BRANCH  11  12
ATOM     12  O   UNL     1      43.147   2.229  11.517  0.00  0.00    +0.000 OA
ATOM     13  H   UNL     1      42.691   2.173  12.372  0.00  0.00    +0.000 HD
ENDBRANCH  11  12
ENDBRANCH   1  11
BRANCH   4  14
ATOM     14  C   UNL     1      46.768   6.666  13.001  0.00  0.00    +0.000 C 
BRANCH  14  15
ATOM     15  N   UNL     1      47.095   8.018  12.572  0.00  0.00    +0.000 N 
ATOM     16  C   UNL     1      46.266   9.100  12.729  0.00  0.00    +0.000 A 
ATOM     17  C   UNL     1      46.929  10.215  12.273  0.00  0.00    +0.000 A 
ATOM     18  C   UNL     1      48.226   9.810  11.858  0.00  0.00    +0.000 A 
ATOM     19  C   UNL     1      49.342  10.502  11.343  0.00  0.00    +0.000 A 
ATOM     20  C   UNL     1      50.518   9.801  11.053  0.00  0.00    +0.000 A 
ATOM     21  C   UNL     1      50.584   8.429  11.267  0.00  0.00    +0.000 A 
ATOM     22 CL   UNL     1      52.047   7.586  10.919  0.00  0.00    +0.000 Cl
ATOM     23  C   UNL     1      49.491   7.716  11.766  0.00  0.00    +0.000 A 
ATOM     24  C   UNL     1      48.314   8.427  12.058  0.00  0.00    +0.000 A 
ENDBRANCH  14  15
ENDBRANCH   4  14
TORSDOF 6
ENDMDL
MODEL 7
REMARK VINA RESULT:    -4.746      3.275      7.418
REMARK INTER + INTRA:          -7.396
REMARK INTER:                  -7.243
REMARK INTRA:                  -0.153
REMARK UNBOUND:                -1.125
REMARK  Name = 
REMARK  8 active torsions:
REMARK  status: ('A' for Active; 'I' for Inactive)
REMARK    1  A    between atoms: C_1  and  N_2
REMARK    2  A    between atoms: N_2  and  C_3
REMARK    3  A    between atoms: N_2  and  C_4
REMARK    4  A    between atoms: C_4  and  C_5
REMARK    5  A    between atoms: C_5  and  C_6
REMARK    6  A    between atoms: C_6  and  O_7
REMARK    7  A    between atoms: C_10  and  C_11
REMARK    8  A    between atoms: C_11  and  N_12
REMARK                            x       y       z     vdW  Elec       q    Type
REMARK                         _______ _______ _______ _____ _____    ______ ____
ROOT
ATOM      1  C   UNL     1      44.454   5.083  11.772  0.00  0.00    +0.000 C 
ATOM      2  C   UNL     1      44.511   6.625  11.615  0.00  0.00    +0.000 C 
ATOM      3  C   UNL     1      45.239   7.345  12.754  0.00  0.00    +0.000 C 
ATOM      4  C   UNL     1      46.661   6.818  12.999  0.00  0.00    +0.000 C 
ATOM      5  C   UNL     1      46.611   5.298  13.220  0.00  0.00    +0.000 C 
ATOM      6  C   UNL     1      45.889   4.549  12.091  0.00  0.00    +0.000 C 
ENDROOT
BRANCH   1   7
ATOM      7  C   UNL     1      44.013   4.435  10.406  0.00  0.00    +0.000 C 
BRANCH   7   9
ATOM      8  C   UNL     1      44.405   2.227   9.536  0.00  0.00    +0.000 C 
ATOM      9  N   UNL     1      44.945   3.595   9.621  0.00  0.00    +0.000 NA
ATOM     10  C   UNL     1      45.222   4.061   8.265  0.00  0.00    +0.000 C 
ENDBRANCH   7   9
ENDBRANCH   1   7
BRANCH   1  11
ATOM     11  C   UNL     1      43.525   4.685  12.947  0.00  0.00    +0.000 C 
BRANCH  11  12
ATOM     12  O   UNL     1      42.376   5.524  13.037  0.00  0.00    +0.000 OA
ATOM     13  H   UNL     1      41.974   5.394  13.911  0.00  0.00    +0.000 HD
ENDBRANCH  11  12
ENDBRANCH   1  11
BRANCH   4  14
ATOM     14  C   UNL     1      47.669   7.160  11.879  0.00  0.00    +0.000 C 
BRANCH  14  15
ATOM     15  N   UNL     1      48.951   7.690  12.320  0.00  0.00    +0.000 N 
ATOM     16  C   UNL     1      50.079   7.735  11.540  0.00  0.00    +0.000 A 
ATOM     17  C   UNL     1      51.071   8.359  12.258  0.00  0.00    +0.000 A 
ATOM     18  C   UNL     1      50.523   8.747  13.510  0.00  0.00    +0.000 A 
ATOM     19  C   UNL     1      51.040   9.436  14.626  0.00  0.00    +0.000 A 
ATOM     20  C   UNL     1      50.213   9.697  15.724  0.00  0.00    +0.000 A 
ATOM     21  C   UNL     1      48.888   9.273  15.717  0.00  0.00    +0.000 A 
ATOM     22 CL   UNL     1      47.880   9.617  17.072  0.00  0.00    +0.000 Cl
ATOM     23  C   UNL     1      48.352   8.578  14.629  0.00  0.00    +0.000 A 
ATOM     24  C   UNL     1      49.188   8.323  13.528  0.00  0.00    +0.000 A 
ENDBRANCH  14  15
ENDBRANCH   4  14
TORSDOF 6
ENDMDL
MODEL 8
REMARK VINA RESULT:    -4.512      2.844      4.243
REMARK INTER + INTRA:          -7.087
REMARK INTER:                  -5.927
REMARK INTRA:                  -1.161
REMARK UNBOUND:                -1.125
REMARK  Name = 
REMARK  8 active torsions:
REMARK  status: ('A' for Active; 'I' for Inactive)
REMARK    1  A    between atoms: C_1  and  N_2
REMARK    2  A    between atoms: N_2  and  C_3
REMARK    3  A    between atoms: N_2  and  C_4
REMARK    4  A    between atoms: C_4  and  C_5
REMARK    5  A    between atoms: C_5  and  C_6
REMARK    6  A    between atoms: C_6  and  O_7
REMARK    7  A    between atoms: C_10  and  C_11
REMARK    8  A    between atoms: C_11  and  N_12
REMARK                            x       y       z     vdW  Elec       q    Type
REMARK                         _______ _______ _______ _____ _____    ______ ____
ROOT
ATOM      1  C   UNL     1      50.235   8.496  13.703  0.00  0.00    +0.000 C 
ATOM      2  C   UNL     1      49.288   9.639  14.153  0.00  0.00    +0.000 C 
ATOM      3  C   UNL     1      48.410  10.205  13.032  0.00  0.00    +0.000 C 
ATOM      4  C   UNL     1      47.584   9.134  12.304  0.00  0.00    +0.000 C 
ATOM      5  C   UNL     1      48.520   8.025  11.796  0.00  0.00    +0.000 C 
ATOM      6  C   UNL     1      49.410   7.437  12.900  0.00  0.00    +0.000 C 
ENDROOT
BRANCH   1   7
ATOM      7  C   UNL     1      50.812   7.766  14.972  0.00  0.00    +0.000 C 
BRANCH   7   9
ATOM      8  C   UNL     1      52.128   9.014  16.552  0.00  0.00    +0.000 C 
ATOM      9  N   UNL     1      52.186   8.035  15.453  0.00  0.00    +0.000 NA
ATOM     10  C   UNL     1      52.929   6.867  15.920  0.00  0.00    +0.000 C 
ENDBRANCH   7   9
ENDBRANCH   1   7
BRANCH   1  11
ATOM     11  C   UNL     1      51.347   9.040  12.771  0.00  0.00    +0.000 C 
BRANCH  11  12
ATOM     12  O   UNL     1      52.313   8.045  12.443  0.00  0.00    +0.000 OA
ATOM     13  H   UNL     1      51.844   7.275  12.083  0.00  0.00    +0.000 HD
ENDBRANCH  11  12
ENDBRANCH   1  11
BRANCH   4  14
ATOM     14  C   UNL     1      46.445   8.522  13.151  0.00  0.00    +0.000 C 
BRANCH  14  15
ATOM     15  N   UNL     1      45.706   7.434  12.528  0.00  0.00    +0.000 N 
ATOM     16  C   UNL     1      44.835   7.592  11.479  0.00  0.00    +0.000 A 
ATOM     17  C   UNL     1      44.380   6.348  11.111  0.00  0.00    +0.000 A 
ATOM     18  C   UNL     1      45.024   5.387  11.936  0.00  0.00    +0.000 A 
ATOM     19  C   UNL     1      44.983   3.979  12.003  0.00  0.00    +0.000 A 
ATOM     20  C   UNL     1      45.782   3.307  12.934  0.00  0.00    +0.000 A 
ATOM     21  C   UNL     1      46.608   4.023  13.794  0.00  0.00    +0.000 A 
ATOM     22 CL   UNL     1      47.597   3.177  14.923  0.00  0.00    +0.000 Cl
ATOM     23  C   UNL     1      46.660   5.419  13.757  0.00  0.00    +0.000 A 
ATOM     24  C   UNL     1      45.857   6.089  12.817  0.00  0.00    +0.000 A 
ENDBRANCH  14  15
ENDBRANCH   4  14
TORSDOF 6
ENDMDL
MODEL 9
REMARK VINA RESULT:    -4.158      3.946      7.561
REMARK INTER + INTRA:          -6.620
REMARK INTER:                  -5.404
REMARK INTRA:                  -1.216
REMARK UNBOUND:                -1.125
REMARK  Name = 
REMARK  8 active torsions:
REMARK  status: ('A' for Active; 'I' for Inactive)
REMARK    1  A    between atoms: C_1  and  N_2
REMARK    2  A    between atoms: N_2  and  C_3
REMARK    3  A    between atoms: N_2  and  C_4
REMARK    4  A    between atoms: C_4  and  C_5
REMARK    5  A    between atoms: C_5  and  C_6
REMARK    6  A    between atoms: C_6  and  O_7
REMARK    7  A    between atoms: C_10  and  C_11
REMARK    8  A    between atoms: C_11  and  N_12
REMARK                            x       y       z     vdW  Elec       q    Type
REMARK                         _______ _______ _______ _____ _____    ______ ____
ROOT
ATOM      1  C   UNL     1      47.272   7.635  12.721  0.00  0.00    +0.000 C 
ATOM      2  C   UNL     1      48.713   7.528  12.156  0.00  0.00    +0.000 C 
ATOM      3  C   UNL     1      49.667   8.614  12.661  0.00  0.00    +0.000 C 
ATOM      4  C   UNL     1      49.741   8.698  14.193  0.00  0.00    +0.000 C 
ATOM      5  C   UNL     1      48.324   8.868  14.763  0.00  0.00    +0.000 C 
ATOM      6  C   UNL     1      47.345   7.791  14.276  0.00  0.00    +0.000 C 
ENDROOT
BRANCH   1   7
ATOM      7  C   UNL     1      46.496   6.297  12.428  0.00  0.00    +0.000 C 
BRANCH   7   9
ATOM      8  C   UNL     1      45.316   5.502  10.488  0.00  0.00    +0.000 C 
ATOM      9  N   UNL     1      45.197   6.305  11.717  0.00  0.00    +0.000 NA
ATOM     10  C   UNL     1      44.059   5.803  12.481  0.00  0.00    +0.000 C 
ENDBRANCH   7   9
ENDBRANCH   1   7
BRANCH   1  11
ATOM     11  C   UNL     1      46.550   8.881  12.150  0.00  0.00    +0.000 C 
BRANCH  11  12
ATOM     12  O   UNL     1      45.375   9.211  12.887  0.00  0.00    +0.000 OA
ATOM     13  H   UNL     1      45.572   9.112  13.832  0.00  0.00    +0.000 HD
ENDBRANCH  11  12
ENDBRANCH   1  11
BRANCH   4  14
ATOM     14  C   UNL     1      50.443   7.497  14.865  0.00  0.00    +0.000 C 
BRANCH  14  15
ATOM     15  N   UNL     1      50.384   7.459  16.318  0.00  0.00    +0.000 N 
ATOM     16  C   UNL     1      50.977   8.384  17.140  0.00  0.00    +0.000 A 
ATOM     17  C   UNL     1      50.653   8.070  18.439  0.00  0.00    +0.000 A 
ATOM     18  C   UNL     1      49.799   6.935  18.413  0.00  0.00    +0.000 A 
ATOM     19  C   UNL     1      49.136   6.194  19.413  0.00  0.00    +0.000 A 
ATOM     20  C   UNL     1      48.319   5.118  19.050  0.00  0.00    +0.000 A 
ATOM     21  C   UNL     1      48.167   4.777  17.710  0.00  0.00    +0.000 A 
ATOM     22 CL   UNL     1      47.144   3.457  17.282  0.00  0.00    +0.000 Cl
ATOM     23  C   UNL     1      48.821   5.486  16.700  0.00  0.00    +0.000 A 
ATOM     24  C   UNL     1      49.637   6.569  17.071  0.00  0.00    +0.000 A 
ENDBRANCH  14  15
ENDBRANCH   4  14
TORSDOF 6
ENDMDL
