MODEL 1
REMARK VINA RESULT:    -8.200      0.000      0.000
REMARK INTER + INTRA:         -11.329
REMARK INTER:                 -10.597
REMARK INTRA:                  -0.732
REMARK UNBOUND:                -0.732
REMARK  Name = 
REMARK  5 active torsions:
REMARK  status: ('A' for Active; 'I' for Inactive)
REMARK    1  A    between atoms: C_2  and  C_4
REMARK    2  A    between atoms: C_7  and  N_8
REMARK    3  A    between atoms: N_8  and  C_9
REMARK    4  A    between atoms: C_9  and  C_10
REMARK    5  A    between atoms: C_14  and  C_15
REMARK                            x       y       z     vdW  Elec       q    Type
REMARK                         _______ _______ _______ _____ _____    ______ ____
ROOT
ATOM      1  N   UNL     1      43.690   3.878  10.376  0.00  0.00    +0.000 N 
ATOM      2  H   UNL     1      42.717   3.625  10.216  0.00  0.00    +0.000 HD
ENDROOT
BRANCH   1   6
ATOM      3  C   UNL     1      46.430   2.709   7.533  0.00  0.00    +0.000 A 
ATOM      4  N   UNL     1      46.065   4.010   7.519  0.00  0.00    +0.000 NA
ATOM      5  C   UNL     1      45.141   4.360   8.439  0.00  0.00    +0.000 A 
ATOM      6  C   UNL     1      44.549   3.500   9.352  0.00  0.00    +0.000 A 
ATOM      7  C   UNL     1      45.035   2.200   9.262  0.00  0.00    +0.000 A 
ATOM      8  N   UNL     1      45.952   1.770   8.367  0.00  0.00    +0.000 NA
BRANCH   3  10
ATOM      9  N   UNL     1      47.487   2.977   5.347  0.00  0.00    +0.000 N 
ATOM     10  C   UNL     1      47.503   2.303   6.548  0.00  0.00    +0.000 C 
ATOM     11  O   UNL     1      48.353   1.450   6.770  0.00  0.00    +0.000 OA
ATOM     12  H   UNL     1      48.201   2.774   4.663  0.00  0.00    +0.000 HD
ATOM     13  H   UNL     1      46.803   3.706   5.180  0.00  0.00    +0.000 HD
ENDBRANCH   3  10
ENDBRANCH   1   6
BRANCH   1  14
ATOM     14  C   UNL     1      43.816   5.182  11.023  0.00  0.00    +0.000 C 
BRANCH  14  15
ATOM     15  C   UNL     1      44.944   5.128  12.012  0.00  0.00    +0.000 A 
ATOM     16  C   UNL     1      44.937   4.233  13.071  0.00  0.00    +0.000 A 
ATOM     17  N   UNL     1      45.919   4.155  13.989  0.00  0.00    +0.000 NA
ATOM     18  C   UNL     1      46.961   5.013  13.848  0.00  0.00    +0.000 A 
ATOM     19  C   UNL     1      47.087   5.975  12.842  0.00  0.00    +0.000 A 
ATOM     20  C   UNL     1      46.031   6.012  11.918  0.00  0.00    +0.000 A 
BRANCH  19  21
ATOM     21  C   UNL     1      48.246   6.886  12.754  0.00  0.00    +0.000 A 
ATOM     22  C   UNL     1      48.545   7.615  11.592  0.00  0.00    +0.000 A 
ATOM     23  C   UNL     1      49.649   8.468  11.545  0.00  0.00    +0.000 A 
ATOM     24  C   UNL     1      50.446   8.571  12.670  0.00  0.00    +0.000 A 
ATOM     25  N   UNL     1      50.209   7.898  13.812  0.00  0.00    +0.000 NA
ATOM     26  C   UNL     1      49.124   7.084  13.825  0.00  0.00    +0.000 A 
ENDBRANCH  19  21
ENDBRANCH  14  15
ENDBRANCH   1  14
TORSDOF 5
ENDMDL
MODEL 2
REMARK VINA RESULT:    -8.120      2.910      7.138
REMARK INTER + INTRA:         -11.225
REMARK INTER:                 -11.074
REMARK INTRA:                  -0.151
REMARK UNBOUND:                -0.732
REMARK  Name = 
REMARK  5 active torsions:
REMARK  status: ('A' for Active; 'I' for Inactive)
REMARK    1  A    between atoms: C_2  and  C_4
REMARK    2  A    between atoms: C_7  and  N_8
REMARK    3  A    between atoms: N_8  and  C_9
REMARK    4  A    between atoms: C_9  and  C_10
REMARK    5  A    between atoms: C_14  and  C_15
REMARK                            x       y       z     vdW  Elec       q    Type
REMARK                         _______ _______ _______ _____ _____    ______ ____
ROOT
ATOM      1  N   UNL     1      46.136   6.447  11.875  0.00  0.00    +0.000 N 
ATOM      2  H   UNL     1      46.538   7.370  11.728  0.00  0.00    +0.000 HD
ENDROOT
BRANCH   1   6
ATOM      3  C   UNL     1      47.394   4.625  15.348  0.00  0.00    +0.000 A 
ATOM      4  N   UNL     1      46.262   4.142  14.790  0.00  0.00    +0.000 NA
ATOM      5  C   UNL     1      45.853   4.778  13.671  0.00  0.00    +0.000 A 
ATOM      6  C   UNL     1      46.484   5.867  13.089  0.00  0.00    +0.000 A 
ATOM      7  C   UNL     1      47.644   6.240  13.760  0.00  0.00    +0.000 A 
ATOM      8  N   UNL     1      48.116   5.660  14.885  0.00  0.00    +0.000 NA
BRANCH   3  10
ATOM      9  N   UNL     1      46.934   3.312  17.356  0.00  0.00    +0.000 N 
ATOM     10  C   UNL     1      47.903   3.895  16.570  0.00  0.00    +0.000 C 
ATOM     11  O   UNL     1      49.086   3.796  16.870  0.00  0.00    +0.000 OA
ATOM     12  H   UNL     1      47.214   2.781  18.167  0.00  0.00    +0.000 HD
ATOM     13  H   UNL     1      45.957   3.368  17.087  0.00  0.00    +0.000 HD
ENDBRANCH   3  10
ENDBRANCH   1   6
BRANCH   1  14
ATOM     14  C   UNL     1      44.773   6.353  11.359  0.00  0.00    +0.000 C 
BRANCH  14  15
ATOM     15  C   UNL     1      44.566   4.985  10.776  0.00  0.00    +0.000 A 
ATOM     16  C   UNL     1      43.628   4.108  11.300  0.00  0.00    +0.000 A 
ATOM     17  N   UNL     1      43.415   2.868  10.819  0.00  0.00    +0.000 NA
ATOM     18  C   UNL     1      44.174   2.480   9.764  0.00  0.00    +0.000 A 
ATOM     19  C   UNL     1      45.164   3.253   9.151  0.00  0.00    +0.000 A 
ATOM     20  C   UNL     1      45.345   4.532   9.699  0.00  0.00    +0.000 A 
BRANCH  19  21
ATOM     21  C   UNL     1      45.962   2.762   8.009  0.00  0.00    +0.000 A 
ATOM     22  C   UNL     1      46.253   3.563   6.894  0.00  0.00    +0.000 A 
ATOM     23  C   UNL     1      47.012   3.066   5.833  0.00  0.00    +0.000 A 
ATOM     24  C   UNL     1      47.464   1.762   5.905  0.00  0.00    +0.000 A 
ATOM     25  N   UNL     1      47.217   0.947   6.948  0.00  0.00    +0.000 NA
ATOM     26  C   UNL     1      46.483   1.465   7.965  0.00  0.00    +0.000 A 
ENDBRANCH  19  21
ENDBRANCH  14  15
ENDBRANCH   1  14
TORSDOF 5
ENDMDL
MODEL 3
REMARK VINA RESULT:    -8.028      2.598      6.637
REMARK INTER + INTRA:         -11.107
REMARK INTER:                 -10.388
REMARK INTRA:                  -0.719
REMARK UNBOUND:                -0.732
REMARK  Name = 
REMARK  5 active torsions:
REMARK  status: ('A' for Active; 'I' for Inactive)
REMARK    1  A    between atoms: C_2  and  C_4
REMARK    2  A    between atoms: C_7  and  N_8
REMARK    3  A    between atoms: N_8  and  C_9
REMARK    4  A    between atoms: C_9  and  C_10
REMARK    5  A    between atoms: C_14  and  C_15
REMARK                            x       y       z     vdW  Elec       q    Type
REMARK                         _______ _______ _______ _____ _____    ______ ____
ROOT
ATOM      1  N   UNL     1      43.799   6.279  12.514  0.00  0.00    +0.000 N 
ATOM      2  H   UNL     1      43.272   5.662  13.129  0.00  0.00    +0.000 HD
ENDROOT
BRANCH   1   6
ATOM      3  C   UNL     1      47.793   6.811  13.366  0.00  0.00    +0.000 A 
ATOM      4  N   UNL     1      47.262   5.612  13.692  0.00  0.00    +0.000 NA
ATOM      5  C   UNL     1      45.944   5.475  13.433  0.00  0.00    +0.000 A 
ATOM      6  C   UNL     1      45.124   6.455  12.892  0.00  0.00    +0.000 A 
ATOM      7  C   UNL     1      45.811   7.626  12.591  0.00  0.00    +0.000 A 
ATOM      8  N   UNL     1      47.124   7.843  12.824  0.00  0.00    +0.000 NA
BRANCH   3  10
ATOM      9  N   UNL     1      50.023   7.259  12.473  0.00  0.00    +0.000 N 
ATOM     10  C   UNL     1      49.279   6.971  13.595  0.00  0.00    +0.000 C 
ATOM     11  O   UNL     1      49.821   6.871  14.689  0.00  0.00    +0.000 OA
ATOM     12  H   UNL     1      51.016   7.411  12.569  0.00  0.00    +0.000 HD
ATOM     13  H   UNL     1      49.566   7.373  11.574  0.00  0.00    +0.000 HD
ENDBRANCH   3  10
ENDBRANCH   1   6
BRANCH   1  14
ATOM     14  C   UNL     1      43.434   6.097  11.111  0.00  0.00    +0.000 C 
BRANCH  14  15
ATOM     15  C   UNL     1      43.702   4.673  10.719  0.00  0.00    +0.000 A 
ATOM     16  C   UNL     1      43.125   3.612  11.401  0.00  0.00    +0.000 A 
ATOM     17  N   UNL     1      43.344   2.319  11.093  0.00  0.00    +0.000 NA
ATOM     18  C   UNL     1      44.181   2.068  10.055  0.00  0.00    +0.000 A 
ATOM     19  C   UNL     1      44.842   3.038   9.296  0.00  0.00    +0.000 A 
ATOM     20  C   UNL     1      44.579   4.366   9.666  0.00  0.00    +0.000 A 
BRANCH  19  21
ATOM     21  C   UNL     1      45.750   2.693   8.184  0.00  0.00    +0.000 A 
ATOM     22  C   UNL     1      46.050   3.593   7.149  0.00  0.00    +0.000 A 
ATOM     23  C   UNL     1      46.915   3.233   6.114  0.00  0.00    +0.000 A 
ATOM     24  C   UNL     1      47.462   1.964   6.129  0.00  0.00    +0.000 A 
ATOM     25  N   UNL     1      47.212   1.059   7.093  0.00  0.00    +0.000 NA
ATOM     26  C   UNL     1      46.374   1.444   8.088  0.00  0.00    +0.000 A 
ENDBRANCH  19  21
ENDBRANCH  14  15
ENDBRANCH   1  14
TORSDOF 5
ENDMDL
MODEL 4
REMARK VINA RESULT:    -7.723      1.922      3.111
REMARK INTER + INTRA:         -10.713
REMARK INTER:                 -10.110
REMARK INTRA:                  -0.603
REMARK UNBOUND:                -0.732
REMARK  Name = 
REMARK  5 active torsions:
REMARK  status: ('A' for Active; 'I' for Inactive)
REMARK    1  A    between atoms: C_2  and  C_4
REMARK    2  A    between atoms: C_7  and  N_8
REMARK    3  A    between atoms: N_8  and  C_9
REMARK    4  A    between atoms: C_9  and  C_10
REMARK    5  A    between atoms: C_14  and  C_15
REMARK                            x       y       z     vdW  Elec       q    Type
REMARK                         _______ _______ _______ _____ _____    ______ ____
ROOT
ATOM      1  N   UNL     1      43.657   4.690   9.860  0.00  0.00    +0.000 N 
ATOM      2  H   UNL     1      43.556   5.629   9.479  0.00  0.00    +0.000 HD
ENDROOT
BRANCH   1   6
ATOM      3  C   UNL     1      46.429   2.488   7.757  0.00  0.00    +0.000 A 
ATOM      4  N   UNL     1      45.612   1.797   8.583  0.00  0.00    +0.000 NA
ATOM      5  C   UNL     1      44.735   2.546   9.286  0.00  0.00    +0.000 A 
ATOM      6  C   UNL     1      44.635   3.928   9.232  0.00  0.00    +0.000 A 
ATOM      7  C   UNL     1      45.523   4.499   8.327  0.00  0.00    +0.000 A 
ATOM      8  N   UNL     1      46.432   3.821   7.593  0.00  0.00    +0.000 NA
BRANCH   3  10
ATOM      9  N   UNL     1      48.358   2.384   6.260  0.00  0.00    +0.000 N 
ATOM     10  C   UNL     1      47.383   1.667   6.918  0.00  0.00    +0.000 C 
ATOM     11  O   UNL     1      47.334   0.447   6.815  0.00  0.00    +0.000 OA
ATOM     12  H   UNL     1      49.045   1.887   5.713  0.00  0.00    +0.000 HD
ATOM     13  H   UNL     1      48.415   3.390   6.374  0.00  0.00    +0.000 HD
ENDBRANCH   3  10
ENDBRANCH   1   6
BRANCH   1  14
ATOM     14  C   UNL     1      43.502   4.669  11.312  0.00  0.00    +0.000 C 
BRANCH  14  15
ATOM     15  C   UNL     1      44.662   5.387  11.937  0.00  0.00    +0.000 A 
ATOM     16  C   UNL     1      45.104   6.609  11.453  0.00  0.00    +0.000 A 
ATOM     17  N   UNL     1      46.147   7.285  11.972  0.00  0.00    +0.000 NA
ATOM     18  C   UNL     1      46.784   6.716  13.027  0.00  0.00    +0.000 A 
ATOM     19  C   UNL     1      46.456   5.485  13.602  0.00  0.00    +0.000 A 
ATOM     20  C   UNL     1      45.365   4.825  13.015  0.00  0.00    +0.000 A 
BRANCH  19  21
ATOM     21  C   UNL     1      47.200   4.919  14.745  0.00  0.00    +0.000 A 
ATOM     22  C   UNL     1      47.956   5.714  15.621  0.00  0.00    +0.000 A 
ATOM     23  C   UNL     1      48.646   5.143  16.692  0.00  0.00    +0.000 A 
ATOM     24  C   UNL     1      48.572   3.774  16.865  0.00  0.00    +0.000 A 
ATOM     25  N   UNL     1      47.864   2.961  16.058  0.00  0.00    +0.000 NA
ATOM     26  C   UNL     1      47.200   3.549  15.032  0.00  0.00    +0.000 A 
ENDBRANCH  19  21
ENDBRANCH  14  15
ENDBRANCH   1  14
TORSDOF 5
ENDMDL
MODEL 5
REMARK VINA RESULT:    -7.057      2.329      6.698
REMARK INTER + INTRA:          -9.851
REMARK INTER:                  -9.261
REMARK INTRA:                  -0.590
REMARK UNBOUND:                -0.732
REMARK  Name = 
REMARK  5 active torsions:
REMARK  status: ('A' for Active; 'I' for Inactive)
REMARK    1  A    between atoms: C_2  and  C_4
REMARK    2  A    between atoms: C_7  and  N_8
REMARK    3  A    between atoms: N_8  and  C_9
REMARK    4  A    between atoms: C_9  and  C_10
REMARK    5  A    between atoms: C_14  and  C_15
REMARK                            x       y       z     vdW  Elec       q    Type
REMARK                         _______ _______ _______ _____ _____    ______ ____
ROOT
ATOM      1  N   UNL     1      45.832   5.967  13.402  0.00  0.00    +0.000 N 
ATOM      2  H   UNL     1      45.835   5.030  13.801  0.00  0.00    +0.000 HD
ENDROOT
BRANCH   1   6
ATOM      3  C   UNL     1      49.535   7.572  12.584  0.00  0.00    +0.000 A 
ATOM      4  N   UNL     1      48.615   7.647  11.597  0.00  0.00    +0.000 NA
ATOM      5  C   UNL     1      47.420   7.083  11.878  0.00  0.00    +0.000 A 
ATOM      6  C   UNL     1      47.093   6.439  13.063  0.00  0.00    +0.000 A 
ATOM      7  C   UNL     1      48.130   6.458  13.990  0.00  0.00    +0.000 A 
ATOM      8  N   UNL     1      49.353   6.994  13.783  0.00  0.00    +0.000 NA
BRANCH   3  10
ATOM      9  N   UNL     1      51.802   8.117  13.313  0.00  0.00    +0.000 N 
ATOM     10  C   UNL     1      50.862   8.243  12.314  0.00  0.00    +0.000 C 
ATOM     11  O   UNL     1      51.128   8.855  11.287  0.00  0.00    +0.000 OA
ATOM     12  H   UNL     1      52.720   8.515  13.175  0.00  0.00    +0.000 HD
ATOM     13  H   UNL     1      51.590   7.582  14.147  0.00  0.00    +0.000 HD
ENDBRANCH   3  10
ENDBRANCH   1   6
BRANCH   1  14
ATOM     14  C   UNL     1      44.684   6.184  12.525  0.00  0.00    +0.000 C 
BRANCH  14  15
ATOM     15  C   UNL     1      44.391   4.913  11.782  0.00  0.00    +0.000 A 
ATOM     16  C   UNL     1      43.443   4.010  12.238  0.00  0.00    +0.000 A 
ATOM     17  N   UNL     1      43.154   2.852  11.613  0.00  0.00    +0.000 NA
ATOM     18  C   UNL     1      43.843   2.579  10.477  0.00  0.00    +0.000 A 
ATOM     19  C   UNL     1      44.835   3.389   9.916  0.00  0.00    +0.000 A 
ATOM     20  C   UNL     1      45.096   4.578  10.615  0.00  0.00    +0.000 A 
BRANCH  19  21
ATOM     21  C   UNL     1      45.555   3.024   8.680  0.00  0.00    +0.000 A 
ATOM     22  C   UNL     1      46.092   1.744   8.470  0.00  0.00    +0.000 A 
ATOM     23  C   UNL     1      46.766   1.435   7.288  0.00  0.00    +0.000 A 
ATOM     24  C   UNL     1      46.898   2.423   6.331  0.00  0.00    +0.000 A 
ATOM     25  N   UNL     1      46.405   3.668   6.475  0.00  0.00    +0.000 NA
ATOM     26  C   UNL     1      45.749   3.932   7.633  0.00  0.00    +0.000 A 
ENDBRANCH  19  21
ENDBRANCH  14  15
ENDBRANCH   1  14
TORSDOF 5
ENDMDL
MODEL 6
REMARK VINA RESULT:    -6.646      3.426      7.802
REMARK INTER + INTRA:          -9.321
REMARK INTER:                  -8.860
REMARK INTRA:                  -0.461
REMARK UNBOUND:                -0.732
REMARK  Name = 
REMARK  5 active torsions:
REMARK  status: ('A' for Active; 'I' for Inactive)
REMARK    1  A    between atoms: C_2  and  C_4
REMARK    2  A    between atoms: C_7  and  N_8
REMARK    3  A    between atoms: N_8  and  C_9
REMARK    4  A    between atoms: C_9  and  C_10
REMARK    5  A    between atoms: C_14  and  C_15
REMARK                            x       y       z     vdW  Elec       q    Type
REMARK                         _______ _______ _______ _____ _____    ______ ____
ROOT
ATOM      1  N   UNL     1      46.640   5.221  13.289  0.00  0.00    +0.000 N 
ATOM      2  H   UNL     1      47.099   5.782  12.574  0.00  0.00    +0.000 HD
ENDROOT
BRANCH   1   6
ATOM      3  C   UNL     1      48.788   5.203  16.802  0.00  0.00    +0.000 A 
ATOM      4  N   UNL     1      47.874   4.219  16.650  0.00  0.00    +0.000 NA
ATOM      5  C   UNL     1      47.159   4.268  15.505  0.00  0.00    +0.000 A 
ATOM      6  C   UNL     1      47.285   5.236  14.519  0.00  0.00    +0.000 A 
ATOM      7  C   UNL     1      48.275   6.169  14.803  0.00  0.00    +0.000 A 
ATOM      8  N   UNL     1      49.026   6.193  15.926  0.00  0.00    +0.000 NA
BRANCH   3  10
ATOM      9  N   UNL     1      48.988   4.710  19.187  0.00  0.00    +0.000 N 
ATOM     10  C   UNL     1      49.638   5.140  18.051  0.00  0.00    +0.000 C 
ATOM     11  O   UNL     1      50.827   5.430  18.089  0.00  0.00    +0.000 OA
ATOM     12  H   UNL     1      49.512   4.614  20.044  0.00  0.00    +0.000 HD
ATOM     13  H   UNL     1      48.012   4.439  19.144  0.00  0.00    +0.000 HD
ENDBRANCH   3  10
ENDBRANCH   1   6
BRANCH   1  14
ATOM     14  C   UNL     1      45.184   5.306  13.199  0.00  0.00    +0.000 C 
BRANCH  14  15
ATOM     15  C   UNL     1      44.699   4.304  12.192  0.00  0.00    +0.000 A 
ATOM     16  C   UNL     1      43.587   3.512  12.436  0.00  0.00    +0.000 A 
ATOM     17  N   UNL     1      43.121   2.593  11.569  0.00  0.00    +0.000 NA
ATOM     18  C   UNL     1      43.797   2.453  10.400  0.00  0.00    +0.000 A 
ATOM     19  C   UNL     1      44.939   3.170  10.034  0.00  0.00    +0.000 A 
ATOM     20  C   UNL     1      45.380   4.109  10.980  0.00  0.00    +0.000 A 
BRANCH  19  21
ATOM     21  C   UNL     1      45.632   2.959   8.748  0.00  0.00    +0.000 A 
ATOM     22  C   UNL     1      46.098   1.699   8.340  0.00  0.00    +0.000 A 
ATOM     23  C   UNL     1      46.748   1.537   7.116  0.00  0.00    +0.000 A 
ATOM     24  C   UNL     1      46.929   2.651   6.317  0.00  0.00    +0.000 A 
ATOM     25  N   UNL     1      46.505   3.883   6.655  0.00  0.00    +0.000 NA
ATOM     26  C   UNL     1      45.870   4.003   7.847  0.00  0.00    +0.000 A 
ENDBRANCH  19  21
ENDBRANCH  14  15
ENDBRANCH   1  14
TORSDOF 5
ENDMDL
MODEL 7
REMARK VINA RESULT:    -6.077      4.996      8.365
REMARK INTER + INTRA:          -8.585
REMARK INTER:                  -8.095
REMARK INTRA:                  -0.491
REMARK UNBOUND:                -0.732
REMARK  Name = 
REMARK  5 active torsions:
REMARK  status: ('A' for Active; 'I' for Inactive)
REMARK    1  A    between atoms: C_2  and  C_4
REMARK    2  A    between atoms: C_7  and  N_8
REMARK    3  A    between atoms: N_8  and  C_9
REMARK    4  A    between atoms: C_9  and  C_10
REMARK    5  A    between atoms: C_14  and  C_15
REMARK                            x       y       z     vdW  Elec       q    Type
REMARK                         _______ _______ _______ _____ _____    ______ ____
ROOT
ATOM      1  N   UNL     1      48.759   4.300  17.560  0.00  0.00    +0.000 N 
ATOM      2  H   UNL     1      48.554   4.651  18.494  0.00  0.00    +0.000 HD
ENDROOT
BRANCH   1   6
ATOM      3  C   UNL     1      51.962   1.712  17.555  0.00  0.00    +0.000 A 
ATOM      4  N   UNL     1      52.174   2.932  18.096  0.00  0.00    +0.000 NA
ATOM      5  C   UNL     1      51.118   3.773  18.054  0.00  0.00    +0.000 A 
ATOM      6  C   UNL     1      49.881   3.484  17.497  0.00  0.00    +0.000 A 
ATOM      7  C   UNL     1      49.804   2.189  16.998  0.00  0.00    +0.000 A 
ATOM      8  N   UNL     1      50.815   1.292  16.996  0.00  0.00    +0.000 NA
BRANCH   3  10
ATOM      9  N   UNL     1      52.878  -0.390  18.399  0.00  0.00    +0.000 N 
ATOM     10  C   UNL     1      53.112   0.734  17.638  0.00  0.00    +0.000 C 
ATOM     11  O   UNL     1      54.187   0.887  17.072  0.00  0.00    +0.000 OA
ATOM     12  H   UNL     1      53.596  -1.097  18.463  0.00  0.00    +0.000 HD
ATOM     13  H   UNL     1      51.974  -0.529  18.838  0.00  0.00    +0.000 HD
ENDBRANCH   3  10
ENDBRANCH   1   6
BRANCH   1  14
ATOM     14  C   UNL     1      47.542   3.967  16.822  0.00  0.00    +0.000 C 
BRANCH  14  15
ATOM     15  C   UNL     1      47.496   4.786  15.565  0.00  0.00    +0.000 A 
ATOM     16  C   UNL     1      48.250   5.941  15.424  0.00  0.00    +0.000 A 
ATOM     17  N   UNL     1      48.234   6.714  14.321  0.00  0.00    +0.000 NA
ATOM     18  C   UNL     1      47.424   6.319  13.307  0.00  0.00    +0.000 A 
ATOM     19  C   UNL     1      46.600   5.190  13.322  0.00  0.00    +0.000 A 
ATOM     20  C   UNL     1      46.656   4.428  14.498  0.00  0.00    +0.000 A 
BRANCH  19  21
ATOM     21  C   UNL     1      45.734   4.823  12.183  0.00  0.00    +0.000 A 
ATOM     22  C   UNL     1      45.714   5.554  10.985  0.00  0.00    +0.000 A 
ATOM     23  C   UNL     1      44.883   5.177   9.929  0.00  0.00    +0.000 A 
ATOM     24  C   UNL     1      44.073   4.069  10.095  0.00  0.00    +0.000 A 
ATOM     25  N   UNL     1      44.049   3.330  11.220  0.00  0.00    +0.000 NA
ATOM     26  C   UNL     1      44.875   3.720  12.223  0.00  0.00    +0.000 A 
ENDBRANCH  19  21
ENDBRANCH  14  15
ENDBRANCH   1  14
TORSDOF 5
ENDMDL
MODEL 8
REMARK VINA RESULT:    -6.019      2.894      5.426
REMARK INTER + INTRA:          -8.510
REMARK INTER:                  -7.921
REMARK INTRA:                  -0.590
REMARK UNBOUND:                -0.732
REMARK  Name = 
REMARK  5 active torsions:
REMARK  status: ('A' for Active; 'I' for Inactive)
REMARK    1  A    between atoms: C_2  and  C_4
REMARK    2  A    between atoms: C_7  and  N_8
REMARK    3  A    between atoms: N_8  and  C_9
REMARK    4  A    between atoms: C_9  and  C_10
REMARK    5  A    between atoms: C_14  and  C_15
REMARK                            x       y       z     vdW  Elec       q    Type
REMARK                         _______ _______ _______ _____ _____    ______ ____
ROOT
ATOM      1  N   UNL     1      46.147   7.840  12.619  0.00  0.00    +0.000 N 
ATOM      2  H   UNL     1      45.605   8.694  12.500  0.00  0.00    +0.000 HD
ENDROOT
BRANCH   1   6
ATOM      3  C   UNL     1      44.467   4.324  11.288  0.00  0.00    +0.000 A 
ATOM      4  N   UNL     1      45.280   4.969  10.422  0.00  0.00    +0.000 NA
ATOM      5  C   UNL     1      45.791   6.136  10.870  0.00  0.00    +0.000 A 
ATOM      6  C   UNL     1      45.531   6.705  12.108  0.00  0.00    +0.000 A 
ATOM      7  C   UNL     1      44.696   5.922  12.897  0.00  0.00    +0.000 A 
ATOM      8  N   UNL     1      44.140   4.749  12.520  0.00  0.00    +0.000 NA
BRANCH   3  10
ATOM      9  N   UNL     1      43.324   2.229  11.809  0.00  0.00    +0.000 N 
ATOM     10  C   UNL     1      43.926   2.989  10.830  0.00  0.00    +0.000 C 
ATOM     11  O   UNL     1      43.986   2.581   9.677  0.00  0.00    +0.000 OA
ATOM     12  H   UNL     1      42.913   1.342  11.556  0.00  0.00    +0.000 HD
ATOM     13  H   UNL     1      43.247   2.584  12.755  0.00  0.00    +0.000 HD
ENDBRANCH   3  10
ENDBRANCH   1   6
BRANCH   1  14
ATOM     14  C   UNL     1      47.578   8.070  12.432  0.00  0.00    +0.000 C 
BRANCH  14  15
ATOM     15  C   UNL     1      48.290   7.782  13.722  0.00  0.00    +0.000 A 
ATOM     16  C   UNL     1      49.263   8.635  14.219  0.00  0.00    +0.000 A 
ATOM     17  N   UNL     1      49.937   8.413  15.364  0.00  0.00    +0.000 NA
ATOM     18  C   UNL     1      49.626   7.284  16.050  0.00  0.00    +0.000 A 
ATOM     19  C   UNL     1      48.682   6.331  15.656  0.00  0.00    +0.000 A 
ATOM     20  C   UNL     1      48.018   6.614  14.453  0.00  0.00    +0.000 A 
BRANCH  19  21
ATOM     21  C   UNL     1      48.401   5.116  16.447  0.00  0.00    +0.000 A 
ATOM     22  C   UNL     1      49.342   4.555  17.326  0.00  0.00    +0.000 A 
ATOM     23  C   UNL     1      49.040   3.406  18.058  0.00  0.00    +0.000 A 
ATOM     24  C   UNL     1      47.796   2.829  17.892  0.00  0.00    +0.000 A 
ATOM     25  N   UNL     1      46.854   3.322  17.065  0.00  0.00    +0.000 NA
ATOM     26  C   UNL     1      47.177   4.444  16.374  0.00  0.00    +0.000 A 
ENDBRANCH  19  21
ENDBRANCH  14  15
ENDBRANCH   1  14
TORSDOF 5
ENDMDL
MODEL 9
REMARK VINA RESULT:    -6.009      3.788      7.847
REMARK INTER + INTRA:          -8.497
REMARK INTER:                  -7.984
REMARK INTRA:                  -0.513
REMARK UNBOUND:                -0.732
REMARK  Name = 
REMARK  5 active torsions:
REMARK  status: ('A' for Active; 'I' for Inactive)
REMARK    1  A    between atoms: C_2  and  C_4
REMARK    2  A    between atoms: C_7  and  N_8
REMARK    3  A    between atoms: N_8  and  C_9
REMARK    4  A    between atoms: C_9  and  C_10
REMARK    5  A    between atoms: C_14  and  C_15
REMARK                            x       y       z     vdW  Elec       q    Type
REMARK                         _______ _______ _______ _____ _____    ______ ____
ROOT
ATOM      1  N   UNL     1      47.997   7.589  14.796  0.00  0.00    +0.000 N 
ATOM      2  H   UNL     1      47.003   7.612  15.013  0.00  0.00    +0.000 HD
ENDROOT
BRANCH   1   6
ATOM      3  C   UNL     1      49.914   4.695  17.010  0.00  0.00    +0.000 A 
ATOM      4  N   UNL     1      50.637   5.794  16.702  0.00  0.00    +0.000 NA
ATOM      5  C   UNL     1      49.996   6.713  15.947  0.00  0.00    +0.000 A 
ATOM      6  C   UNL     1      48.699   6.597  15.468  0.00  0.00    +0.000 A 
ATOM      7  C   UNL     1      48.075   5.425  15.881  0.00  0.00    +0.000 A 
ATOM      8  N   UNL     1      48.648   4.457  16.629  0.00  0.00    +0.000 NA
BRANCH   3  10
ATOM      9  N   UNL     1      49.842   2.559  18.194  0.00  0.00    +0.000 N 
ATOM     10  C   UNL     1      50.591   3.677  17.900  0.00  0.00    +0.000 C 
ATOM     11  O   UNL     1      51.728   3.794  18.338  0.00  0.00    +0.000 OA
ATOM     12  H   UNL     1      50.253   1.828  18.756  0.00  0.00    +0.000 HD
ATOM     13  H   UNL     1      48.913   2.450  17.802  0.00  0.00    +0.000 HD
ENDBRANCH   3  10
ENDBRANCH   1   6
BRANCH   1  14
ATOM     14  C   UNL     1      48.256   7.873  13.386  0.00  0.00    +0.000 C 
BRANCH  14  15
ATOM     15  C   UNL     1      46.988   7.672  12.608  0.00  0.00    +0.000 A 
ATOM     16  C   UNL     1      45.993   8.637  12.582  0.00  0.00    +0.000 A 
ATOM     17  N   UNL     1      44.835   8.498  11.909  0.00  0.00    +0.000 NA
ATOM     18  C   UNL     1      44.657   7.338  11.227  0.00  0.00    +0.000 A 
ATOM     19  C   UNL     1      45.566   6.277  11.183  0.00  0.00    +0.000 A 
ATOM     20  C   UNL     1      46.751   6.478  11.907  0.00  0.00    +0.000 A 
BRANCH  19  21
ATOM     21  C   UNL     1      45.303   5.036  10.428  0.00  0.00    +0.000 A 
ATOM     22  C   UNL     1      45.695   4.870   9.090  0.00  0.00    +0.000 A 
ATOM     23  C   UNL     1      45.431   3.681   8.408  0.00  0.00    +0.000 A 
ATOM     24  C   UNL     1      44.765   2.674   9.080  0.00  0.00    +0.000 A 
ATOM     25  N   UNL     1      44.365   2.775  10.362  0.00  0.00    +0.000 NA
ATOM     26  C   UNL     1      44.645   3.940  10.997  0.00  0.00    +0.000 A 
ENDBRANCH  19  21
ENDBRANCH  14  15
ENDBRANCH   1  14
TORSDOF 5
ENDMDL
