MODEL 1
REMARK VINA RESULT:    -7.758      0.000      0.000
REMARK INTER + INTRA:         -10.556
REMARK INTER:                 -10.026
REMARK INTRA:                  -0.530
REMARK UNBOUND:                -0.530
REMARK  Name = 
REMARK  5 active torsions:
REMARK  status: ('A' for Active; 'I' for Inactive)
REMARK    1  A    between atoms: C_2  and  C_4
REMARK    2  A    between atoms: C_8  and  C_9
REMARK    3  A    between atoms: C_9  and  S_10
REMARK    4  A    between atoms: S_10  and  C_11
REMARK    5  A    between atoms: C_15  and  N_16
REMARK                            x       y       z     vdW  Elec       q    Type
REMARK                         _______ _______ _______ _____ _____    ______ ____
ROOT
ATOM      1  S   UNL     1      43.457   4.394  11.420  0.00  0.00    +0.000 S 
ENDROOT
BRANCH   1   2
ATOM      2  C   UNL     1      44.967   4.584  12.342  0.00  0.00    +0.000 A 
ATOM      3  C   UNL     1      45.507   3.492  13.005  0.00  0.00    +0.000 A 
ATOM      4  N   UNL     1      46.626   3.575  13.756  0.00  0.00    +0.000 NA
ATOM      5  C   UNL     1      47.182   4.813  13.807  0.00  0.00    +0.000 A 
ATOM      6  C   UNL     1      46.671   5.946  13.158  0.00  0.00    +0.000 A 
ATOM      7  N   UNL     1      45.541   5.808  12.417  0.00  0.00    +0.000 NA
BRANCH   6   8
ATOM      8  N   UNL     1      47.319   7.172  13.155  0.00  0.00    +0.000 N 
ATOM      9  C   UNL     1      48.739   7.184  13.552  0.00  0.00    +0.000 C 
ATOM     10  C   UNL     1      49.104   8.586  14.069  0.00  0.00    +0.000 C 
ATOM     11  O   UNL     1      48.805   9.609  13.103  0.00  0.00    +0.000 OA
ATOM     12  C   UNL     1      47.407   9.587  12.772  0.00  0.00    +0.000 C 
ATOM     13  C   UNL     1      46.993   8.227  12.182  0.00  0.00    +0.000 C 
ENDBRANCH   6   8
ENDBRANCH   1   2
BRANCH   1  14
ATOM     14  C   UNL     1      43.802   2.846  10.522  0.00  0.00    +0.000 C 
BRANCH  14  19
ATOM     15  C   UNL     1      46.441   2.220   7.822  0.00  0.00    +0.000 A 
ATOM     16  C   UNL     1      46.662   3.517   7.346  0.00  0.00    +0.000 A 
ATOM     17  C   UNL     1      45.980   4.591   7.919  0.00  0.00    +0.000 A 
ATOM     18  C   UNL     1      45.074   4.374   8.958  0.00  0.00    +0.000 A 
ATOM     19  C   UNL     1      44.832   3.078   9.439  0.00  0.00    +0.000 A 
ATOM     20  C   UNL     1      45.523   2.003   8.859  0.00  0.00    +0.000 A 
BRANCH  15  22
ATOM     21  N   UNL     1      46.788  -0.197   7.701  0.00  0.00    +0.000 N 
ATOM     22  C   UNL     1      47.131   1.039   7.226  0.00  0.00    +0.000 C 
ATOM     23  O   UNL     1      47.947   1.159   6.323  0.00  0.00    +0.000 OA
ATOM     24  H   UNL     1      47.199  -0.988   7.222  0.00  0.00    +0.000 HD
ATOM     25  H   UNL     1      45.964  -0.360   8.258  0.00  0.00    +0.000 HD
ENDBRANCH  15  22
ENDBRANCH  14  19
ENDBRANCH   1  14
TORSDOF 5
ENDMDL
MODEL 2
REMARK VINA RESULT:    -7.323      2.818      7.461
REMARK INTER + INTRA:          -9.994
REMARK INTER:                  -9.513
REMARK INTRA:                  -0.481
REMARK UNBOUND:                -0.530
REMARK  Name = 
REMARK  5 active torsions:
REMARK  status: ('A' for Active; 'I' for Inactive)
REMARK    1  A    between atoms: C_2  and  C_4
REMARK    2  A    between atoms: C_8  and  C_9
REMARK    3  A    between atoms: C_9  and  S_10
REMARK    4  A    between atoms: S_10  and  C_11
REMARK    5  A    between atoms: C_15  and  N_16
REMARK                            x       y       z     vdW  Elec       q    Type
REMARK                         _______ _______ _______ _____ _____    ______ ____
ROOT
ATOM      1  S   UNL     1      45.024   5.746  12.900  0.00  0.00    +0.000 S 
ENDROOT
BRANCH   1   2
ATOM      2  C   UNL     1      44.551   4.354  11.897  0.00  0.00    +0.000 A 
ATOM      3  C   UNL     1      43.498   3.545  12.300  0.00  0.00    +0.000 A 
ATOM      4  N   UNL     1      43.114   2.451  11.610  0.00  0.00    +0.000 NA
ATOM      5  C   UNL     1      43.839   2.207  10.487  0.00  0.00    +0.000 A 
ATOM      6  C   UNL     1      44.912   2.993  10.043  0.00  0.00    +0.000 A 
ATOM      7  N   UNL     1      45.260   4.082  10.776  0.00  0.00    +0.000 NA
BRANCH   6   8
ATOM      8  N   UNL     1      45.567   2.768   8.842  0.00  0.00    +0.000 N 
ATOM      9  C   UNL     1      45.788   1.363   8.447  0.00  0.00    +0.000 C 
ATOM     10  C   UNL     1      46.989   1.294   7.489  0.00  0.00    +0.000 C 
ATOM     11  O   UNL     1      46.816   2.153   6.349  0.00  0.00    +0.000 OA
ATOM     12  C   UNL     1      46.641   3.514   6.774  0.00  0.00    +0.000 C 
ATOM     13  C   UNL     1      45.409   3.662   7.683  0.00  0.00    +0.000 C 
ENDBRANCH   6   8
ENDBRANCH   1   2
BRANCH   1  14
ATOM     14  C   UNL     1      46.840   5.636  12.793  0.00  0.00    +0.000 C 
BRANCH  14  19
ATOM     15  C   UNL     1      47.832   4.629  16.350  0.00  0.00    +0.000 A 
ATOM     16  C   UNL     1      48.699   5.670  16.700  0.00  0.00    +0.000 A 
ATOM     17  C   UNL     1      48.936   6.708  15.798  0.00  0.00    +0.000 A 
ATOM     18  C   UNL     1      48.318   6.706  14.547  0.00  0.00    +0.000 A 
ATOM     19  C   UNL     1      47.456   5.663  14.175  0.00  0.00    +0.000 A 
ATOM     20  C   UNL     1      47.220   4.623  15.089  0.00  0.00    +0.000 A 
BRANCH  15  22
ATOM     21  N   UNL     1      48.611   3.032  18.029  0.00  0.00    +0.000 N 
ATOM     22  C   UNL     1      47.566   3.487  17.273  0.00  0.00    +0.000 C 
ATOM     23  O   UNL     1      46.452   2.994  17.381  0.00  0.00    +0.000 OA
ATOM     24  H   UNL     1      48.388   2.320  18.713  0.00  0.00    +0.000 HD
ATOM     25  H   UNL     1      49.465   3.553  18.153  0.00  0.00    +0.000 HD
ENDBRANCH  15  22
ENDBRANCH  14  19
ENDBRANCH   1  14
TORSDOF 5
ENDMDL
MODEL 3
REMARK VINA RESULT:    -7.114      2.358      3.168
REMARK INTER + INTRA:          -9.724
REMARK INTER:                  -9.152
REMARK INTRA:                  -0.572
REMARK UNBOUND:                -0.530
REMARK  Name = 
REMARK  5 active torsions:
REMARK  status: ('A' for Active; 'I' for Inactive)
REMARK    1  A    between atoms: C_2  and  C_4
REMARK    2  A    between atoms: C_8  and  C_9
REMARK    3  A    between atoms: C_9  and  S_10
REMARK    4  A    between atoms: S_10  and  C_11
REMARK    5  A    between atoms: C_15  and  N_16
REMARK                            x       y       z     vdW  Elec       q    Type
REMARK                         _______ _______ _______ _____ _____    ______ ____
ROOT
ATOM      1  S   UNL     1      43.825   4.721  11.888  0.00  0.00    +0.000 S 
ENDROOT
BRANCH   1   2
ATOM      2  C   UNL     1      45.392   5.316  12.483  0.00  0.00    +0.000 A 
ATOM      3  C   UNL     1      46.170   6.130  11.672  0.00  0.00    +0.000 A 
ATOM      4  N   UNL     1      47.386   6.582  12.044  0.00  0.00    +0.000 NA
ATOM      5  C   UNL     1      47.786   6.178  13.278  0.00  0.00    +0.000 A 
ATOM      6  C   UNL     1      47.038   5.354  14.131  0.00  0.00    +0.000 A 
ATOM      7  N   UNL     1      45.821   4.925  13.707  0.00  0.00    +0.000 NA
BRANCH   6   8
ATOM      8  N   UNL     1      47.437   5.041  15.421  0.00  0.00    +0.000 N 
ATOM      9  C   UNL     1      47.405   3.618  15.810  0.00  0.00    +0.000 C 
ATOM     10  C   UNL     1      47.277   3.518  17.339  0.00  0.00    +0.000 C 
ATOM     11  O   UNL     1      48.323   4.238  18.013  0.00  0.00    +0.000 OA
ATOM     12  C   UNL     1      48.297   5.624  17.636  0.00  0.00    +0.000 C 
ATOM     13  C   UNL     1      48.491   5.795  16.120  0.00  0.00    +0.000 C 
ENDBRANCH   6   8
ENDBRANCH   1   2
BRANCH   1  14
ATOM     14  C   UNL     1      44.292   3.056  11.312  0.00  0.00    +0.000 C 
BRANCH  14  19
ATOM     15  C   UNL     1      46.035   2.124   8.034  0.00  0.00    +0.000 A 
ATOM     16  C   UNL     1      45.624   3.166   7.197  0.00  0.00    +0.000 A 
ATOM     17  C   UNL     1      44.811   4.182   7.701  0.00  0.00    +0.000 A 
ATOM     18  C   UNL     1      44.401   4.156   9.036  0.00  0.00    +0.000 A 
ATOM     19  C   UNL     1      44.794   3.110   9.885  0.00  0.00    +0.000 A 
ATOM     20  C   UNL     1      45.613   2.094   9.371  0.00  0.00    +0.000 A 
BRANCH  15  22
ATOM     21  N   UNL     1      47.923   1.327   6.700  0.00  0.00    +0.000 N 
ATOM     22  C   UNL     1      46.886   1.006   7.532  0.00  0.00    +0.000 C 
ATOM     23  O   UNL     1      46.692  -0.153   7.873  0.00  0.00    +0.000 OA
ATOM     24  H   UNL     1      48.541   0.568   6.446  0.00  0.00    +0.000 HD
ATOM     25  H   UNL     1      48.265   2.269   6.590  0.00  0.00    +0.000 HD
ENDBRANCH  15  22
ENDBRANCH  14  19
ENDBRANCH   1  14
TORSDOF 5
ENDMDL
MODEL 4
REMARK VINA RESULT:    -6.940      5.211      8.252
REMARK INTER + INTRA:          -9.499
REMARK INTER:                  -9.003
REMARK INTRA:                  -0.496
REMARK UNBOUND:                -0.530
REMARK  Name = 
REMARK  5 active torsions:
REMARK  status: ('A' for Active; 'I' for Inactive)
REMARK    1  A    between atoms: C_2  and  C_4
REMARK    2  A    between atoms: C_8  and  C_9
REMARK    3  A    between atoms: C_9  and  S_10
REMARK    4  A    between atoms: S_10  and  C_11
REMARK    5  A    between atoms: C_15  and  N_16
REMARK                            x       y       z     vdW  Elec       q    Type
REMARK                         _______ _______ _______ _____ _____    ______ ____
ROOT
ATOM      1  S   UNL     1      47.453   3.941  17.151  0.00  0.00    +0.000 S 
ENDROOT
BRANCH   1   2
ATOM      2  C   UNL     1      47.297   4.676  15.538  0.00  0.00    +0.000 A 
ATOM      3  C   UNL     1      48.233   5.610  15.117  0.00  0.00    +0.000 A 
ATOM      4  N   UNL     1      48.151   6.237  13.924  0.00  0.00    +0.000 NA
ATOM      5  C   UNL     1      47.080   5.878  13.169  0.00  0.00    +0.000 A 
ATOM      6  C   UNL     1      46.108   4.945  13.553  0.00  0.00    +0.000 A 
ATOM      7  N   UNL     1      46.235   4.344  14.765  0.00  0.00    +0.000 NA
BRANCH   6   8
ATOM      8  N   UNL     1      45.081   4.534  12.717  0.00  0.00    +0.000 N 
ATOM      9  C   UNL     1      45.181   3.179  12.142  0.00  0.00    +0.000 C 
ATOM     10  C   UNL     1      44.360   3.123  10.843  0.00  0.00    +0.000 C 
ATOM     11  O   UNL     1      42.994   3.519  11.054  0.00  0.00    +0.000 OA
ATOM     12  C   UNL     1      42.939   4.855  11.579  0.00  0.00    +0.000 C 
ATOM     13  C   UNL     1      43.687   4.961  12.919  0.00  0.00    +0.000 C 
ENDBRANCH   6   8
ENDBRANCH   1   2
BRANCH   1  14
ATOM     14  C   UNL     1      48.502   2.501  16.765  0.00  0.00    +0.000 C 
BRANCH  14  19
ATOM     15  C   UNL     1      52.160   1.887  17.707  0.00  0.00    +0.000 A 
ATOM     16  C   UNL     1      52.546   3.155  18.156  0.00  0.00    +0.000 A 
ATOM     17  C   UNL     1      51.616   4.194  18.181  0.00  0.00    +0.000 A 
ATOM     18  C   UNL     1      50.305   3.975  17.753  0.00  0.00    +0.000 A 
ATOM     19  C   UNL     1      49.906   2.713  17.287  0.00  0.00    +0.000 A 
ATOM     20  C   UNL     1      50.847   1.672  17.266  0.00  0.00    +0.000 A 
BRANCH  15  22
ATOM     21  N   UNL     1      52.819  -0.379  18.346  0.00  0.00    +0.000 N 
ATOM     22  C   UNL     1      53.127   0.752  17.641  0.00  0.00    +0.000 C 
ATOM     23  O   UNL     1      54.141   0.809  16.959  0.00  0.00    +0.000 OA
ATOM     24  H   UNL     1      53.439  -1.168  18.215  0.00  0.00    +0.000 HD
ATOM     25  H   UNL     1      51.899  -0.560  18.715  0.00  0.00    +0.000 HD
ENDBRANCH  15  22
ENDBRANCH  14  19
ENDBRANCH   1  14
TORSDOF 5
ENDMDL
MODEL 5
REMARK VINA RESULT:    -6.865      2.056      7.034
REMARK INTER + INTRA:          -9.402
REMARK INTER:                  -8.802
REMARK INTRA:                  -0.600
REMARK UNBOUND:                -0.530
REMARK  Name = 
REMARK  5 active torsions:
REMARK  status: ('A' for Active; 'I' for Inactive)
REMARK    1  A    between atoms: C_2  and  C_4
REMARK    2  A    between atoms: C_8  and  C_9
REMARK    3  A    between atoms: C_9  and  S_10
REMARK    4  A    between atoms: S_10  and  C_11
REMARK    5  A    between atoms: C_15  and  N_16
REMARK                            x       y       z     vdW  Elec       q    Type
REMARK                         _______ _______ _______ _____ _____    ______ ____
ROOT
ATOM      1  S   UNL     1      44.758   5.984  12.877  0.00  0.00    +0.000 S 
ENDROOT
BRANCH   1   2
ATOM      2  C   UNL     1      44.381   4.515  11.946  0.00  0.00    +0.000 A 
ATOM      3  C   UNL     1      43.381   3.661  12.388  0.00  0.00    +0.000 A 
ATOM      4  N   UNL     1      43.072   2.510  11.754  0.00  0.00    +0.000 NA
ATOM      5  C   UNL     1      43.818   2.257  10.647  0.00  0.00    +0.000 A 
ATOM      6  C   UNL     1      44.840   3.087  10.165  0.00  0.00    +0.000 A 
ATOM      7  N   UNL     1      45.112   4.232  10.842  0.00  0.00    +0.000 NA
BRANCH   6   8
ATOM      8  N   UNL     1      45.515   2.843   8.979  0.00  0.00    +0.000 N 
ATOM      9  C   UNL     1      45.621   1.439   8.539  0.00  0.00    +0.000 C 
ATOM     10  C   UNL     1      46.845   1.292   7.620  0.00  0.00    +0.000 C 
ATOM     11  O   UNL     1      46.793   2.202   6.508  0.00  0.00    +0.000 OA
ATOM     12  C   UNL     1      46.727   3.558   6.977  0.00  0.00    +0.000 C 
ATOM     13  C   UNL     1      45.481   3.788   7.850  0.00  0.00    +0.000 C 
ENDBRANCH   6   8
ENDBRANCH   1   2
BRANCH   1  14
ATOM     14  C   UNL     1      45.769   6.899  11.668  0.00  0.00    +0.000 C 
BRANCH  14  19
ATOM     15  C   UNL     1      48.780   6.998  14.030  0.00  0.00    +0.000 A 
ATOM     16  C   UNL     1      49.779   7.488  13.183  0.00  0.00    +0.000 A 
ATOM     17  C   UNL     1      49.470   7.814  11.861  0.00  0.00    +0.000 A 
ATOM     18  C   UNL     1      48.170   7.644  11.382  0.00  0.00    +0.000 A 
ATOM     19  C   UNL     1      47.159   7.140  12.215  0.00  0.00    +0.000 A 
ATOM     20  C   UNL     1      47.478   6.817  13.543  0.00  0.00    +0.000 A 
BRANCH  15  22
ATOM     21  N   UNL     1      48.052   6.054  16.164  0.00  0.00    +0.000 N 
ATOM     22  C   UNL     1      49.069   6.616  15.443  0.00  0.00    +0.000 C 
ATOM     23  O   UNL     1      50.179   6.766  15.935  0.00  0.00    +0.000 OA
ATOM     24  H   UNL     1      48.294   5.719  17.088  0.00  0.00    +0.000 HD
ATOM     25  H   UNL     1      47.213   5.693  15.738  0.00  0.00    +0.000 HD
ENDBRANCH  15  22
ENDBRANCH  14  19
ENDBRANCH   1  14
TORSDOF 5
ENDMDL
MODEL 6
REMARK VINA RESULT:    -6.682      2.169      6.948
REMARK INTER + INTRA:          -9.166
REMARK INTER:                  -8.655
REMARK INTRA:                  -0.511
REMARK UNBOUND:                -0.530
REMARK  Name = 
REMARK  5 active torsions:
REMARK  status: ('A' for Active; 'I' for Inactive)
REMARK    1  A    between atoms: C_2  and  C_4
REMARK    2  A    between atoms: C_8  and  C_9
REMARK    3  A    between atoms: C_9  and  S_10
REMARK    4  A    between atoms: S_10  and  C_11
REMARK    5  A    between atoms: C_15  and  N_16
REMARK                            x       y       z     vdW  Elec       q    Type
REMARK                         _______ _______ _______ _____ _____    ______ ____
ROOT
ATOM      1  S   UNL     1      44.512   6.733  11.777  0.00  0.00    +0.000 S 
ENDROOT
BRANCH   1   2
ATOM      2  C   UNL     1      44.283   5.059  11.220  0.00  0.00    +0.000 A 
ATOM      3  C   UNL     1      43.328   4.258  11.829  0.00  0.00    +0.000 A 
ATOM      4  N   UNL     1      43.131   2.968  11.484  0.00  0.00    +0.000 NA
ATOM      5  C   UNL     1      43.942   2.518  10.492  0.00  0.00    +0.000 A 
ATOM      6  C   UNL     1      44.923   3.287   9.850  0.00  0.00    +0.000 A 
ATOM      7  N   UNL     1      45.082   4.580  10.237  0.00  0.00    +0.000 NA
BRANCH   6   8
ATOM      8  N   UNL     1      45.666   2.822   8.777  0.00  0.00    +0.000 N 
ATOM      9  C   UNL     1      45.558   1.386   8.454  0.00  0.00    +0.000 C 
ATOM     10  C   UNL     1      46.826   0.943   7.705  0.00  0.00    +0.000 C 
ATOM     11  O   UNL     1      47.064   1.743   6.533  0.00  0.00    +0.000 OA
ATOM     12  C   UNL     1      47.200   3.126   6.894  0.00  0.00    +0.000 C 
ATOM     13  C   UNL     1      45.931   3.650   7.589  0.00  0.00    +0.000 C 
ENDBRANCH   6   8
ENDBRANCH   1   2
BRANCH   1  14
ATOM     14  C   UNL     1      46.034   6.556  12.764  0.00  0.00    +0.000 C 
BRANCH  14  19
ATOM     15  C   UNL     1      49.257   8.397  11.830  0.00  0.00    +0.000 A 
ATOM     16  C   UNL     1      48.798   9.712  11.706  0.00  0.00    +0.000 A 
ATOM     17  C   UNL     1      47.456  10.004  11.954  0.00  0.00    +0.000 A 
ATOM     18  C   UNL     1      46.571   8.987  12.317  0.00  0.00    +0.000 A 
ATOM     19  C   UNL     1      47.013   7.660  12.433  0.00  0.00    +0.000 A 
ATOM     20  C   UNL     1      48.365   7.375  12.184  0.00  0.00    +0.000 A 
BRANCH  15  22
ATOM     21  N   UNL     1      51.634   8.556  12.380  0.00  0.00    +0.000 N 
ATOM     22  C   UNL     1      50.678   8.034  11.553  0.00  0.00    +0.000 C 
ATOM     23  O   UNL     1      50.982   7.274  10.644  0.00  0.00    +0.000 OA
ATOM     24  H   UNL     1      52.579   8.225  12.232  0.00  0.00    +0.000 HD
ATOM     25  H   UNL     1      51.418   8.979  13.269  0.00  0.00    +0.000 HD
ENDBRANCH  15  22
ENDBRANCH  14  19
ENDBRANCH   1  14
TORSDOF 5
ENDMDL
MODEL 7
REMARK VINA RESULT:    -6.485      3.654      7.895
REMARK INTER + INTRA:          -8.910
REMARK INTER:                  -8.391
REMARK INTRA:                  -0.520
REMARK UNBOUND:                -0.530
REMARK  Name = 
REMARK  5 active torsions:
REMARK  status: ('A' for Active; 'I' for Inactive)
REMARK    1  A    between atoms: C_2  and  C_4
REMARK    2  A    between atoms: C_8  and  C_9
REMARK    3  A    between atoms: C_9  and  S_10
REMARK    4  A    between atoms: S_10  and  C_11
REMARK    5  A    between atoms: C_15  and  N_16
REMARK                            x       y       z     vdW  Elec       q    Type
REMARK                         _______ _______ _______ _____ _____    ______ ____
ROOT
ATOM      1  S   UNL     1      48.994   7.117  13.197  0.00  0.00    +0.000 S 
ENDROOT
BRANCH   1   2
ATOM      2  C   UNL     1      47.338   7.169  12.549  0.00  0.00    +0.000 A 
ATOM      3  C   UNL     1      46.732   8.395  12.313  0.00  0.00    +0.000 A 
ATOM      4  N   UNL     1      45.465   8.507  11.863  0.00  0.00    +0.000 NA
ATOM      5  C   UNL     1      44.831   7.323  11.657  0.00  0.00    +0.000 A 
ATOM      6  C   UNL     1      45.399   6.062  11.885  0.00  0.00    +0.000 A 
ATOM      7  N   UNL     1      46.678   6.005  12.341  0.00  0.00    +0.000 NA
BRANCH   6   8
ATOM      8  N   UNL     1      44.755   4.875  11.574  0.00  0.00    +0.000 N 
ATOM      9  C   UNL     1      43.683   4.430  12.485  0.00  0.00    +0.000 C 
ATOM     10  C   UNL     1      43.520   2.906  12.362  0.00  0.00    +0.000 C 
ATOM     11  O   UNL     1      43.276   2.500  11.005  0.00  0.00    +0.000 OA
ATOM     12  C   UNL     1      44.358   2.919  10.158  0.00  0.00    +0.000 C 
ATOM     13  C   UNL     1      44.528   4.448  10.183  0.00  0.00    +0.000 C 
ENDBRANCH   6   8
ENDBRANCH   1   2
BRANCH   1  14
ATOM     14  C   UNL     1      48.704   7.658  14.912  0.00  0.00    +0.000 C 
BRANCH  14  19
ATOM     15  C   UNL     1      48.798   4.651  17.279  0.00  0.00    +0.000 A 
ATOM     16  C   UNL     1      50.155   4.608  17.616  0.00  0.00    +0.000 A 
ATOM     17  C   UNL     1      51.029   5.567  17.102  0.00  0.00    +0.000 A 
ATOM     18  C   UNL     1      50.553   6.564  16.248  0.00  0.00    +0.000 A 
ATOM     19  C   UNL     1      49.197   6.614  15.889  0.00  0.00    +0.000 A 
ATOM     20  C   UNL     1      48.325   5.646  16.412  0.00  0.00    +0.000 A 
BRANCH  15  22
ATOM     21  N   UNL     1      48.157   2.977  18.941  0.00  0.00    +0.000 N 
ATOM     22  C   UNL     1      47.832   3.633  17.786  0.00  0.00    +0.000 C 
ATOM     23  O   UNL     1      46.773   3.412  17.216  0.00  0.00    +0.000 OA
ATOM     24  H   UNL     1      47.449   2.359  19.316  0.00  0.00    +0.000 HD
ATOM     25  H   UNL     1      48.884   3.292  19.564  0.00  0.00    +0.000 HD
ENDBRANCH  15  22
ENDBRANCH  14  19
ENDBRANCH   1  14
TORSDOF 5
ENDMDL
MODEL 8
REMARK VINA RESULT:    -6.366      3.509      5.251
REMARK INTER + INTRA:          -8.757
REMARK INTER:                  -8.200
REMARK INTRA:                  -0.557
REMARK UNBOUND:                -0.530
REMARK  Name = 
REMARK  5 active torsions:
REMARK  status: ('A' for Active; 'I' for Inactive)
REMARK    1  A    between atoms: C_2  and  C_4
REMARK    2  A    between atoms: C_8  and  C_9
REMARK    3  A    between atoms: C_9  and  S_10
REMARK    4  A    between atoms: S_10  and  C_11
REMARK    5  A    between atoms: C_15  and  N_16
REMARK                            x       y       z     vdW  Elec       q    Type
REMARK                         _______ _______ _______ _____ _____    ______ ____
ROOT
ATOM      1  S   UNL     1      47.976   7.598  12.376  0.00  0.00    +0.000 S 
ENDROOT
BRANCH   1   2
ATOM      2  C   UNL     1      48.429   7.539  14.096  0.00  0.00    +0.000 A 
ATOM      3  C   UNL     1      48.853   8.696  14.734  0.00  0.00    +0.000 A 
ATOM      4  N   UNL     1      49.251   8.713  16.023  0.00  0.00    +0.000 NA
ATOM      5  C   UNL     1      49.201   7.507  16.647  0.00  0.00    +0.000 A 
ATOM      6  C   UNL     1      48.785   6.312  16.043  0.00  0.00    +0.000 A 
ATOM      7  N   UNL     1      48.396   6.349  14.742  0.00  0.00    +0.000 NA
BRANCH   6   8
ATOM      8  N   UNL     1      48.656   5.119  16.738  0.00  0.00    +0.000 N 
ATOM      9  C   UNL     1      49.787   4.712  17.593  0.00  0.00    +0.000 C 
ATOM     10  C   UNL     1      49.754   3.185  17.777  0.00  0.00    +0.000 C 
ATOM     11  O   UNL     1      48.493   2.736  18.301  0.00  0.00    +0.000 OA
ATOM     12  C   UNL     1      47.423   3.119  17.422  0.00  0.00    +0.000 C 
ATOM     13  C   UNL     1      47.360   4.647  17.252  0.00  0.00    +0.000 C 
ENDBRANCH   6   8
ENDBRANCH   1   2
BRANCH   1  14
ATOM     14  C   UNL     1      46.160   7.498  12.503  0.00  0.00    +0.000 C 
BRANCH  14  19
ATOM     15  C   UNL     1      45.250   4.587  10.190  0.00  0.00    +0.000 A 
ATOM     16  C   UNL     1      44.857   3.613  11.113  0.00  0.00    +0.000 A 
ATOM     17  C   UNL     1      44.858   3.909  12.477  0.00  0.00    +0.000 A 
ATOM     18  C   UNL     1      45.258   5.171  12.921  0.00  0.00    +0.000 A 
ATOM     19  C   UNL     1      45.668   6.155  12.008  0.00  0.00    +0.000 A 
ATOM     20  C   UNL     1      45.662   5.850  10.638  0.00  0.00    +0.000 A 
BRANCH  15  22
ATOM     21  N   UNL     1      44.269   3.557   8.201  0.00  0.00    +0.000 N 
ATOM     22  C   UNL     1      45.285   4.308   8.724  0.00  0.00    +0.000 C 
ATOM     23  O   UNL     1      46.167   4.757   8.005  0.00  0.00    +0.000 OA
ATOM     24  H   UNL     1      44.262   3.457   7.194  0.00  0.00    +0.000 HD
ATOM     25  H   UNL     1      43.410   3.376   8.697  0.00  0.00    +0.000 HD
ENDBRANCH  15  22
ENDBRANCH  14  19
ENDBRANCH   1  14
TORSDOF 5
ENDMDL
MODEL 9
REMARK VINA RESULT:    -6.129      3.708      5.465
REMARK INTER + INTRA:          -8.451
REMARK INTER:                  -7.904
REMARK INTRA:                  -0.547
REMARK UNBOUND:                -0.530
REMARK  Name = 
REMARK  5 active torsions:
REMARK  status: ('A' for Active; 'I' for Inactive)
REMARK    1  A    between atoms: C_2  and  C_4
REMARK    2  A    between atoms: C_8  and  C_9
REMARK    3  A    between atoms: C_9  and  S_10
REMARK    4  A    between atoms: S_10  and  C_11
REMARK    5  A    between atoms: C_15  and  N_16
REMARK                            x       y       z     vdW  Elec       q    Type
REMARK                         _______ _______ _______ _____ _____    ______ ____
ROOT
ATOM      1  S   UNL     1      48.277   6.843  12.171  0.00  0.00    +0.000 S 
ENDROOT
BRANCH   1   2
ATOM      2  C   UNL     1      48.458   7.135  13.917  0.00  0.00    +0.000 A 
ATOM      3  C   UNL     1      48.608   8.434  14.383  0.00  0.00    +0.000 A 
ATOM      4  N   UNL     1      48.792   8.723  15.689  0.00  0.00    +0.000 NA
ATOM      5  C   UNL     1      48.816   7.641  16.510  0.00  0.00    +0.000 A 
ATOM      6  C   UNL     1      48.673   6.312  16.085  0.00  0.00    +0.000 A 
ATOM      7  N   UNL     1      48.493   6.076  14.760  0.00  0.00    +0.000 NA
BRANCH   6   8
ATOM      8  N   UNL     1      48.608   5.241  16.963  0.00  0.00    +0.000 N 
ATOM      9  C   UNL     1      48.350   5.547  18.382  0.00  0.00    +0.000 C 
ATOM     10  C   UNL     1      48.897   4.402  19.251  0.00  0.00    +0.000 C 
ATOM     11  O   UNL     1      48.350   3.129  18.867  0.00  0.00    +0.000 OA
ATOM     12  C   UNL     1      48.654   2.852  17.490  0.00  0.00    +0.000 C 
ATOM     13  C   UNL     1      48.071   3.930  16.560  0.00  0.00    +0.000 C 
ENDBRANCH   6   8
ENDBRANCH   1   2
BRANCH   1  14
ATOM     14  C   UNL     1      46.486   7.113  11.968  0.00  0.00    +0.000 C 
BRANCH  14  19
ATOM     15  C   UNL     1      44.411   3.965  11.311  0.00  0.00    +0.000 A 
ATOM     16  C   UNL     1      44.576   3.809   9.931  0.00  0.00    +0.000 A 
ATOM     17  C   UNL     1      45.381   4.702   9.223  0.00  0.00    +0.000 A 
ATOM     18  C   UNL     1      46.014   5.754   9.887  0.00  0.00    +0.000 A 
ATOM     19  C   UNL     1      45.848   5.933  11.269  0.00  0.00    +0.000 A 
ATOM     20  C   UNL     1      45.038   5.029  11.974  0.00  0.00    +0.000 A 
BRANCH  15  22
ATOM     21  N   UNL     1      43.411   3.304  13.442  0.00  0.00    +0.000 N 
ATOM     22  C   UNL     1      43.542   3.047  12.105  0.00  0.00    +0.000 C 
ATOM     23  O   UNL     1      42.940   2.120  11.583  0.00  0.00    +0.000 OA
ATOM     24  H   UNL     1      42.747   2.727  13.943  0.00  0.00    +0.000 HD
ATOM     25  H   UNL     1      43.684   4.179  13.861  0.00  0.00    +0.000 HD
ENDBRANCH  15  22
ENDBRANCH  14  19
ENDBRANCH   1  14
TORSDOF 5
ENDMDL
