MODEL 1
REMARK VINA RESULT:    -8.378      0.000      0.000
REMARK INTER + INTRA:         -13.878
REMARK INTER:                 -13.031
REMARK INTRA:                  -0.847
REMARK UNBOUND:                -0.847
REMARK  Name = 
REMARK  10 active torsions:
REMARK  status: ('A' for Active; 'I' for Inactive)
REMARK    1  A    between atoms: N_1  and  C_2
REMARK    2  A    between atoms: C_2  and  C_3
REMARK    3  A    between atoms: C_3  and  N_4
REMARK    4  A    between atoms: C_3  and  C_20
REMARK    5  A    between atoms: N_4  and  C_5
REMARK    6  A    between atoms: C_5  and  C_6
REMARK    7  A    between atoms: C_9  and  C_10
REMARK    8  A    between atoms: C_10  and  N_11
REMARK    9  A    between atoms: N_11  and  C_12
REMARK   10  A    between atoms: C_12  and  C_13
REMARK                            x       y       z     vdW  Elec       q    Type
REMARK                         _______ _______ _______ _____ _____    ______ ____
ROOT
ATOM      1  N   UNL     1      48.248   4.568  15.666  0.00  0.00    +0.000 NA
ATOM      2  H   UNL     1      49.195   4.321  15.376  0.00  0.00    +0.000 HD
ENDROOT
BRANCH   1   3
ATOM      3  C   UNL     1      48.312   5.088  17.046  0.00  0.00    +0.000 C 
BRANCH   3   4
ATOM      4  C   UNL     1      49.735   4.859  17.541  0.00  0.00    +0.000 A 
ATOM      5  C   UNL     1      50.561   5.832  18.086  0.00  0.00    +0.000 A 
ATOM      6  S   UNL     1      52.103   5.246  18.525  0.00  0.00    +0.000 S 
ATOM      7  C   UNL     1      51.724   3.675  17.988  0.00  0.00    +0.000 A 
ATOM      8  N   UNL     1      52.627   2.662  18.072  0.00  0.00    +0.000 NA
ATOM      9  C   UNL     1      52.201   1.533  17.614  0.00  0.00    +0.000 A 
ATOM     10  N   UNL     1      50.955   1.320  17.083  0.00  0.00    +0.000 N 
ATOM     11  C   UNL     1      50.001   2.310  16.984  0.00  0.00    +0.000 A 
ATOM     12  O   UNL     1      48.887   2.082  16.518  0.00  0.00    +0.000 OA
ATOM     13  C   UNL     1      50.438   3.600  17.487  0.00  0.00    +0.000 A 
ATOM     14  H   UNL     1      50.684   0.408  16.745  0.00  0.00    +0.000 HD
ENDBRANCH   3   4
BRANCH   3  15
ATOM     15  C   UNL     1      47.263   4.428  17.999  0.00  0.00    +0.000 C 
BRANCH  15  16
ATOM     16  N   UNL     1      46.530   3.292  17.426  0.00  0.00    +0.000 NA
ATOM     17  H   UNL     1      46.817   2.436  17.896  0.00  0.00    +0.000 HD
ATOM     18  H   UNL     1      46.785   3.189  16.440  0.00  0.00    +0.000 HD
ENDBRANCH  15  16
ENDBRANCH   3  15
ENDBRANCH   1   3
BRANCH   1  19
ATOM     19  C   UNL     1      47.715   5.529  14.706  0.00  0.00    +0.000 C 
BRANCH  19  20
ATOM     20  C   UNL     1      46.627   4.910  13.873  0.00  0.00    +0.000 A 
ATOM     21  C   UNL     1      45.630   5.694  13.286  0.00  0.00    +0.000 A 
ATOM     22  C   UNL     1      44.683   5.103  12.457  0.00  0.00    +0.000 A 
ATOM     23  C   UNL     1      44.761   3.734  12.224  0.00  0.00    +0.000 A 
ATOM     24  N   UNL     1      45.706   2.945  12.797  0.00  0.00    +0.000 NA
ATOM     25  C   UNL     1      46.609   3.547  13.605  0.00  0.00    +0.000 A 
BRANCH  23  26
ATOM     26  C   UNL     1      43.762   3.060  11.303  0.00  0.00    +0.000 C 
BRANCH  26  27
ATOM     27  N   UNL     1      44.371   2.310  10.194  0.00  0.00    +0.000 NA
ATOM     28  H   UNL     1      43.664   1.640   9.869  0.00  0.00    +0.000 HD
BRANCH  27  29
ATOM     29  C   UNL     1      44.696   3.186   9.063  0.00  0.00    +0.000 C 
BRANCH  29  30
ATOM     30  C   UNL     1      45.737   2.504   8.220  0.00  0.00    +0.000 C 
ATOM     31  C   UNL     1      46.481   3.208   7.159  0.00  0.00    +0.000 C 
ATOM     32  C   UNL     1      47.363   2.200   6.658  0.00  0.00    +0.000 C 
ATOM     33  C   UNL     1      47.106   1.103   7.385  0.00  0.00    +0.000 C 
ATOM     34  N   UNL     1      46.121   1.256   8.343  0.00  0.00    +0.000 NA
ENDBRANCH  29  30
ENDBRANCH  27  29
ENDBRANCH  26  27
ENDBRANCH  23  26
ENDBRANCH  19  20
ENDBRANCH   1  19
TORSDOF 10
ENDMDL
MODEL 2
REMARK VINA RESULT:    -7.485      2.213      3.017
REMARK INTER + INTRA:         -12.488
REMARK INTER:                 -11.324
REMARK INTRA:                  -1.164
REMARK UNBOUND:                -0.847
REMARK  Name = 
REMARK  10 active torsions:
REMARK  status: ('A' for Active; 'I' for Inactive)
REMARK    1  A    between atoms: N_1  and  C_2
REMARK    2  A    between atoms: C_2  and  C_3
REMARK    3  A    between atoms: C_3  and  N_4
REMARK    4  A    between atoms: C_3  and  C_20
REMARK    5  A    between atoms: N_4  and  C_5
REMARK    6  A    between atoms: C_5  and  C_6
REMARK    7  A    between atoms: C_9  and  C_10
REMARK    8  A    between atoms: C_10  and  N_11
REMARK    9  A    between atoms: N_11  and  C_12
REMARK   10  A    between atoms: C_12  and  C_13
REMARK                            x       y       z     vdW  Elec       q    Type
REMARK                         _______ _______ _______ _____ _____    ______ ____
ROOT
ATOM      1  N   UNL     1      48.206   5.987  14.892  0.00  0.00    +0.000 NA
ATOM      2  H   UNL     1      48.448   5.020  14.671  0.00  0.00    +0.000 HD
ENDROOT
BRANCH   1   3
ATOM      3  C   UNL     1      49.364   6.607  15.564  0.00  0.00    +0.000 C 
BRANCH   3   4
ATOM      4  C   UNL     1      48.949   6.877  17.006  0.00  0.00    +0.000 A 
ATOM      5  C   UNL     1      48.582   8.114  17.517  0.00  0.00    +0.000 A 
ATOM      6  S   UNL     1      48.190   8.072  19.178  0.00  0.00    +0.000 S 
ATOM      7  C   UNL     1      48.510   6.403  19.273  0.00  0.00    +0.000 A 
ATOM      8  N   UNL     1      48.373   5.722  20.442  0.00  0.00    +0.000 NA
ATOM      9  C   UNL     1      48.664   4.467  20.362  0.00  0.00    +0.000 A 
ATOM     10  N   UNL     1      49.075   3.827  19.221  0.00  0.00    +0.000 N 
ATOM     11  C   UNL     1      49.220   4.469  18.010  0.00  0.00    +0.000 A 
ATOM     12  O   UNL     1      49.576   3.862  17.002  0.00  0.00    +0.000 OA
ATOM     13  C   UNL     1      48.905   5.885  18.054  0.00  0.00    +0.000 A 
ATOM     14  H   UNL     1      49.283   2.839  19.227  0.00  0.00    +0.000 HD
ENDBRANCH   3   4
BRANCH   3  15
ATOM     15  C   UNL     1      49.856   7.913  14.858  0.00  0.00    +0.000 C 
BRANCH  15  16
ATOM     16  N   UNL     1      51.170   7.813  14.210  0.00  0.00    +0.000 NA
ATOM     17  H   UNL     1      51.134   8.279  13.306  0.00  0.00    +0.000 HD
ATOM     18  H   UNL     1      51.382   6.829  14.029  0.00  0.00    +0.000 HD
ENDBRANCH  15  16
ENDBRANCH   3  15
ENDBRANCH   1   3
BRANCH   1  19
ATOM     19  C   UNL     1      47.826   6.656  13.652  0.00  0.00    +0.000 C 
BRANCH  19  20
ATOM     20  C   UNL     1      46.690   5.936  12.980  0.00  0.00    +0.000 A 
ATOM     21  C   UNL     1      46.328   6.228  11.662  0.00  0.00    +0.000 A 
ATOM     22  C   UNL     1      45.324   5.493  11.040  0.00  0.00    +0.000 A 
ATOM     23  C   UNL     1      44.709   4.468  11.753  0.00  0.00    +0.000 A 
ATOM     24  N   UNL     1      45.027   4.177  13.041  0.00  0.00    +0.000 NA
ATOM     25  C   UNL     1      46.001   4.914  13.621  0.00  0.00    +0.000 A 
BRANCH  23  26
ATOM     26  C   UNL     1      43.630   3.627  11.099  0.00  0.00    +0.000 C 
BRANCH  26  27
ATOM     27  N   UNL     1      43.858   3.352   9.673  0.00  0.00    +0.000 NA
ATOM     28  H   UNL     1      44.440   4.118   9.314  0.00  0.00    +0.000 HD
BRANCH  27  29
ATOM     29  C   UNL     1      44.606   2.105   9.474  0.00  0.00    +0.000 C 
BRANCH  29  30
ATOM     30  C   UNL     1      45.651   2.342   8.420  0.00  0.00    +0.000 C 
ATOM     31  C   UNL     1      45.790   3.631   7.718  0.00  0.00    +0.000 C 
ATOM     32  C   UNL     1      46.905   3.409   6.851  0.00  0.00    +0.000 C 
ATOM     33  C   UNL     1      47.300   2.150   7.087  0.00  0.00    +0.000 C 
ATOM     34  N   UNL     1      46.556   1.473   8.036  0.00  0.00    +0.000 NA
ENDBRANCH  29  30
ENDBRANCH  27  29
ENDBRANCH  26  27
ENDBRANCH  23  26
ENDBRANCH  19  20
ENDBRANCH   1  19
TORSDOF 10
ENDMDL
MODEL 3
REMARK VINA RESULT:    -7.261      1.875      2.523
REMARK INTER + INTRA:         -12.139
REMARK INTER:                 -11.391
REMARK INTRA:                  -0.749
REMARK UNBOUND:                -0.847
REMARK  Name = 
REMARK  10 active torsions:
REMARK  status: ('A' for Active; 'I' for Inactive)
REMARK    1  A    between atoms: N_1  and  C_2
REMARK    2  A    between atoms: C_2  and  C_3
REMARK    3  A    between atoms: C_3  and  N_4
REMARK    4  A    between atoms: C_3  and  C_20
REMARK    5  A    between atoms: N_4  and  C_5
REMARK    6  A    between atoms: C_5  and  C_6
REMARK    7  A    between atoms: C_9  and  C_10
REMARK    8  A    between atoms: C_10  and  N_11
REMARK    9  A    between atoms: N_11  and  C_12
REMARK   10  A    between atoms: C_12  and  C_13
REMARK                            x       y       z     vdW  Elec       q    Type
REMARK                         _______ _______ _______ _____ _____    ______ ____
ROOT
ATOM      1  N   UNL     1      48.311   4.713  15.527  0.00  0.00    +0.000 NA
ATOM      2  H   UNL     1      49.149   5.185  15.871  0.00  0.00    +0.000 HD
ENDROOT
BRANCH   1   3
ATOM      3  C   UNL     1      47.598   4.142  16.687  0.00  0.00    +0.000 C 
BRANCH   3   4
ATOM      4  C   UNL     1      47.888   5.050  17.877  0.00  0.00    +0.000 A 
ATOM      5  C   UNL     1      46.929   5.693  18.648  0.00  0.00    +0.000 A 
ATOM      6  S   UNL     1      47.592   6.651  19.896  0.00  0.00    +0.000 S 
ATOM      7  C   UNL     1      49.182   6.250  19.440  0.00  0.00    +0.000 A 
ATOM      8  N   UNL     1      50.256   6.750  20.108  0.00  0.00    +0.000 NA
ATOM      9  C   UNL     1      51.396   6.367  19.639  0.00  0.00    +0.000 A 
ATOM     10  N   UNL     1      51.564   5.529  18.567  0.00  0.00    +0.000 N 
ATOM     11  C   UNL     1      50.510   4.989  17.862  0.00  0.00    +0.000 A 
ATOM     12  O   UNL     1      50.695   4.228  16.915  0.00  0.00    +0.000 OA
ATOM     13  C   UNL     1      49.206   5.394  18.355  0.00  0.00    +0.000 A 
ATOM     14  H   UNL     1      52.488   5.267  18.254  0.00  0.00    +0.000 HD
ENDBRANCH   3   4
BRANCH   3  15
ATOM     15  C   UNL     1      48.003   2.662  16.987  0.00  0.00    +0.000 C 
BRANCH  15  16
ATOM     16  N   UNL     1      48.953   2.071  16.035  0.00  0.00    +0.000 NA
ATOM     17  H   UNL     1      49.793   1.786  16.534  0.00  0.00    +0.000 HD
ATOM     18  H   UNL     1      49.238   2.784  15.358  0.00  0.00    +0.000 HD
ENDBRANCH  15  16
ENDBRANCH   3  15
ENDBRANCH   1   3
BRANCH   1  19
ATOM     19  C   UNL     1      47.519   5.681  14.777  0.00  0.00    +0.000 C 
BRANCH  19  20
ATOM     20  C   UNL     1      46.509   4.989  13.904  0.00  0.00    +0.000 A 
ATOM     21  C   UNL     1      45.459   5.695  13.311  0.00  0.00    +0.000 A 
ATOM     22  C   UNL     1      44.587   5.043  12.447  0.00  0.00    +0.000 A 
ATOM     23  C   UNL     1      44.791   3.692  12.185  0.00  0.00    +0.000 A 
ATOM     24  N   UNL     1      45.790   2.977  12.764  0.00  0.00    +0.000 NA
ATOM     25  C   UNL     1      46.618   3.636  13.605  0.00  0.00    +0.000 A 
BRANCH  23  26
ATOM     26  C   UNL     1      43.877   2.955  11.226  0.00  0.00    +0.000 C 
BRANCH  26  27
ATOM     27  N   UNL     1      44.567   2.343  10.081  0.00  0.00    +0.000 NA
ATOM     28  H   UNL     1      44.037   1.499   9.835  0.00  0.00    +0.000 HD
BRANCH  27  29
ATOM     29  C   UNL     1      44.554   3.225   8.907  0.00  0.00    +0.000 C 
BRANCH  29  30
ATOM     30  C   UNL     1      45.756   2.908   8.063  0.00  0.00    +0.000 C 
ATOM     31  C   UNL     1      46.363   1.565   8.022  0.00  0.00    +0.000 C 
ATOM     32  C   UNL     1      47.433   1.722   7.086  0.00  0.00    +0.000 C 
ATOM     33  C   UNL     1      47.377   3.000   6.685  0.00  0.00    +0.000 C 
ATOM     34  N   UNL     1      46.368   3.749   7.263  0.00  0.00    +0.000 NA
ENDBRANCH  29  30
ENDBRANCH  27  29
ENDBRANCH  26  27
ENDBRANCH  23  26
ENDBRANCH  19  20
ENDBRANCH   1  19
TORSDOF 10
ENDMDL
MODEL 4
REMARK VINA RESULT:    -6.808      2.676      3.585
REMARK INTER + INTRA:         -11.436
REMARK INTER:                 -10.515
REMARK INTRA:                  -0.921
REMARK UNBOUND:                -0.847
REMARK  Name = 
REMARK  10 active torsions:
REMARK  status: ('A' for Active; 'I' for Inactive)
REMARK    1  A    between atoms: N_1  and  C_2
REMARK    2  A    between atoms: C_2  and  C_3
REMARK    3  A    between atoms: C_3  and  N_4
REMARK    4  A    between atoms: C_3  and  C_20
REMARK    5  A    between atoms: N_4  and  C_5
REMARK    6  A    between atoms: C_5  and  C_6
REMARK    7  A    between atoms: C_9  and  C_10
REMARK    8  A    between atoms: C_10  and  N_11
REMARK    9  A    between atoms: N_11  and  C_12
REMARK   10  A    between atoms: C_12  and  C_13
REMARK                            x       y       z     vdW  Elec       q    Type
REMARK                         _______ _______ _______ _____ _____    ______ ____
ROOT
ATOM      1  N   UNL     1      47.966   5.235  14.964  0.00  0.00    +0.000 NA
ATOM      2  H   UNL     1      47.815   5.987  14.290  0.00  0.00    +0.000 HD
ENDROOT
BRANCH   1   3
ATOM      3  C   UNL     1      48.281   5.846  16.270  0.00  0.00    +0.000 C 
BRANCH   3   4
ATOM      4  C   UNL     1      49.739   6.287  16.214  0.00  0.00    +0.000 A 
ATOM      5  C   UNL     1      50.746   5.839  17.057  0.00  0.00    +0.000 A 
ATOM      6  S   UNL     1      52.266   6.547  16.735  0.00  0.00    +0.000 S 
ATOM      7  C   UNL     1      51.627   7.486  15.467  0.00  0.00    +0.000 A 
ATOM      8  N   UNL     1      52.410   8.339  14.755  0.00  0.00    +0.000 NA
ATOM      9  C   UNL     1      51.783   8.992  13.835  0.00  0.00    +0.000 A 
ATOM     10  N   UNL     1      50.446   8.869  13.557  0.00  0.00    +0.000 N 
ATOM     11  C   UNL     1      49.611   8.013  14.243  0.00  0.00    +0.000 A 
ATOM     12  O   UNL     1      48.420   7.916  13.958  0.00  0.00    +0.000 OA
ATOM     13  C   UNL     1      50.275   7.258  15.290  0.00  0.00    +0.000 A 
ATOM     14  H   UNL     1      50.019   9.409  12.819  0.00  0.00    +0.000 HD
ENDBRANCH   3   4
BRANCH   3  15
ATOM     15  C   UNL     1      48.022   4.884  17.475  0.00  0.00    +0.000 C 
BRANCH  15  16
ATOM     16  N   UNL     1      46.773   5.130  18.210  0.00  0.00    +0.000 NA
ATOM     17  H   UNL     1      46.360   4.238  18.474  0.00  0.00    +0.000 HD
ATOM     18  H   UNL     1      46.104   5.595  17.591  0.00  0.00    +0.000 HD
ENDBRANCH  15  16
ENDBRANCH   3  15
ENDBRANCH   1   3
BRANCH   1  19
ATOM     19  C   UNL     1      46.771   4.398  14.986  0.00  0.00    +0.000 C 
BRANCH  19  20
ATOM     20  C   UNL     1      46.073   4.422  13.655  0.00  0.00    +0.000 A 
ATOM     21  C   UNL     1      45.920   3.259  12.896  0.00  0.00    +0.000 A 
ATOM     22  C   UNL     1      45.201   3.297  11.707  0.00  0.00    +0.000 A 
ATOM     23  C   UNL     1      44.639   4.505  11.305  0.00  0.00    +0.000 A 
ATOM     24  N   UNL     1      44.789   5.654  12.012  0.00  0.00    +0.000 NA
ATOM     25  C   UNL     1      45.499   5.588  13.161  0.00  0.00    +0.000 A 
BRANCH  23  26
ATOM     26  C   UNL     1      43.825   4.579  10.028  0.00  0.00    +0.000 C 
BRANCH  26  27
ATOM     27  N   UNL     1      44.137   3.527   9.048  0.00  0.00    +0.000 NA
ATOM     28  H   UNL     1      43.258   3.302   8.568  0.00  0.00    +0.000 HD
BRANCH  27  29
ATOM     29  C   UNL     1      45.083   3.999   8.031  0.00  0.00    +0.000 C 
BRANCH  29  30
ATOM     30  C   UNL     1      46.042   2.885   7.721  0.00  0.00    +0.000 C 
ATOM     31  C   UNL     1      45.864   1.518   8.246  0.00  0.00    +0.000 C 
ATOM     32  C   UNL     1      46.968   0.808   7.679  0.00  0.00    +0.000 C 
ATOM     33  C   UNL     1      47.634   1.705   6.940  0.00  0.00    +0.000 C 
ATOM     34  N   UNL     1      47.096   2.980   6.945  0.00  0.00    +0.000 NA
ENDBRANCH  29  30
ENDBRANCH  27  29
ENDBRANCH  26  27
ENDBRANCH  23  26
ENDBRANCH  19  20
ENDBRANCH   1  19
TORSDOF 10
ENDMDL
MODEL 5
REMARK VINA RESULT:    -6.700      3.393      8.657
REMARK INTER + INTRA:         -11.267
REMARK INTER:                 -10.624
REMARK INTRA:                  -0.643
REMARK UNBOUND:                -0.847
REMARK  Name = 
REMARK  10 active torsions:
REMARK  status: ('A' for Active; 'I' for Inactive)
REMARK    1  A    between atoms: N_1  and  C_2
REMARK    2  A    between atoms: C_2  and  C_3
REMARK    3  A    between atoms: C_3  and  N_4
REMARK    4  A    between atoms: C_3  and  C_20
REMARK    5  A    between atoms: N_4  and  C_5
REMARK    6  A    between atoms: C_5  and  C_6
REMARK    7  A    between atoms: C_9  and  C_10
REMARK    8  A    between atoms: C_10  and  N_11
REMARK    9  A    between atoms: N_11  and  C_12
REMARK   10  A    between atoms: C_12  and  C_13
REMARK                            x       y       z     vdW  Elec       q    Type
REMARK                         _______ _______ _______ _____ _____    ______ ____
ROOT
ATOM      1  N   UNL     1      46.922   6.449  11.735  0.00  0.00    +0.000 NA
ATOM      2  H   UNL     1      47.311   5.612  12.172  0.00  0.00    +0.000 HD
ENDROOT
BRANCH   1   3
ATOM      3  C   UNL     1      45.515   6.576  12.162  0.00  0.00    +0.000 C 
BRANCH   3   4
ATOM      4  C   UNL     1      44.857   5.220  11.932  0.00  0.00    +0.000 A 
ATOM      5  C   UNL     1      44.152   4.499  12.886  0.00  0.00    +0.000 A 
ATOM      6  S   UNL     1      43.557   3.007  12.306  0.00  0.00    +0.000 S 
ATOM      7  C   UNL     1      44.233   3.269  10.765  0.00  0.00    +0.000 A 
ATOM      8  N   UNL     1      44.097   2.353   9.769  0.00  0.00    +0.000 NA
ATOM      9  C   UNL     1      44.673   2.685   8.663  0.00  0.00    +0.000 A 
ATOM     10  N   UNL     1      45.370   3.848   8.458  0.00  0.00    +0.000 N 
ATOM     11  C   UNL     1      45.530   4.810   9.431  0.00  0.00    +0.000 A 
ATOM     12  O   UNL     1      46.148   5.849   9.209  0.00  0.00    +0.000 OA
ATOM     13  C   UNL     1      44.898   4.479  10.694  0.00  0.00    +0.000 A 
ATOM     14  H   UNL     1      45.795   4.046   7.563  0.00  0.00    +0.000 HD
ENDBRANCH   3   4
BRANCH   3  15
ATOM     15  C   UNL     1      44.748   7.715  11.414  0.00  0.00    +0.000 C 
BRANCH  15  16
ATOM     16  N   UNL     1      43.349   7.412  11.085  0.00  0.00    +0.000 NA
ATOM     17  H   UNL     1      42.802   7.381  11.943  0.00  0.00    +0.000 HD
ATOM     18  H   UNL     1      43.297   6.480  10.666  0.00  0.00    +0.000 HD
ENDBRANCH  15  16
ENDBRANCH   3  15
ENDBRANCH   1   3
BRANCH   1  19
ATOM     19  C   UNL     1      47.750   7.588  12.115  0.00  0.00    +0.000 C 
BRANCH  19  20
ATOM     20  C   UNL     1      48.581   7.267  13.327  0.00  0.00    +0.000 A 
ATOM     21  C   UNL     1      49.798   7.913  13.561  0.00  0.00    +0.000 A 
ATOM     22  C   UNL     1      50.506   7.653  14.729  0.00  0.00    +0.000 A 
ATOM     23  C   UNL     1      49.972   6.755  15.648  0.00  0.00    +0.000 A 
ATOM     24  N   UNL     1      48.802   6.098  15.436  0.00  0.00    +0.000 NA
ATOM     25  C   UNL     1      48.140   6.366  14.288  0.00  0.00    +0.000 A 
BRANCH  23  26
ATOM     26  C   UNL     1      50.702   6.468  16.946  0.00  0.00    +0.000 C 
BRANCH  26  27
ATOM     27  N   UNL     1      51.359   5.154  16.994  0.00  0.00    +0.000 NA
ATOM     28  H   UNL     1      52.356   5.330  17.167  0.00  0.00    +0.000 HD
BRANCH  27  29
ATOM     29  C   UNL     1      50.860   4.340  18.108  0.00  0.00    +0.000 C 
BRANCH  29  30
ATOM     30  C   UNL     1      49.626   3.615  17.650  0.00  0.00    +0.000 C 
ATOM     31  C   UNL     1      48.327   3.751  18.336  0.00  0.00    +0.000 C 
ATOM     32  C   UNL     1      47.459   2.928  17.553  0.00  0.00    +0.000 C 
ATOM     33  C   UNL     1      48.223   2.431  16.570  0.00  0.00    +0.000 C 
ATOM     34  N   UNL     1      49.547   2.830  16.602  0.00  0.00    +0.000 NA
ENDBRANCH  29  30
ENDBRANCH  27  29
ENDBRANCH  26  27
ENDBRANCH  23  26
ENDBRANCH  19  20
ENDBRANCH   1  19
TORSDOF 10
ENDMDL
MODEL 6
REMARK VINA RESULT:    -6.656      3.562      8.538
REMARK INTER + INTRA:         -11.199
REMARK INTER:                  -9.909
REMARK INTRA:                  -1.290
REMARK UNBOUND:                -0.847
REMARK  Name = 
REMARK  10 active torsions:
REMARK  status: ('A' for Active; 'I' for Inactive)
REMARK    1  A    between atoms: N_1  and  C_2
REMARK    2  A    between atoms: C_2  and  C_3
REMARK    3  A    between atoms: C_3  and  N_4
REMARK    4  A    between atoms: C_3  and  C_20
REMARK    5  A    between atoms: N_4  and  C_5
REMARK    6  A    between atoms: C_5  and  C_6
REMARK    7  A    between atoms: C_9  and  C_10
REMARK    8  A    between atoms: C_10  and  N_11
REMARK    9  A    between atoms: N_11  and  C_12
REMARK   10  A    between atoms: C_12  and  C_13
REMARK                            x       y       z     vdW  Elec       q    Type
REMARK                         _______ _______ _______ _____ _____    ______ ____
ROOT
ATOM      1  N   UNL     1      47.558   7.045  11.383  0.00  0.00    +0.000 NA
ATOM      2  H   UNL     1      48.074   6.238  11.738  0.00  0.00    +0.000 HD
ENDROOT
BRANCH   1   3
ATOM      3  C   UNL     1      46.135   6.868  11.731  0.00  0.00    +0.000 C 
BRANCH   3   4
ATOM      4  C   UNL     1      45.614   5.707  10.893  0.00  0.00    +0.000 A 
ATOM      5  C   UNL     1      45.810   5.551   9.528  0.00  0.00    +0.000 A 
ATOM      6  S   UNL     1      45.078   4.145   8.892  0.00  0.00    +0.000 S 
ATOM      7  C   UNL     1      44.462   3.705  10.417  0.00  0.00    +0.000 A 
ATOM      8  N   UNL     1      43.719   2.578  10.581  0.00  0.00    +0.000 NA
ATOM      9  C   UNL     1      43.311   2.384  11.790  0.00  0.00    +0.000 A 
ATOM     10  N   UNL     1      43.581   3.207  12.853  0.00  0.00    +0.000 N 
ATOM     11  C   UNL     1      44.336   4.354  12.742  0.00  0.00    +0.000 A 
ATOM     12  O   UNL     1      44.573   5.063  13.718  0.00  0.00    +0.000 OA
ATOM     13  C   UNL     1      44.815   4.615  11.397  0.00  0.00    +0.000 A 
ATOM     14  H   UNL     1      43.233   2.992  13.776  0.00  0.00    +0.000 HD
ENDBRANCH   3   4
BRANCH   3  15
ATOM     15  C   UNL     1      45.284   8.161  11.507  0.00  0.00    +0.000 C 
BRANCH  15  16
ATOM     16  N   UNL     1      43.841   7.936  11.347  0.00  0.00    +0.000 NA
ATOM     17  H   UNL     1      43.334   8.729  11.736  0.00  0.00    +0.000 HD
ATOM     18  H   UNL     1      43.567   7.113  11.889  0.00  0.00    +0.000 HD
ENDBRANCH  15  16
ENDBRANCH   3  15
ENDBRANCH   1   3
BRANCH   1  19
ATOM     19  C   UNL     1      48.152   8.250  11.953  0.00  0.00    +0.000 C 
BRANCH  19  20
ATOM     20  C   UNL     1      48.443   8.065  13.416  0.00  0.00    +0.000 A 
ATOM     21  C   UNL     1      48.055   9.022  14.358  0.00  0.00    +0.000 A 
ATOM     22  C   UNL     1      48.268   8.788  15.711  0.00  0.00    +0.000 A 
ATOM     23  C   UNL     1      48.860   7.589  16.097  0.00  0.00    +0.000 A 
ATOM     24  N   UNL     1      49.266   6.652  15.202  0.00  0.00    +0.000 NA
ATOM     25  C   UNL     1      49.052   6.911  13.892  0.00  0.00    +0.000 A 
BRANCH  23  26
ATOM     26  C   UNL     1      49.083   7.287  17.566  0.00  0.00    +0.000 C 
BRANCH  26  27
ATOM     27  N   UNL     1      47.854   6.989  18.316  0.00  0.00    +0.000 NA
ATOM     28  H   UNL     1      47.138   6.744  17.623  0.00  0.00    +0.000 HD
BRANCH  27  29
ATOM     29  C   UNL     1      48.026   5.828  19.197  0.00  0.00    +0.000 C 
BRANCH  29  30
ATOM     30  C   UNL     1      48.243   4.612  18.342  0.00  0.00    +0.000 C 
ATOM     31  C   UNL     1      47.248   4.150  17.355  0.00  0.00    +0.000 C 
ATOM     32  C   UNL     1      47.879   3.008  16.769  0.00  0.00    +0.000 C 
ATOM     33  C   UNL     1      49.067   2.899  17.380  0.00  0.00    +0.000 C 
ATOM     34  N   UNL     1      49.319   3.860  18.343  0.00  0.00    +0.000 NA
ENDBRANCH  29  30
ENDBRANCH  27  29
ENDBRANCH  26  27
ENDBRANCH  23  26
ENDBRANCH  19  20
ENDBRANCH   1  19
TORSDOF 10
ENDMDL
MODEL 7
REMARK VINA RESULT:    -6.257      3.177      4.250
REMARK INTER + INTRA:         -10.578
REMARK INTER:                  -9.911
REMARK INTRA:                  -0.667
REMARK UNBOUND:                -0.847
REMARK  Name = 
REMARK  10 active torsions:
REMARK  status: ('A' for Active; 'I' for Inactive)
REMARK    1  A    between atoms: N_1  and  C_2
REMARK    2  A    between atoms: C_2  and  C_3
REMARK    3  A    between atoms: C_3  and  N_4
REMARK    4  A    between atoms: C_3  and  C_20
REMARK    5  A    between atoms: N_4  and  C_5
REMARK    6  A    between atoms: C_5  and  C_6
REMARK    7  A    between atoms: C_9  and  C_10
REMARK    8  A    between atoms: C_10  and  N_11
REMARK    9  A    between atoms: N_11  and  C_12
REMARK   10  A    between atoms: C_12  and  C_13
REMARK                            x       y       z     vdW  Elec       q    Type
REMARK                         _______ _______ _______ _____ _____    ______ ____
ROOT
ATOM      1  N   UNL     1      47.423   7.226  14.389  0.00  0.00    +0.000 NA
ATOM      2  H   UNL     1      46.876   6.424  14.707  0.00  0.00    +0.000 HD
ENDROOT
BRANCH   1   3
ATOM      3  C   UNL     1      48.852   6.906  14.564  0.00  0.00    +0.000 C 
BRANCH   3   4
ATOM      4  C   UNL     1      49.093   6.751  16.061  0.00  0.00    +0.000 A 
ATOM      5  C   UNL     1      49.610   5.620  16.678  0.00  0.00    +0.000 A 
ATOM      6  S   UNL     1      49.736   5.769  18.374  0.00  0.00    +0.000 S 
ATOM      7  C   UNL     1      49.092   7.345  18.343  0.00  0.00    +0.000 A 
ATOM      8  N   UNL     1      48.922   8.062  19.485  0.00  0.00    +0.000 NA
ATOM      9  C   UNL     1      48.412   9.234  19.304  0.00  0.00    +0.000 A 
ATOM     10  N   UNL     1      48.060   9.759  18.087  0.00  0.00    +0.000 N 
ATOM     11  C   UNL     1      48.221   9.078  16.900  0.00  0.00    +0.000 A 
ATOM     12  O   UNL     1      47.909   9.583  15.824  0.00  0.00    +0.000 OA
ATOM     13  C   UNL     1      48.791   7.752  17.056  0.00  0.00    +0.000 A 
ATOM     14  H   UNL     1      47.668  10.687  18.017  0.00  0.00    +0.000 HD
ENDBRANCH   3   4
BRANCH   3  15
ATOM     15  C   UNL     1      49.802   7.980  13.942  0.00  0.00    +0.000 C 
BRANCH  15  16
ATOM     16  N   UNL     1      50.698   7.485  12.888  0.00  0.00    +0.000 NA
ATOM     17  H   UNL     1      50.476   7.954  12.012  0.00  0.00    +0.000 HD
ATOM     18  H   UNL     1      50.524   6.486  12.741  0.00  0.00    +0.000 HD
ENDBRANCH  15  16
ENDBRANCH   3  15
ENDBRANCH   1   3
BRANCH   1  19
ATOM     19  C   UNL     1      47.054   7.507  13.006  0.00  0.00    +0.000 C 
BRANCH  19  20
ATOM     20  C   UNL     1      46.278   6.364  12.413  0.00  0.00    +0.000 A 
ATOM     21  C   UNL     1      45.921   5.255  13.185  0.00  0.00    +0.000 A 
ATOM     22  C   UNL     1      45.136   4.250  12.631  0.00  0.00    +0.000 A 
ATOM     23  C   UNL     1      44.714   4.382  11.311  0.00  0.00    +0.000 A 
ATOM     24  N   UNL     1      45.064   5.439  10.533  0.00  0.00    +0.000 NA
ATOM     25  C   UNL     1      45.834   6.397  11.097  0.00  0.00    +0.000 A 
BRANCH  23  26
ATOM     26  C   UNL     1      43.834   3.320  10.683  0.00  0.00    +0.000 C 
BRANCH  26  27
ATOM     27  N   UNL     1      44.170   3.002   9.287  0.00  0.00    +0.000 NA
ATOM     28  H   UNL     1      44.634   3.832   8.900  0.00  0.00    +0.000 HD
BRANCH  27  29
ATOM     29  C   UNL     1      45.123   1.889   9.200  0.00  0.00    +0.000 C 
BRANCH  29  30
ATOM     30  C   UNL     1      45.977   2.090   7.981  0.00  0.00    +0.000 C 
ATOM     31  C   UNL     1      45.886   3.298   7.140  0.00  0.00    +0.000 C 
ATOM     32  C   UNL     1      46.882   3.072   6.139  0.00  0.00    +0.000 C 
ATOM     33  C   UNL     1      47.429   1.885   6.436  0.00  0.00    +0.000 C 
ATOM     34  N   UNL     1      46.899   1.261   7.551  0.00  0.00    +0.000 NA
ENDBRANCH  29  30
ENDBRANCH  27  29
ENDBRANCH  26  27
ENDBRANCH  23  26
ENDBRANCH  19  20
ENDBRANCH   1  19
TORSDOF 10
ENDMDL
MODEL 8
REMARK VINA RESULT:    -5.884      3.617      8.792
REMARK INTER + INTRA:          -9.998
REMARK INTER:                  -8.672
REMARK INTRA:                  -1.326
REMARK UNBOUND:                -0.847
REMARK  Name = 
REMARK  10 active torsions:
REMARK  status: ('A' for Active; 'I' for Inactive)
REMARK    1  A    between atoms: N_1  and  C_2
REMARK    2  A    between atoms: C_2  and  C_3
REMARK    3  A    between atoms: C_3  and  N_4
REMARK    4  A    between atoms: C_3  and  C_20
REMARK    5  A    between atoms: N_4  and  C_5
REMARK    6  A    between atoms: C_5  and  C_6
REMARK    7  A    between atoms: C_9  and  C_10
REMARK    8  A    between atoms: C_10  and  N_11
REMARK    9  A    between atoms: N_11  and  C_12
REMARK   10  A    between atoms: C_12  and  C_13
REMARK                            x       y       z     vdW  Elec       q    Type
REMARK                         _______ _______ _______ _____ _____    ______ ____
ROOT
ATOM      1  N   UNL     1      46.372   5.138  14.519  0.00  0.00    +0.000 NA
ATOM      2  H   UNL     1      46.888   5.989  14.751  0.00  0.00    +0.000 HD
ENDROOT
BRANCH   1   3
ATOM      3  C   UNL     1      46.131   5.131  13.063  0.00  0.00    +0.000 C 
BRANCH   3   4
ATOM      4  C   UNL     1      46.005   6.586  12.627  0.00  0.00    +0.000 A 
ATOM      5  C   UNL     1      44.821   7.217  12.271  0.00  0.00    +0.000 A 
ATOM      6  S   UNL     1      45.032   8.848  11.815  0.00  0.00    +0.000 S 
ATOM      7  C   UNL     1      46.714   8.763  12.064  0.00  0.00    +0.000 A 
ATOM      8  N   UNL     1      47.517   9.839  11.847  0.00  0.00    +0.000 NA
ATOM      9  C   UNL     1      48.769   9.618  12.066  0.00  0.00    +0.000 A 
ATOM     10  N   UNL     1      49.295   8.424  12.487  0.00  0.00    +0.000 N 
ATOM     11  C   UNL     1      48.525   7.307  12.730  0.00  0.00    +0.000 A 
ATOM     12  O   UNL     1      49.026   6.255  13.121  0.00  0.00    +0.000 OA
ATOM     13  C   UNL     1      47.107   7.509  12.494  0.00  0.00    +0.000 A 
ATOM     14  H   UNL     1      50.288   8.321  12.643  0.00  0.00    +0.000 HD
ENDBRANCH   3   4
BRANCH   3  15
ATOM     15  C   UNL     1      44.871   4.301  12.655  0.00  0.00    +0.000 C 
BRANCH  15  16
ATOM     16  N   UNL     1      45.110   2.866  12.453  0.00  0.00    +0.000 NA
ATOM     17  H   UNL     1      44.697   2.579  11.567  0.00  0.00    +0.000 HD
ATOM     18  H   UNL     1      44.631   2.338  13.187  0.00  0.00    +0.000 HD
ENDBRANCH  15  16
ENDBRANCH   3  15
ENDBRANCH   1   3
BRANCH   1  19
ATOM     19  C   UNL     1      47.147   3.995  14.987  0.00  0.00    +0.000 C 
BRANCH  19  20
ATOM     20  C   UNL     1      47.842   4.309  16.283  0.00  0.00    +0.000 A 
ATOM     21  C   UNL     1      48.462   5.544  16.490  0.00  0.00    +0.000 A 
ATOM     22  C   UNL     1      49.029   5.837  17.726  0.00  0.00    +0.000 A 
ATOM     23  C   UNL     1      48.953   4.884  18.737  0.00  0.00    +0.000 A 
ATOM     24  N   UNL     1      48.375   3.668  18.556  0.00  0.00    +0.000 NA
ATOM     25  C   UNL     1      47.839   3.410  17.342  0.00  0.00    +0.000 A 
BRANCH  23  26
ATOM     26  C   UNL     1      49.534   5.178  20.106  0.00  0.00    +0.000 C 
BRANCH  26  27
ATOM     27  N   UNL     1      50.739   4.401  20.432  0.00  0.00    +0.000 NA
ATOM     28  H   UNL     1      50.518   3.418  20.235  0.00  0.00    +0.000 HD
BRANCH  27  29
ATOM     29  C   UNL     1      51.872   4.774  19.578  0.00  0.00    +0.000 C 
BRANCH  29  30
ATOM     30  C   UNL     1      52.458   3.521  18.992  0.00  0.00    +0.000 C 
ATOM     31  C   UNL     1      51.825   2.800  17.872  0.00  0.00    +0.000 C 
ATOM     32  C   UNL     1      52.726   1.715  17.634  0.00  0.00    +0.000 C 
ATOM     33  C   UNL     1      53.715   1.866  18.526  0.00  0.00    +0.000 C 
ATOM     34  N   UNL     1      53.580   2.956  19.368  0.00  0.00    +0.000 NA
ENDBRANCH  29  30
ENDBRANCH  27  29
ENDBRANCH  26  27
ENDBRANCH  23  26
ENDBRANCH  19  20
ENDBRANCH   1  19
TORSDOF 10
ENDMDL
MODEL 9
REMARK VINA RESULT:    -5.800      3.210      8.791
REMARK INTER + INTRA:          -9.867
REMARK INTER:                  -8.903
REMARK INTRA:                  -0.964
REMARK UNBOUND:                -0.847
REMARK  Name = 
REMARK  10 active torsions:
REMARK  status: ('A' for Active; 'I' for Inactive)
REMARK    1  A    between atoms: N_1  and  C_2
REMARK    2  A    between atoms: C_2  and  C_3
REMARK    3  A    between atoms: C_3  and  N_4
REMARK    4  A    between atoms: C_3  and  C_20
REMARK    5  A    between atoms: N_4  and  C_5
REMARK    6  A    between atoms: C_5  and  C_6
REMARK    7  A    between atoms: C_9  and  C_10
REMARK    8  A    between atoms: C_10  and  N_11
REMARK    9  A    between atoms: N_11  and  C_12
REMARK   10  A    between atoms: C_12  and  C_13
REMARK                            x       y       z     vdW  Elec       q    Type
REMARK                         _______ _______ _______ _____ _____    ______ ____
ROOT
ATOM      1  N   UNL     1      46.849   6.615  12.480  0.00  0.00    +0.000 NA
ATOM      2  H   UNL     1      47.408   6.762  11.638  0.00  0.00    +0.000 HD
ENDROOT
BRANCH   1   3
ATOM      3  C   UNL     1      45.425   6.649  12.097  0.00  0.00    +0.000 C 
BRANCH   3   4
ATOM      4  C   UNL     1      45.219   5.555  11.056  0.00  0.00    +0.000 A 
ATOM      5  C   UNL     1      45.594   5.634   9.722  0.00  0.00    +0.000 A 
ATOM      6  S   UNL     1      45.202   4.238   8.822  0.00  0.00    +0.000 S 
ATOM      7  C   UNL     1      44.506   3.485  10.181  0.00  0.00    +0.000 A 
ATOM      8  N   UNL     1      43.963   2.241  10.099  0.00  0.00    +0.000 NA
ATOM      9  C   UNL     1      43.463   1.807  11.207  0.00  0.00    +0.000 A 
ATOM     10  N   UNL     1      43.458   2.499  12.391  0.00  0.00    +0.000 N 
ATOM     11  C   UNL     1      44.003   3.757  12.529  0.00  0.00    +0.000 A 
ATOM     12  O   UNL     1      43.996   4.343  13.609  0.00  0.00    +0.000 OA
ATOM     13  C   UNL     1      44.577   4.286  11.305  0.00  0.00    +0.000 A 
ATOM     14  H   UNL     1      43.051   2.097  13.224  0.00  0.00    +0.000 HD
ENDBRANCH   3   4
BRANCH   3  15
ATOM     15  C   UNL     1      44.969   8.044  11.556  0.00  0.00    +0.000 C 
BRANCH  15  16
ATOM     16  N   UNL     1      43.562   8.121  11.141  0.00  0.00    +0.000 NA
ATOM     17  H   UNL     1      43.034   7.385  11.608  0.00  0.00    +0.000 HD
ATOM     18  H   UNL     1      43.497   7.940  10.136  0.00  0.00    +0.000 HD
ENDBRANCH  15  16
ENDBRANCH   3  15
ENDBRANCH   1   3
BRANCH   1  19
ATOM     19  C   UNL     1      47.259   5.352  13.083  0.00  0.00    +0.000 C 
BRANCH  19  20
ATOM     20  C   UNL     1      47.834   5.571  14.455  0.00  0.00    +0.000 A 
ATOM     21  C   UNL     1      48.631   6.685  14.736  0.00  0.00    +0.000 A 
ATOM     22  C   UNL     1      49.083   6.903  16.032  0.00  0.00    +0.000 A 
ATOM     23  C   UNL     1      48.718   6.002  17.028  0.00  0.00    +0.000 A 
ATOM     24  N   UNL     1      47.962   4.901  16.778  0.00  0.00    +0.000 NA
ATOM     25  C   UNL     1      47.543   4.712  15.507  0.00  0.00    +0.000 A 
BRANCH  23  26
ATOM     26  C   UNL     1      49.169   6.223  18.458  0.00  0.00    +0.000 C 
BRANCH  26  27
ATOM     27  N   UNL     1      49.670   5.015  19.129  0.00  0.00    +0.000 NA
ATOM     28  H   UNL     1      49.215   4.215  18.673  0.00  0.00    +0.000 HD
BRANCH  27  29
ATOM     29  C   UNL     1      51.117   4.856  18.948  0.00  0.00    +0.000 C 
BRANCH  29  30
ATOM     30  C   UNL     1      51.371   3.530  18.289  0.00  0.00    +0.000 C 
ATOM     31  C   UNL     1      52.691   2.873  18.312  0.00  0.00    +0.000 C 
ATOM     32  C   UNL     1      52.458   1.652  17.606  0.00  0.00    +0.000 C 
ATOM     33  C   UNL     1      51.162   1.674  17.265  0.00  0.00    +0.000 C 
ATOM     34  N   UNL     1      50.473   2.805  17.665  0.00  0.00    +0.000 NA
ENDBRANCH  29  30
ENDBRANCH  27  29
ENDBRANCH  26  27
ENDBRANCH  23  26
ENDBRANCH  19  20
ENDBRANCH   1  19
TORSDOF 10
ENDMDL
