MODEL 1
REMARK VINA RESULT:    -8.787      0.000      0.000
REMARK INTER + INTRA:         -13.873
REMARK INTER:                 -12.640
REMARK INTRA:                  -1.233
REMARK UNBOUND:                -1.233
REMARK  Name = 
REMARK  8 active torsions:
REMARK  status: ('A' for Active; 'I' for Inactive)
REMARK    1  A    between atoms: C_2  and  C_21
REMARK    2  A    between atoms: N_3  and  C_4
REMARK    3  A    between atoms: C_4  and  C_5
REMARK    4  A    between atoms: C_8  and  C_9
REMARK    5  A    between atoms: C_9  and  C_10
REMARK    6  A    between atoms: C_10  and  O_11
REMARK    7  A    between atoms: C_10  and  C_12
REMARK    8  A    between atoms: C_12  and  C_13
REMARK                            x       y       z     vdW  Elec       q    Type
REMARK                         _______ _______ _______ _____ _____    ______ ____
ROOT
ATOM      1  C   UNL     1      46.139   7.119  12.328  0.00  0.00    +0.000 A 
ATOM      2  N   UNL     1      44.993   6.696  12.898  0.00  0.00    +0.000 NA
ATOM      3  C   UNL     1      44.291   5.770  12.219  0.00  0.00    +0.000 A 
ATOM      4  C   UNL     1      44.685   5.251  11.002  0.00  0.00    +0.000 A 
ATOM      5  C   UNL     1      45.894   5.720  10.533  0.00  0.00    +0.000 A 
ATOM      6  N   UNL     1      46.637   6.636  11.171  0.00  0.00    +0.000 NA
ENDROOT
BRANCH   1   7
ATOM      7  C   UNL     1      47.005   8.092  13.086  0.00  0.00    +0.000 C 
BRANCH   7  10
ATOM      8  O   UNL     1      49.283   6.625  13.684  0.00  0.00    +0.000 OA
ATOM      9  C   UNL     1      48.489   6.868  14.583  0.00  0.00    +0.000 C 
ATOM     10  N   UNL     1      47.336   7.574  14.396  0.00  0.00    +0.000 N 
ATOM     11  H   UNL     1      46.593   7.492  15.075  0.00  0.00    +0.000 HD
BRANCH   9  12
ATOM     12  C   UNL     1      48.754   6.513  15.966  0.00  0.00    +0.000 A 
ATOM     13  C   UNL     1      49.472   7.295  16.853  0.00  0.00    +0.000 A 
ATOM     14  S   UNL     1      50.019   6.397  18.206  0.00  0.00    +0.000 S 
ATOM     15  C   UNL     1      49.199   4.999  17.675  0.00  0.00    +0.000 A 
ATOM     16  N   UNL     1      49.325   3.804  18.304  0.00  0.00    +0.000 NA
ATOM     17  C   UNL     1      48.569   2.875  17.820  0.00  0.00    +0.000 A 
ATOM     18  N   UNL     1      47.660   3.043  16.800  0.00  0.00    +0.000 N 
ATOM     19  C   UNL     1      47.488   4.239  16.133  0.00  0.00    +0.000 A 
ATOM     20  O   UNL     1      46.582   4.413  15.338  0.00  0.00    +0.000 OA
ATOM     21  C   UNL     1      48.418   5.262  16.567  0.00  0.00    +0.000 A 
ATOM     22  H   UNL     1      47.017   2.308  16.556  0.00  0.00    +0.000 HD
ENDBRANCH   9  12
ENDBRANCH   7  10
ENDBRANCH   1   7
BRANCH   4  23
ATOM     23  C   UNL     1      43.824   4.308  10.212  0.00  0.00    +0.000 C 
BRANCH  23  24
ATOM     24  C   UNL     1      44.247   2.828  10.345  0.00  0.00    +0.000 C 
BRANCH  24  25
ATOM     25  O   UNL     1      43.393   2.198  11.305  0.00  0.00    +0.000 OA
ATOM     26  H   UNL     1      43.119   2.872  11.953  0.00  0.00    +0.000 HD
ENDBRANCH  24  25
BRANCH  24  27
ATOM     27  C   UNL     1      44.251   2.072   9.001  0.00  0.00    +0.000 C 
BRANCH  27  28
ATOM     28  C   UNL     1      45.515   2.257   8.192  0.00  0.00    +0.000 A 
ATOM     29  C   UNL     1      46.397   1.181   8.004  0.00  0.00    +0.000 A 
ATOM     30  C   UNL     1      47.544   1.330   7.225  0.00  0.00    +0.000 A 
ATOM     31  C   UNL     1      47.828   2.557   6.629  0.00  0.00    +0.000 A 
ATOM     32  C   UNL     1      46.969   3.637   6.825  0.00  0.00    +0.000 A 
ATOM     33  C   UNL     1      45.820   3.491   7.605  0.00  0.00    +0.000 A 
ENDBRANCH  27  28
ENDBRANCH  24  27
ENDBRANCH  23  24
ENDBRANCH   4  23
TORSDOF 8
ENDMDL
MODEL 2
REMARK VINA RESULT:    -8.694      0.176      1.242
REMARK INTER + INTRA:         -13.738
REMARK INTER:                 -12.522
REMARK INTRA:                  -1.217
REMARK UNBOUND:                -1.233
REMARK  Name = 
REMARK  8 active torsions:
REMARK  status: ('A' for Active; 'I' for Inactive)
REMARK    1  A    between atoms: C_2  and  C_21
REMARK    2  A    between atoms: N_3  and  C_4
REMARK    3  A    between atoms: C_4  and  C_5
REMARK    4  A    between atoms: C_8  and  C_9
REMARK    5  A    between atoms: C_9  and  C_10
REMARK    6  A    between atoms: C_10  and  O_11
REMARK    7  A    between atoms: C_10  and  C_12
REMARK    8  A    between atoms: C_12  and  C_13
REMARK                            x       y       z     vdW  Elec       q    Type
REMARK                         _______ _______ _______ _____ _____    ______ ____
ROOT
ATOM      1  C   UNL     1      46.247   7.128  12.433  0.00  0.00    +0.000 A 
ATOM      2  N   UNL     1      46.760   6.629  11.292  0.00  0.00    +0.000 NA
ATOM      3  C   UNL     1      45.968   5.795  10.593  0.00  0.00    +0.000 A 
ATOM      4  C   UNL     1      44.692   5.443  10.983  0.00  0.00    +0.000 A 
ATOM      5  C   UNL     1      44.251   6.046  12.142  0.00  0.00    +0.000 A 
ATOM      6  N   UNL     1      44.994   6.889  12.874  0.00  0.00    +0.000 NA
ENDROOT
BRANCH   1   7
ATOM      7  C   UNL     1      47.059   8.133  13.210  0.00  0.00    +0.000 C 
BRANCH   7  10
ATOM      8  O   UNL     1      49.359   6.666  13.718  0.00  0.00    +0.000 OA
ATOM      9  C   UNL     1      48.594   6.898  14.645  0.00  0.00    +0.000 C 
ATOM     10  N   UNL     1      47.434   7.603  14.503  0.00  0.00    +0.000 N 
ATOM     11  H   UNL     1      46.713   7.513  15.204  0.00  0.00    +0.000 HD
BRANCH   9  12
ATOM     12  C   UNL     1      48.905   6.531  16.015  0.00  0.00    +0.000 A 
ATOM     13  C   UNL     1      49.651   7.305  16.886  0.00  0.00    +0.000 A 
ATOM     14  S   UNL     1      50.243   6.395  18.211  0.00  0.00    +0.000 S 
ATOM     15  C   UNL     1      49.407   5.001  17.694  0.00  0.00    +0.000 A 
ATOM     16  N   UNL     1      49.554   3.800  18.308  0.00  0.00    +0.000 NA
ATOM     17  C   UNL     1      48.784   2.874  17.840  0.00  0.00    +0.000 A 
ATOM     18  N   UNL     1      47.842   3.051  16.852  0.00  0.00    +0.000 N 
ATOM     19  C   UNL     1      47.647   4.253  16.203  0.00  0.00    +0.000 A 
ATOM     20  O   UNL     1      46.715   4.434  15.439  0.00  0.00    +0.000 OA
ATOM     21  C   UNL     1      48.590   5.273  16.615  0.00  0.00    +0.000 A 
ATOM     22  H   UNL     1      47.192   2.317  16.622  0.00  0.00    +0.000 HD
ENDBRANCH   9  12
ENDBRANCH   7  10
ENDBRANCH   1   7
BRANCH   4  23
ATOM     23  C   UNL     1      43.878   4.419  10.246  0.00  0.00    +0.000 C 
BRANCH  23  24
ATOM     24  C   UNL     1      44.420   2.979  10.389  0.00  0.00    +0.000 C 
BRANCH  24  25
ATOM     25  O   UNL     1      43.725   2.338  11.463  0.00  0.00    +0.000 OA
ATOM     26  H   UNL     1      43.854   2.871  12.267  0.00  0.00    +0.000 HD
ENDBRANCH  24  25
BRANCH  24  27
ATOM     27  C   UNL     1      44.334   2.164   9.083  0.00  0.00    +0.000 C 
BRANCH  27  28
ATOM     28  C   UNL     1      45.551   2.289   8.195  0.00  0.00    +0.000 A 
ATOM     29  C   UNL     1      45.866   3.519   7.595  0.00  0.00    +0.000 A 
ATOM     30  C   UNL     1      47.009   3.655   6.808  0.00  0.00    +0.000 A 
ATOM     31  C   UNL     1      47.851   2.562   6.606  0.00  0.00    +0.000 A 
ATOM     32  C   UNL     1      47.538   1.332   7.181  0.00  0.00    +0.000 A 
ATOM     33  C   UNL     1      46.393   1.193   7.969  0.00  0.00    +0.000 A 
ENDBRANCH  27  28
ENDBRANCH  24  27
ENDBRANCH  23  24
ENDBRANCH   4  23
TORSDOF 8
ENDMDL
MODEL 3
REMARK VINA RESULT:    -8.250      1.664      1.899
REMARK INTER + INTRA:         -13.101
REMARK INTER:                 -12.118
REMARK INTRA:                  -0.983
REMARK UNBOUND:                -1.233
REMARK  Name = 
REMARK  8 active torsions:
REMARK  status: ('A' for Active; 'I' for Inactive)
REMARK    1  A    between atoms: C_2  and  C_21
REMARK    2  A    between atoms: N_3  and  C_4
REMARK    3  A    between atoms: C_4  and  C_5
REMARK    4  A    between atoms: C_8  and  C_9
REMARK    5  A    between atoms: C_9  and  C_10
REMARK    6  A    between atoms: C_10  and  O_11
REMARK    7  A    between atoms: C_10  and  C_12
REMARK    8  A    between atoms: C_12  and  C_13
REMARK                            x       y       z     vdW  Elec       q    Type
REMARK                         _______ _______ _______ _____ _____    ______ ____
ROOT
ATOM      1  C   UNL     1      47.285   6.313  13.276  0.00  0.00    +0.000 A 
ATOM      2  N   UNL     1      46.614   5.333  13.910  0.00  0.00    +0.000 NA
ATOM      3  C   UNL     1      45.621   4.742  13.221  0.00  0.00    +0.000 A 
ATOM      4  C   UNL     1      45.274   5.086  11.929  0.00  0.00    +0.000 A 
ATOM      5  C   UNL     1      46.056   6.070  11.360  0.00  0.00    +0.000 A 
ATOM      6  N   UNL     1      47.061   6.687  11.999  0.00  0.00    +0.000 NA
ENDROOT
BRANCH   1   7
ATOM      7  C   UNL     1      48.461   6.949  13.971  0.00  0.00    +0.000 C 
BRANCH   7  10
ATOM      8  O   UNL     1      50.313   6.310  15.936  0.00  0.00    +0.000 OA
ATOM      9  C   UNL     1      49.210   6.714  16.279  0.00  0.00    +0.000 C 
ATOM     10  N   UNL     1      48.225   7.049  15.395  0.00  0.00    +0.000 N 
ATOM     11  H   UNL     1      47.268   7.086  15.715  0.00  0.00    +0.000 HD
BRANCH   9  12
ATOM     12  C   UNL     1      48.879   6.976  17.669  0.00  0.00    +0.000 A 
ATOM     13  C   UNL     1      48.877   8.230  18.252  0.00  0.00    +0.000 A 
ATOM     14  S   UNL     1      48.937   8.144  19.962  0.00  0.00    +0.000 S 
ATOM     15  C   UNL     1      48.841   6.442  19.932  0.00  0.00    +0.000 A 
ATOM     16  N   UNL     1      48.955   5.691  21.056  0.00  0.00    +0.000 NA
ATOM     17  C   UNL     1      48.775   4.426  20.863  0.00  0.00    +0.000 A 
ATOM     18  N   UNL     1      48.438   3.849  19.659  0.00  0.00    +0.000 N 
ATOM     19  C   UNL     1      48.301   4.568  18.490  0.00  0.00    +0.000 A 
ATOM     20  O   UNL     1      47.859   4.070  17.469  0.00  0.00    +0.000 OA
ATOM     21  C   UNL     1      48.629   5.970  18.652  0.00  0.00    +0.000 A 
ATOM     22  H   UNL     1      48.191   2.874  19.607  0.00  0.00    +0.000 HD
ENDBRANCH   9  12
ENDBRANCH   7  10
ENDBRANCH   1   7
BRANCH   4  23
ATOM     23  C   UNL     1      44.087   4.493  11.228  0.00  0.00    +0.000 C 
BRANCH  23  24
ATOM     24  C   UNL     1      44.410   3.188  10.466  0.00  0.00    +0.000 C 
BRANCH  24  25
ATOM     25  O   UNL     1      43.524   2.162  10.928  0.00  0.00    +0.000 OA
ATOM     26  H   UNL     1      44.043   1.346  11.041  0.00  0.00    +0.000 HD
ENDBRANCH  24  25
BRANCH  24  27
ATOM     27  C   UNL     1      44.349   3.348   8.934  0.00  0.00    +0.000 C 
BRANCH  27  28
ATOM     28  C   UNL     1      45.547   2.781   8.206  0.00  0.00    +0.000 A 
ATOM     29  C   UNL     1      45.881   1.424   8.342  0.00  0.00    +0.000 A 
ATOM     30  C   UNL     1      46.959   0.883   7.642  0.00  0.00    +0.000 A 
ATOM     31  C   UNL     1      47.721   1.691   6.801  0.00  0.00    +0.000 A 
ATOM     32  C   UNL     1      47.410   3.044   6.672  0.00  0.00    +0.000 A 
ATOM     33  C   UNL     1      46.331   3.588   7.373  0.00  0.00    +0.000 A 
ENDBRANCH  27  28
ENDBRANCH  24  27
ENDBRANCH  23  24
ENDBRANCH   4  23
TORSDOF 8
ENDMDL
MODEL 4
REMARK VINA RESULT:    -8.241      1.627      2.074
REMARK INTER + INTRA:         -13.087
REMARK INTER:                 -11.847
REMARK INTRA:                  -1.241
REMARK UNBOUND:                -1.233
REMARK  Name = 
REMARK  8 active torsions:
REMARK  status: ('A' for Active; 'I' for Inactive)
REMARK    1  A    between atoms: C_2  and  C_21
REMARK    2  A    between atoms: N_3  and  C_4
REMARK    3  A    between atoms: C_4  and  C_5
REMARK    4  A    between atoms: C_8  and  C_9
REMARK    5  A    between atoms: C_9  and  C_10
REMARK    6  A    between atoms: C_10  and  O_11
REMARK    7  A    between atoms: C_10  and  C_12
REMARK    8  A    between atoms: C_12  and  C_13
REMARK                            x       y       z     vdW  Elec       q    Type
REMARK                         _______ _______ _______ _____ _____    ______ ____
ROOT
ATOM      1  C   UNL     1      47.237   6.549  13.264  0.00  0.00    +0.000 A 
ATOM      2  N   UNL     1      46.079   7.161  12.945  0.00  0.00    +0.000 NA
ATOM      3  C   UNL     1      44.993   6.373  12.843  0.00  0.00    +0.000 A 
ATOM      4  C   UNL     1      45.014   5.008  13.047  0.00  0.00    +0.000 A 
ATOM      5  C   UNL     1      46.240   4.494  13.412  0.00  0.00    +0.000 A 
ATOM      6  N   UNL     1      47.352   5.233  13.535  0.00  0.00    +0.000 NA
ENDROOT
BRANCH   1   7
ATOM      7  C   UNL     1      48.465   7.396  13.474  0.00  0.00    +0.000 C 
BRANCH   7  10
ATOM      8  O   UNL     1      48.608   8.050  16.167  0.00  0.00    +0.000 OA
ATOM      9  C   UNL     1      49.343   7.172  15.737  0.00  0.00    +0.000 C 
ATOM     10  N   UNL     1      49.359   6.778  14.429  0.00  0.00    +0.000 N 
ATOM     11  H   UNL     1      50.163   6.283  14.073  0.00  0.00    +0.000 HD
BRANCH   9  12
ATOM     12  C   UNL     1      50.203   6.387  16.606  0.00  0.00    +0.000 A 
ATOM     13  C   UNL     1      51.451   6.790  17.047  0.00  0.00    +0.000 A 
ATOM     14  S   UNL     1      52.387   5.474  17.619  0.00  0.00    +0.000 S 
ATOM     15  C   UNL     1      51.091   4.388  17.396  0.00  0.00    +0.000 A 
ATOM     16  N   UNL     1      51.227   3.051  17.582  0.00  0.00    +0.000 NA
ATOM     17  C   UNL     1      50.126   2.388  17.452  0.00  0.00    +0.000 A 
ATOM     18  N   UNL     1      48.891   2.944  17.205  0.00  0.00    +0.000 N 
ATOM     19  C   UNL     1      48.697   4.297  17.017  0.00  0.00    +0.000 A 
ATOM     20  O   UNL     1      47.584   4.791  16.948  0.00  0.00    +0.000 OA
ATOM     21  C   UNL     1      49.936   5.048  17.025  0.00  0.00    +0.000 A 
ATOM     22  H   UNL     1      48.056   2.382  17.239  0.00  0.00    +0.000 HD
ENDBRANCH   9  12
ENDBRANCH   7  10
ENDBRANCH   1   7
BRANCH   4  23
ATOM     23  C   UNL     1      43.812   4.139  12.810  0.00  0.00    +0.000 C 
BRANCH  23  24
ATOM     24  C   UNL     1      43.966   3.191  11.600  0.00  0.00    +0.000 C 
BRANCH  24  25
ATOM     25  O   UNL     1      42.971   2.167  11.698  0.00  0.00    +0.000 OA
ATOM     26  H   UNL     1      42.167   2.485  11.250  0.00  0.00    +0.000 HD
ENDBRANCH  24  25
BRANCH  24  27
ATOM     27  C   UNL     1      43.904   3.921  10.243  0.00  0.00    +0.000 C 
BRANCH  27  28
ATOM     28  C   UNL     1      44.897   3.414   9.222  0.00  0.00    +0.000 A 
ATOM     29  C   UNL     1      45.578   4.316   8.390  0.00  0.00    +0.000 A 
ATOM     30  C   UNL     1      46.527   3.861   7.474  0.00  0.00    +0.000 A 
ATOM     31  C   UNL     1      46.803   2.499   7.374  0.00  0.00    +0.000 A 
ATOM     32  C   UNL     1      46.118   1.592   8.182  0.00  0.00    +0.000 A 
ATOM     33  C   UNL     1      45.167   2.046   9.099  0.00  0.00    +0.000 A 
ENDBRANCH  27  28
ENDBRANCH  24  27
ENDBRANCH  23  24
ENDBRANCH   4  23
TORSDOF 8
ENDMDL
MODEL 5
REMARK VINA RESULT:    -8.006      1.964      3.534
REMARK INTER + INTRA:         -12.749
REMARK INTER:                 -11.576
REMARK INTRA:                  -1.173
REMARK UNBOUND:                -1.233
REMARK  Name = 
REMARK  8 active torsions:
REMARK  status: ('A' for Active; 'I' for Inactive)
REMARK    1  A    between atoms: C_2  and  C_21
REMARK    2  A    between atoms: N_3  and  C_4
REMARK    3  A    between atoms: C_4  and  C_5
REMARK    4  A    between atoms: C_8  and  C_9
REMARK    5  A    between atoms: C_9  and  C_10
REMARK    6  A    between atoms: C_10  and  O_11
REMARK    7  A    between atoms: C_10  and  C_12
REMARK    8  A    between atoms: C_12  and  C_13
REMARK                            x       y       z     vdW  Elec       q    Type
REMARK                         _______ _______ _______ _____ _____    ______ ____
ROOT
ATOM      1  C   UNL     1      46.845   4.483  14.352  0.00  0.00    +0.000 A 
ATOM      2  N   UNL     1      47.184   5.690  13.857  0.00  0.00    +0.000 NA
ATOM      3  C   UNL     1      46.730   5.982  12.625  0.00  0.00    +0.000 A 
ATOM      4  C   UNL     1      45.953   5.126  11.871  0.00  0.00    +0.000 A 
ATOM      5  C   UNL     1      45.627   3.938  12.492  0.00  0.00    +0.000 A 
ATOM      6  N   UNL     1      46.047   3.598  13.719  0.00  0.00    +0.000 NA
ENDROOT
BRANCH   1   7
ATOM      7  C   UNL     1      47.256   4.140  15.760  0.00  0.00    +0.000 C 
BRANCH   7  10
ATOM      8  O   UNL     1      49.741   4.279  16.987  0.00  0.00    +0.000 OA
ATOM      9  C   UNL     1      49.020   5.267  17.009  0.00  0.00    +0.000 C 
ATOM     10  N   UNL     1      47.778   5.304  16.443  0.00  0.00    +0.000 N 
ATOM     11  H   UNL     1      47.123   6.013  16.737  0.00  0.00    +0.000 HD
BRANCH   9  12
ATOM     12  C   UNL     1      49.464   6.538  17.554  0.00  0.00    +0.000 A 
ATOM     13  C   UNL     1      49.666   6.788  18.899  0.00  0.00    +0.000 A 
ATOM     14  S   UNL     1      49.697   8.466  19.245  0.00  0.00    +0.000 S 
ATOM     15  C   UNL     1      49.565   8.862  17.591  0.00  0.00    +0.000 A 
ATOM     16  N   UNL     1      49.420  10.141  17.163  0.00  0.00    +0.000 NA
ATOM     17  C   UNL     1      49.421  10.267  15.877  0.00  0.00    +0.000 A 
ATOM     18  N   UNL     1      49.607   9.239  14.980  0.00  0.00    +0.000 N 
ATOM     19  C   UNL     1      49.768   7.923  15.364  0.00  0.00    +0.000 A 
ATOM     20  O   UNL     1      50.079   7.050  14.573  0.00  0.00    +0.000 OA
ATOM     21  C   UNL     1      49.637   7.736  16.795  0.00  0.00    +0.000 A 
ATOM     22  H   UNL     1      49.719   9.426  13.997  0.00  0.00    +0.000 HD
ENDBRANCH   9  12
ENDBRANCH   7  10
ENDBRANCH   1   7
BRANCH   4  23
ATOM     23  C   UNL     1      45.560   5.430  10.454  0.00  0.00    +0.000 C 
BRANCH  23  24
ATOM     24  C   UNL     1      44.415   4.537   9.926  0.00  0.00    +0.000 C 
BRANCH  24  25
ATOM     25  O   UNL     1      43.168   5.116  10.325  0.00  0.00    +0.000 OA
ATOM     26  H   UNL     1      42.732   5.470   9.529  0.00  0.00    +0.000 HD
ENDBRANCH  24  25
BRANCH  24  27
ATOM     27  C   UNL     1      44.477   4.305   8.403  0.00  0.00    +0.000 C 
BRANCH  27  28
ATOM     28  C   UNL     1      45.506   3.284   7.975  0.00  0.00    +0.000 A 
ATOM     29  C   UNL     1      46.556   3.654   7.119  0.00  0.00    +0.000 A 
ATOM     30  C   UNL     1      47.534   2.729   6.751  0.00  0.00    +0.000 A 
ATOM     31  C   UNL     1      47.472   1.422   7.231  0.00  0.00    +0.000 A 
ATOM     32  C   UNL     1      46.424   1.039   8.066  0.00  0.00    +0.000 A 
ATOM     33  C   UNL     1      45.443   1.963   8.434  0.00  0.00    +0.000 A 
ENDBRANCH  27  28
ENDBRANCH  24  27
ENDBRANCH  23  24
ENDBRANCH   4  23
TORSDOF 8
ENDMDL
MODEL 6
REMARK VINA RESULT:    -7.590      2.249      4.047
REMARK INTER + INTRA:         -12.151
REMARK INTER:                 -11.413
REMARK INTRA:                  -0.738
REMARK UNBOUND:                -1.233
REMARK  Name = 
REMARK  8 active torsions:
REMARK  status: ('A' for Active; 'I' for Inactive)
REMARK    1  A    between atoms: C_2  and  C_21
REMARK    2  A    between atoms: N_3  and  C_4
REMARK    3  A    between atoms: C_4  and  C_5
REMARK    4  A    between atoms: C_8  and  C_9
REMARK    5  A    between atoms: C_9  and  C_10
REMARK    6  A    between atoms: C_10  and  O_11
REMARK    7  A    between atoms: C_10  and  C_12
REMARK    8  A    between atoms: C_12  and  C_13
REMARK                            x       y       z     vdW  Elec       q    Type
REMARK                         _______ _______ _______ _____ _____    ______ ____
ROOT
ATOM      1  C   UNL     1      46.492   4.456  13.992  0.00  0.00    +0.000 A 
ATOM      2  N   UNL     1      45.471   5.285  13.701  0.00  0.00    +0.000 NA
ATOM      3  C   UNL     1      44.609   4.868  12.755  0.00  0.00    +0.000 A 
ATOM      4  C   UNL     1      44.723   3.662  12.093  0.00  0.00    +0.000 A 
ATOM      5  C   UNL     1      45.777   2.872  12.501  0.00  0.00    +0.000 A 
ATOM      6  N   UNL     1      46.661   3.235  13.442  0.00  0.00    +0.000 NA
ENDROOT
BRANCH   1   7
ATOM      7  C   UNL     1      47.436   4.836  15.103  0.00  0.00    +0.000 C 
BRANCH   7  10
ATOM      8  O   UNL     1      49.793   5.926  16.080  0.00  0.00    +0.000 OA
ATOM      9  C   UNL     1      48.993   6.664  15.522  0.00  0.00    +0.000 C 
ATOM     10  N   UNL     1      47.802   6.233  15.013  0.00  0.00    +0.000 N 
ATOM     11  H   UNL     1      47.068   6.904  14.839  0.00  0.00    +0.000 HD
BRANCH   9  12
ATOM     12  C   UNL     1      49.284   8.062  15.256  0.00  0.00    +0.000 A 
ATOM     13  C   UNL     1      49.616   8.993  16.224  0.00  0.00    +0.000 A 
ATOM     14  S   UNL     1      49.408  10.601  15.668  0.00  0.00    +0.000 S 
ATOM     15  C   UNL     1      48.995  10.062  14.104  0.00  0.00    +0.000 A 
ATOM     16  N   UNL     1      48.580  10.913  13.132  0.00  0.00    +0.000 NA
ATOM     17  C   UNL     1      48.390  10.348  11.986  0.00  0.00    +0.000 A 
ATOM     18  N   UNL     1      48.628   9.021  11.708  0.00  0.00    +0.000 N 
ATOM     19  C   UNL     1      49.057   8.117  12.657  0.00  0.00    +0.000 A 
ATOM     20  O   UNL     1      49.405   6.985  12.366  0.00  0.00    +0.000 OA
ATOM     21  C   UNL     1      49.150   8.696  13.983  0.00  0.00    +0.000 A 
ATOM     22  H   UNL     1      48.576   8.675  10.764  0.00  0.00    +0.000 HD
ENDBRANCH   9  12
ENDBRANCH   7  10
ENDBRANCH   1   7
BRANCH   4  23
ATOM     23  C   UNL     1      43.817   3.276  10.960  0.00  0.00    +0.000 C 
BRANCH  23  24
ATOM     24  C   UNL     1      43.920   4.218   9.739  0.00  0.00    +0.000 C 
BRANCH  24  25
ATOM     25  O   UNL     1      43.228   5.432  10.043  0.00  0.00    +0.000 OA
ATOM     26  H   UNL     1      42.636   5.261  10.798  0.00  0.00    +0.000 HD
ENDBRANCH  24  25
BRANCH  24  27
ATOM     27  C   UNL     1      45.374   4.483   9.297  0.00  0.00    +0.000 C 
BRANCH  27  28
ATOM     28  C   UNL     1      45.954   3.411   8.403  0.00  0.00    +0.000 A 
ATOM     29  C   UNL     1      46.666   3.765   7.246  0.00  0.00    +0.000 A 
ATOM     30  C   UNL     1      47.240   2.784   6.437  0.00  0.00    +0.000 A 
ATOM     31  C   UNL     1      47.105   1.438   6.770  0.00  0.00    +0.000 A 
ATOM     32  C   UNL     1      46.384   1.074   7.906  0.00  0.00    +0.000 A 
ATOM     33  C   UNL     1      45.807   2.055   8.717  0.00  0.00    +0.000 A 
ENDBRANCH  27  28
ENDBRANCH  24  27
ENDBRANCH  23  24
ENDBRANCH   4  23
TORSDOF 8
ENDMDL
MODEL 7
REMARK VINA RESULT:    -7.464      1.859      2.586
REMARK INTER + INTRA:         -11.970
REMARK INTER:                 -10.923
REMARK INTRA:                  -1.046
REMARK UNBOUND:                -1.233
REMARK  Name = 
REMARK  8 active torsions:
REMARK  status: ('A' for Active; 'I' for Inactive)
REMARK    1  A    between atoms: C_2  and  C_21
REMARK    2  A    between atoms: N_3  and  C_4
REMARK    3  A    between atoms: C_4  and  C_5
REMARK    4  A    between atoms: C_8  and  C_9
REMARK    5  A    between atoms: C_9  and  C_10
REMARK    6  A    between atoms: C_10  and  O_11
REMARK    7  A    between atoms: C_10  and  C_12
REMARK    8  A    between atoms: C_12  and  C_13
REMARK                            x       y       z     vdW  Elec       q    Type
REMARK                         _______ _______ _______ _____ _____    ______ ____
ROOT
ATOM      1  C   UNL     1      46.592   6.937  12.909  0.00  0.00    +0.000 A 
ATOM      2  N   UNL     1      46.855   5.615  12.913  0.00  0.00    +0.000 NA
ATOM      3  C   UNL     1      46.033   4.838  12.184  0.00  0.00    +0.000 A 
ATOM      4  C   UNL     1      44.967   5.323  11.454  0.00  0.00    +0.000 A 
ATOM      5  C   UNL     1      44.817   6.693  11.484  0.00  0.00    +0.000 A 
ATOM      6  N   UNL     1      45.609   7.515  12.188  0.00  0.00    +0.000 NA
ENDROOT
BRANCH   1   7
ATOM      7  C   UNL     1      47.531   7.861  13.640  0.00  0.00    +0.000 C 
BRANCH   7  10
ATOM      8  O   UNL     1      50.117   7.377  14.521  0.00  0.00    +0.000 OA
ATOM      9  C   UNL     1      49.186   7.130  15.274  0.00  0.00    +0.000 C 
ATOM     10  N   UNL     1      47.876   7.324  14.938  0.00  0.00    +0.000 N 
ATOM     11  H   UNL     1      47.158   6.840  15.457  0.00  0.00    +0.000 HD
BRANCH   9  12
ATOM     12  C   UNL     1      49.392   6.700  16.646  0.00  0.00    +0.000 A 
ATOM     13  C   UNL     1      50.051   5.541  17.015  0.00  0.00    +0.000 A 
ATOM     14  S   UNL     1      49.693   5.083  18.627  0.00  0.00    +0.000 S 
ATOM     15  C   UNL     1      48.762   6.490  18.875  0.00  0.00    +0.000 A 
ATOM     16  N   UNL     1      48.055   6.697  20.014  0.00  0.00    +0.000 NA
ATOM     17  C   UNL     1      47.475   7.851  20.069  0.00  0.00    +0.000 A 
ATOM     18  N   UNL     1      47.581   8.837  19.113  0.00  0.00    +0.000 N 
ATOM     19  C   UNL     1      48.293   8.679  17.943  0.00  0.00    +0.000 A 
ATOM     20  O   UNL     1      48.501   9.606  17.179  0.00  0.00    +0.000 OA
ATOM     21  C   UNL     1      48.843   7.346  17.795  0.00  0.00    +0.000 A 
ATOM     22  H   UNL     1      47.204   9.756  19.278  0.00  0.00    +0.000 HD
ENDBRANCH   9  12
ENDBRANCH   7  10
ENDBRANCH   1   7
BRANCH   4  23
ATOM     23  C   UNL     1      43.998   4.420  10.747  0.00  0.00    +0.000 C 
BRANCH  23  24
ATOM     24  C   UNL     1      44.477   2.955  10.651  0.00  0.00    +0.000 C 
BRANCH  24  25
ATOM     25  O   UNL     1      43.836   2.200  11.684  0.00  0.00    +0.000 OA
ATOM     26  H   UNL     1      44.365   2.292  12.497  0.00  0.00    +0.000 HD
ENDBRANCH  24  25
BRANCH  24  27
ATOM     27  C   UNL     1      44.248   2.330   9.259  0.00  0.00    +0.000 C 
BRANCH  27  28
ATOM     28  C   UNL     1      45.459   2.373   8.356  0.00  0.00    +0.000 A 
ATOM     29  C   UNL     1      45.855   3.582   7.761  0.00  0.00    +0.000 A 
ATOM     30  C   UNL     1      46.995   3.640   6.959  0.00  0.00    +0.000 A 
ATOM     31  C   UNL     1      47.750   2.491   6.737  0.00  0.00    +0.000 A 
ATOM     32  C   UNL     1      47.356   1.281   7.306  0.00  0.00    +0.000 A 
ATOM     33  C   UNL     1      46.214   1.220   8.109  0.00  0.00    +0.000 A 
ENDBRANCH  27  28
ENDBRANCH  24  27
ENDBRANCH  23  24
ENDBRANCH   4  23
TORSDOF 8
ENDMDL
MODEL 8
REMARK VINA RESULT:    -7.178      3.233      7.930
REMARK INTER + INTRA:         -11.558
REMARK INTER:                 -10.316
REMARK INTRA:                  -1.242
REMARK UNBOUND:                -1.233
REMARK  Name = 
REMARK  8 active torsions:
REMARK  status: ('A' for Active; 'I' for Inactive)
REMARK    1  A    between atoms: C_2  and  C_21
REMARK    2  A    between atoms: N_3  and  C_4
REMARK    3  A    between atoms: C_4  and  C_5
REMARK    4  A    between atoms: C_8  and  C_9
REMARK    5  A    between atoms: C_9  and  C_10
REMARK    6  A    between atoms: C_10  and  O_11
REMARK    7  A    between atoms: C_10  and  C_12
REMARK    8  A    between atoms: C_12  and  C_13
REMARK                            x       y       z     vdW  Elec       q    Type
REMARK                         _______ _______ _______ _____ _____    ______ ____
ROOT
ATOM      1  C   UNL     1      48.125   7.724  14.067  0.00  0.00    +0.000 A 
ATOM      2  N   UNL     1      48.342   6.439  14.409  0.00  0.00    +0.000 NA
ATOM      3  C   UNL     1      48.755   6.215  15.670  0.00  0.00    +0.000 A 
ATOM      4  C   UNL     1      48.958   7.216  16.599  0.00  0.00    +0.000 A 
ATOM      5  C   UNL     1      48.662   8.488  16.157  0.00  0.00    +0.000 A 
ATOM      6  N   UNL     1      48.242   8.767  14.914  0.00  0.00    +0.000 NA
ENDROOT
BRANCH   1   7
ATOM      7  C   UNL     1      47.581   8.023  12.694  0.00  0.00    +0.000 C 
BRANCH   7  10
ATOM      8  O   UNL     1      45.131   7.747  11.420  0.00  0.00    +0.000 OA
ATOM      9  C   UNL     1      45.890   6.787  11.446  0.00  0.00    +0.000 C 
ATOM     10  N   UNL     1      47.114   6.814  12.051  0.00  0.00    +0.000 N 
ATOM     11  H   UNL     1      47.559   5.943  12.300  0.00  0.00    +0.000 HD
BRANCH   9  12
ATOM     12  C   UNL     1      45.601   5.552  10.738  0.00  0.00    +0.000 A 
ATOM     13  C   UNL     1      45.758   5.374   9.375  0.00  0.00    +0.000 A 
ATOM     14  S   UNL     1      44.882   4.018   8.800  0.00  0.00    +0.000 S 
ATOM     15  C   UNL     1      44.394   3.597  10.379  0.00  0.00    +0.000 A 
ATOM     16  N   UNL     1      43.521   2.588  10.621  0.00  0.00    +0.000 NA
ATOM     17  C   UNL     1      43.328   2.350  11.876  0.00  0.00    +0.000 A 
ATOM     18  N   UNL     1      43.968   2.994  12.911  0.00  0.00    +0.000 N 
ATOM     19  C   UNL     1      44.870   4.020  12.719  0.00  0.00    +0.000 A 
ATOM     20  O   UNL     1      45.538   4.477  13.630  0.00  0.00    +0.000 OA
ATOM     21  C   UNL     1      45.004   4.396  11.325  0.00  0.00    +0.000 A 
ATOM     22  H   UNL     1      43.862   2.675  13.861  0.00  0.00    +0.000 HD
ENDBRANCH   9  12
ENDBRANCH   7  10
ENDBRANCH   1   7
BRANCH   4  23
ATOM     23  C   UNL     1      49.532   6.948  17.960  0.00  0.00    +0.000 C 
BRANCH  23  24
ATOM     24  C   UNL     1      48.460   6.656  19.035  0.00  0.00    +0.000 C 
BRANCH  24  25
ATOM     25  O   UNL     1      47.174   6.959  18.486  0.00  0.00    +0.000 OA
ATOM     26  H   UNL     1      46.784   6.129  18.158  0.00  0.00    +0.000 HD
ENDBRANCH  24  25
BRANCH  24  27
ATOM     27  C   UNL     1      48.525   5.216  19.582  0.00  0.00    +0.000 C 
BRANCH  27  28
ATOM     28  C   UNL     1      48.775   4.164  18.526  0.00  0.00    +0.000 A 
ATOM     29  C   UNL     1      50.076   3.687  18.297  0.00  0.00    +0.000 A 
ATOM     30  C   UNL     1      50.311   2.687  17.354  0.00  0.00    +0.000 A 
ATOM     31  C   UNL     1      49.251   2.154  16.623  0.00  0.00    +0.000 A 
ATOM     32  C   UNL     1      47.958   2.634  16.828  0.00  0.00    +0.000 A 
ATOM     33  C   UNL     1      47.721   3.636  17.771  0.00  0.00    +0.000 A 
ENDBRANCH  27  28
ENDBRANCH  24  27
ENDBRANCH  23  24
ENDBRANCH   4  23
TORSDOF 8
ENDMDL
MODEL 9
REMARK VINA RESULT:    -6.755      3.540      4.739
REMARK INTER + INTRA:         -10.949
REMARK INTER:                  -9.954
REMARK INTRA:                  -0.995
REMARK UNBOUND:                -1.233
REMARK  Name = 
REMARK  8 active torsions:
REMARK  status: ('A' for Active; 'I' for Inactive)
REMARK    1  A    between atoms: C_2  and  C_21
REMARK    2  A    between atoms: N_3  and  C_4
REMARK    3  A    between atoms: C_4  and  C_5
REMARK    4  A    between atoms: C_8  and  C_9
REMARK    5  A    between atoms: C_9  and  C_10
REMARK    6  A    between atoms: C_10  and  O_11
REMARK    7  A    between atoms: C_10  and  C_12
REMARK    8  A    between atoms: C_12  and  C_13
REMARK                            x       y       z     vdW  Elec       q    Type
REMARK                         _______ _______ _______ _____ _____    ______ ____
ROOT
ATOM      1  C   UNL     1      46.539   7.469  13.086  0.00  0.00    +0.000 A 
ATOM      2  N   UNL     1      46.590   6.186  13.492  0.00  0.00    +0.000 NA
ATOM      3  C   UNL     1      45.797   5.317  12.838  0.00  0.00    +0.000 A 
ATOM      4  C   UNL     1      44.962   5.675  11.799  0.00  0.00    +0.000 A 
ATOM      5  C   UNL     1      45.023   7.004  11.435  0.00  0.00    +0.000 A 
ATOM      6  N   UNL     1      45.799   7.910  12.048  0.00  0.00    +0.000 NA
ENDROOT
BRANCH   1   7
ATOM      7  C   UNL     1      47.469   8.466  13.728  0.00  0.00    +0.000 C 
BRANCH   7  10
ATOM      8  O   UNL     1      49.848   7.095  14.125  0.00  0.00    +0.000 OA
ATOM      9  C   UNL     1      49.785   7.907  13.212  0.00  0.00    +0.000 C 
ATOM     10  N   UNL     1      48.666   8.639  12.934  0.00  0.00    +0.000 N 
ATOM     11  H   UNL     1      48.753   9.483  12.386  0.00  0.00    +0.000 HD
BRANCH   9  12
ATOM     12  C   UNL     1      50.870   8.093  12.264  0.00  0.00    +0.000 A 
ATOM     13  C   UNL     1      50.820   7.725  10.932  0.00  0.00    +0.000 A 
ATOM     14  S   UNL     1      52.382   7.618  10.235  0.00  0.00    +0.000 S 
ATOM     15  C   UNL     1      53.116   8.180  11.668  0.00  0.00    +0.000 A 
ATOM     16  N   UNL     1      54.463   8.228  11.819  0.00  0.00    +0.000 NA
ATOM     17  C   UNL     1      54.848   8.758  12.933  0.00  0.00    +0.000 A 
ATOM     18  N   UNL     1      54.011   9.292  13.886  0.00  0.00    +0.000 N 
ATOM     19  C   UNL     1      52.635   9.276  13.777  0.00  0.00    +0.000 A 
ATOM     20  O   UNL     1      51.915   9.881  14.552  0.00  0.00    +0.000 OA
ATOM     21  C   UNL     1      52.174   8.568  12.600  0.00  0.00    +0.000 A 
ATOM     22  H   UNL     1      54.383   9.800  14.673  0.00  0.00    +0.000 HD
ENDBRANCH   9  12
ENDBRANCH   7  10
ENDBRANCH   1   7
BRANCH   4  23
ATOM     23  C   UNL     1      44.002   4.709  11.167  0.00  0.00    +0.000 C 
BRANCH  23  24
ATOM     24  C   UNL     1      44.647   3.356  10.791  0.00  0.00    +0.000 C 
BRANCH  24  25
ATOM     25  O   UNL     1      44.339   2.407  11.817  0.00  0.00    +0.000 OA
ATOM     26  H   UNL     1      43.403   2.522  12.063  0.00  0.00    +0.000 HD
ENDBRANCH  24  25
BRANCH  24  27
ATOM     27  C   UNL     1      44.227   2.848   9.397  0.00  0.00    +0.000 C 
BRANCH  27  28
ATOM     28  C   UNL     1      45.379   2.647   8.439  0.00  0.00    +0.000 A 
ATOM     29  C   UNL     1      45.845   3.718   7.660  0.00  0.00    +0.000 A 
ATOM     30  C   UNL     1      46.935   3.553   6.804  0.00  0.00    +0.000 A 
ATOM     31  C   UNL     1      47.569   2.315   6.712  0.00  0.00    +0.000 A 
ATOM     32  C   UNL     1      47.103   1.241   7.468  0.00  0.00    +0.000 A 
ATOM     33  C   UNL     1      46.011   1.403   8.324  0.00  0.00    +0.000 A 
ENDBRANCH  27  28
ENDBRANCH  24  27
ENDBRANCH  23  24
ENDBRANCH   4  23
TORSDOF 8
ENDMDL
