MODEL 1
REMARK VINA RESULT:    -6.969      0.000      0.000
REMARK INTER + INTRA:          -9.433
REMARK INTER:                  -8.802
REMARK INTRA:                  -0.631
REMARK UNBOUND:                -0.631
REMARK  Name = 
REMARK  5 active torsions:
REMARK  status: ('A' for Active; 'I' for Inactive)
REMARK    1  A    between atoms: N_1  and  C_2
REMARK    2  A    between atoms: C_2  and  C_3
REMARK    3  A    between atoms: C_6  and  O_7
REMARK    4  A    between atoms: O_7  and  C_8
REMARK    5  A    between atoms: C_8  and  C_9
REMARK                            x       y       z     vdW  Elec       q    Type
REMARK                         _______ _______ _______ _____ _____    ______ ____
ROOT
ATOM      1  C   UNL     1      46.520   2.329   7.629  0.00  0.00    +0.000 A 
ATOM      2  C   UNL     1      46.364   3.722   7.578  0.00  0.00    +0.000 A 
ATOM      3  C   UNL     1      45.390   4.356   8.353  0.00  0.00    +0.000 A 
ATOM      4  C   UNL     1      44.550   3.608   9.177  0.00  0.00    +0.000 A 
ATOM      5  C   UNL     1      44.731   2.226   9.266  0.00  0.00    +0.000 A 
ATOM      6  C   UNL     1      45.702   1.590   8.490  0.00  0.00    +0.000 A 
ENDROOT
BRANCH   1   7
ATOM      7  C   UNL     1      47.545   1.633   6.771  0.00  0.00    +0.000 C 
BRANCH   7   8
ATOM      8  N   UNL     1      48.608   2.541   6.363  0.00  0.00    +0.000 NA
ATOM      9  H   UNL     1      48.205   3.303   5.823  0.00  0.00    +0.000 HD
ATOM     10  H   UNL     1      49.240   2.044   5.735  0.00  0.00    +0.000 HD
ENDBRANCH   7   8
ENDBRANCH   1   7
BRANCH   4  11
ATOM     11  O   UNL     1      43.588   4.315   9.849  0.00  0.00    +0.000 OA
BRANCH  11  12
ATOM     12  C   UNL     1      43.448   3.971  11.228  0.00  0.00    +0.000 C 
BRANCH  12  13
ATOM     13  C   UNL     1      44.539   4.632  12.027  0.00  0.00    +0.000 A 
ATOM     14  C   UNL     1      45.479   3.860  12.716  0.00  0.00    +0.000 A 
ATOM     15  C   UNL     1      46.486   4.506  13.413  0.00  0.00    +0.000 A 
ATOM     16  N   UNL     1      46.616   5.848  13.471  0.00  0.00    +0.000 NA
ATOM     17  C   UNL     1      45.690   6.576  12.810  0.00  0.00    +0.000 A 
ATOM     18  C   UNL     1      44.647   6.023  12.084  0.00  0.00    +0.000 A 
ENDBRANCH  12  13
ENDBRANCH  11  12
ENDBRANCH   4  11
TORSDOF 5
ENDMDL
MODEL 2
REMARK VINA RESULT:    -6.791      1.371      5.678
REMARK INTER + INTRA:          -9.209
REMARK INTER:                  -8.704
REMARK INTRA:                  -0.504
REMARK UNBOUND:                -0.631
REMARK  Name = 
REMARK  5 active torsions:
REMARK  status: ('A' for Active; 'I' for Inactive)
REMARK    1  A    between atoms: N_1  and  C_2
REMARK    2  A    between atoms: C_2  and  C_3
REMARK    3  A    between atoms: C_6  and  O_7
REMARK    4  A    between atoms: O_7  and  C_8
REMARK    5  A    between atoms: C_8  and  C_9
REMARK                            x       y       z     vdW  Elec       q    Type
REMARK                         _______ _______ _______ _____ _____    ______ ____
ROOT
ATOM      1  C   UNL     1      45.993   4.778  12.828  0.00  0.00    +0.000 A 
ATOM      2  C   UNL     1      46.352   5.850  11.998  0.00  0.00    +0.000 A 
ATOM      3  C   UNL     1      46.001   5.850  10.646  0.00  0.00    +0.000 A 
ATOM      4  C   UNL     1      45.298   4.776  10.102  0.00  0.00    +0.000 A 
ATOM      5  C   UNL     1      44.897   3.728  10.933  0.00  0.00    +0.000 A 
ATOM      6  C   UNL     1      45.251   3.724  12.284  0.00  0.00    +0.000 A 
ENDROOT
BRANCH   1   7
ATOM      7  C   UNL     1      46.397   4.752  14.279  0.00  0.00    +0.000 C 
BRANCH   7   8
ATOM      8  N   UNL     1      47.267   3.621  14.572  0.00  0.00    +0.000 NA
ATOM      9  H   UNL     1      46.828   3.039  15.283  0.00  0.00    +0.000 HD
ATOM     10  H   UNL     1      48.134   3.971  14.980  0.00  0.00    +0.000 HD
ENDBRANCH   7   8
ENDBRANCH   1   7
BRANCH   4  11
ATOM     11  O   UNL     1      45.054   4.843   8.756  0.00  0.00    +0.000 OA
BRANCH  11  12
ATOM     12  C   UNL     1      44.615   3.617   8.167  0.00  0.00    +0.000 C 
BRANCH  12  13
ATOM     13  C   UNL     1      45.799   2.862   7.628  0.00  0.00    +0.000 A 
ATOM     14  C   UNL     1      46.104   1.586   8.110  0.00  0.00    +0.000 A 
ATOM     15  C   UNL     1      47.183   0.911   7.565  0.00  0.00    +0.000 A 
ATOM     16  N   UNL     1      47.969   1.415   6.590  0.00  0.00    +0.000 NA
ATOM     17  C   UNL     1      47.666   2.654   6.148  0.00  0.00    +0.000 A 
ATOM     18  C   UNL     1      46.607   3.409   6.627  0.00  0.00    +0.000 A 
ENDBRANCH  12  13
ENDBRANCH  11  12
ENDBRANCH   4  11
TORSDOF 5
ENDMDL
MODEL 3
REMARK VINA RESULT:    -6.467      1.246      5.814
REMARK INTER + INTRA:          -8.799
REMARK INTER:                  -8.276
REMARK INTRA:                  -0.523
REMARK UNBOUND:                -0.631
REMARK  Name = 
REMARK  5 active torsions:
REMARK  status: ('A' for Active; 'I' for Inactive)
REMARK    1  A    between atoms: N_1  and  C_2
REMARK    2  A    between atoms: C_2  and  C_3
REMARK    3  A    between atoms: C_6  and  O_7
REMARK    4  A    between atoms: O_7  and  C_8
REMARK    5  A    between atoms: C_8  and  C_9
REMARK                            x       y       z     vdW  Elec       q    Type
REMARK                         _______ _______ _______ _____ _____    ______ ____
ROOT
ATOM      1  C   UNL     1      46.009   5.612  12.525  0.00  0.00    +0.000 A 
ATOM      2  C   UNL     1      45.611   6.055  11.256  0.00  0.00    +0.000 A 
ATOM      3  C   UNL     1      45.024   5.172  10.346  0.00  0.00    +0.000 A 
ATOM      4  C   UNL     1      44.840   3.832  10.686  0.00  0.00    +0.000 A 
ATOM      5  C   UNL     1      45.193   3.395  11.965  0.00  0.00    +0.000 A 
ATOM      6  C   UNL     1      45.782   4.276  12.873  0.00  0.00    +0.000 A 
ENDROOT
BRANCH   1   7
ATOM      7  C   UNL     1      46.674   6.549  13.499  0.00  0.00    +0.000 C 
BRANCH   7   8
ATOM      8  N   UNL     1      46.190   7.914  13.345  0.00  0.00    +0.000 NA
ATOM      9  H   UNL     1      46.853   8.440  12.780  0.00  0.00    +0.000 HD
ATOM     10  H   UNL     1      46.172   8.361  14.261  0.00  0.00    +0.000 HD
ENDBRANCH   7   8
ENDBRANCH   1   7
BRANCH   4  11
ATOM     11  O   UNL     1      44.314   3.034   9.705  0.00  0.00    +0.000 OA
BRANCH  11  12
ATOM     12  C   UNL     1      44.590   3.464   8.372  0.00  0.00    +0.000 C 
BRANCH  12  13
ATOM     13  C   UNL     1      45.765   2.700   7.827  0.00  0.00    +0.000 A 
ATOM     14  C   UNL     1      46.723   3.341   7.035  0.00  0.00    +0.000 A 
ATOM     15  C   UNL     1      47.807   2.610   6.580  0.00  0.00    +0.000 A 
ATOM     16  N   UNL     1      47.997   1.302   6.853  0.00  0.00    +0.000 NA
ATOM     17  C   UNL     1      47.054   0.697   7.609  0.00  0.00    +0.000 A 
ATOM     18  C   UNL     1      45.936   1.343   8.112  0.00  0.00    +0.000 A 
ENDBRANCH  12  13
ENDBRANCH  11  12
ENDBRANCH   4  11
TORSDOF 5
ENDMDL
MODEL 4
REMARK VINA RESULT:    -6.261      1.164      5.894
REMARK INTER + INTRA:          -8.539
REMARK INTER:                  -8.080
REMARK INTRA:                  -0.459
REMARK UNBOUND:                -0.631
REMARK  Name = 
REMARK  5 active torsions:
REMARK  status: ('A' for Active; 'I' for Inactive)
REMARK    1  A    between atoms: N_1  and  C_2
REMARK    2  A    between atoms: C_2  and  C_3
REMARK    3  A    between atoms: C_6  and  O_7
REMARK    4  A    between atoms: O_7  and  C_8
REMARK    5  A    between atoms: C_8  and  C_9
REMARK                            x       y       z     vdW  Elec       q    Type
REMARK                         _______ _______ _______ _____ _____    ______ ____
ROOT
ATOM      1  C   UNL     1      46.413   4.909  13.177  0.00  0.00    +0.000 A 
ATOM      2  C   UNL     1      45.929   3.606  12.998  0.00  0.00    +0.000 A 
ATOM      3  C   UNL     1      45.202   3.268  11.853  0.00  0.00    +0.000 A 
ATOM      4  C   UNL     1      44.939   4.230  10.878  0.00  0.00    +0.000 A 
ATOM      5  C   UNL     1      45.458   5.518  11.029  0.00  0.00    +0.000 A 
ATOM      6  C   UNL     1      46.181   5.858  12.174  0.00  0.00    +0.000 A 
ENDROOT
BRANCH   1   7
ATOM      7  C   UNL     1      47.167   5.291  14.424  0.00  0.00    +0.000 C 
BRANCH   7   8
ATOM      8  N   UNL     1      46.837   4.414  15.539  0.00  0.00    +0.000 NA
ATOM      9  H   UNL     1      45.831   4.258  15.553  0.00  0.00    +0.000 HD
ATOM     10  H   UNL     1      47.067   4.892  16.410  0.00  0.00    +0.000 HD
ENDBRANCH   7   8
ENDBRANCH   1   7
BRANCH   4  11
ATOM     11  O   UNL     1      44.168   3.817   9.824  0.00  0.00    +0.000 OA
BRANCH  11  12
ATOM     12  C   UNL     1      44.393   2.468   9.413  0.00  0.00    +0.000 C 
BRANCH  12  13
ATOM     13  C   UNL     1      45.481   2.430   8.374  0.00  0.00    +0.000 A 
ATOM     14  C   UNL     1      45.736   3.548   7.574  0.00  0.00    +0.000 A 
ATOM     15  C   UNL     1      46.767   3.484   6.653  0.00  0.00    +0.000 A 
ATOM     16  N   UNL     1      47.547   2.397   6.475  0.00  0.00    +0.000 NA
ATOM     17  C   UNL     1      47.277   1.323   7.249  0.00  0.00    +0.000 A 
ATOM     18  C   UNL     1      46.268   1.290   8.199  0.00  0.00    +0.000 A 
ENDBRANCH  12  13
ENDBRANCH  11  12
ENDBRANCH   4  11
TORSDOF 5
ENDMDL
MODEL 5
REMARK VINA RESULT:    -5.954      1.713      6.032
REMARK INTER + INTRA:          -8.151
REMARK INTER:                  -7.704
REMARK INTRA:                  -0.447
REMARK UNBOUND:                -0.631
REMARK  Name = 
REMARK  5 active torsions:
REMARK  status: ('A' for Active; 'I' for Inactive)
REMARK    1  A    between atoms: N_1  and  C_2
REMARK    2  A    between atoms: C_2  and  C_3
REMARK    3  A    between atoms: C_6  and  O_7
REMARK    4  A    between atoms: O_7  and  C_8
REMARK    5  A    between atoms: C_8  and  C_9
REMARK                            x       y       z     vdW  Elec       q    Type
REMARK                         _______ _______ _______ _____ _____    ______ ____
ROOT
ATOM      1  C   UNL     1      45.245   7.146  12.035  0.00  0.00    +0.000 A 
ATOM      2  C   UNL     1      43.942   6.746  11.706  0.00  0.00    +0.000 A 
ATOM      3  C   UNL     1      43.718   5.555  11.010  0.00  0.00    +0.000 A 
ATOM      4  C   UNL     1      44.792   4.754  10.624  0.00  0.00    +0.000 A 
ATOM      5  C   UNL     1      46.088   5.124  10.989  0.00  0.00    +0.000 A 
ATOM      6  C   UNL     1      46.314   6.315  11.680  0.00  0.00    +0.000 A 
ENDROOT
BRANCH   1   7
ATOM      7  C   UNL     1      45.499   8.445  12.754  0.00  0.00    +0.000 C 
BRANCH   7   8
ATOM      8  N   UNL     1      44.445   9.416  12.493  0.00  0.00    +0.000 NA
ATOM      9  H   UNL     1      44.749  10.332  12.815  0.00  0.00    +0.000 HD
ATOM     10  H   UNL     1      43.627   9.170  13.051  0.00  0.00    +0.000 HD
ENDBRANCH   7   8
ENDBRANCH   1   7
BRANCH   4  11
ATOM     11  O   UNL     1      44.473   3.640   9.894  0.00  0.00    +0.000 OA
BRANCH  11  12
ATOM     12  C   UNL     1      44.602   3.794   8.480  0.00  0.00    +0.000 C 
BRANCH  12  13
ATOM     13  C   UNL     1      45.736   2.941   7.980  0.00  0.00    +0.000 A 
ATOM     14  C   UNL     1      45.789   1.579   8.290  0.00  0.00    +0.000 A 
ATOM     15  C   UNL     1      46.831   0.822   7.783  0.00  0.00    +0.000 A 
ATOM     16  N   UNL     1      47.812   1.324   7.002  0.00  0.00    +0.000 NA
ATOM     17  C   UNL     1      47.749   2.644   6.724  0.00  0.00    +0.000 A 
ATOM     18  C   UNL     1      46.747   3.484   7.183  0.00  0.00    +0.000 A 
ENDBRANCH  12  13
ENDBRANCH  11  12
ENDBRANCH   4  11
TORSDOF 5
ENDMDL
MODEL 6
REMARK VINA RESULT:    -5.117      4.172      8.100
REMARK INTER + INTRA:          -7.094
REMARK INTER:                  -6.766
REMARK INTRA:                  -0.329
REMARK UNBOUND:                -0.631
REMARK  Name = 
REMARK  5 active torsions:
REMARK  status: ('A' for Active; 'I' for Inactive)
REMARK    1  A    between atoms: N_1  and  C_2
REMARK    2  A    between atoms: C_2  and  C_3
REMARK    3  A    between atoms: C_6  and  O_7
REMARK    4  A    between atoms: O_7  and  C_8
REMARK    5  A    between atoms: C_8  and  C_9
REMARK                            x       y       z     vdW  Elec       q    Type
REMARK                         _______ _______ _______ _____ _____    ______ ____
ROOT
ATOM      1  C   UNL     1      48.502   4.553  18.439  0.00  0.00    +0.000 A 
ATOM      2  C   UNL     1      48.008   3.275  18.141  0.00  0.00    +0.000 A 
ATOM      3  C   UNL     1      47.504   2.986  16.870  0.00  0.00    +0.000 A 
ATOM      4  C   UNL     1      47.474   3.973  15.885  0.00  0.00    +0.000 A 
ATOM      5  C   UNL     1      48.006   5.234  16.163  0.00  0.00    +0.000 A 
ATOM      6  C   UNL     1      48.506   5.525  17.433  0.00  0.00    +0.000 A 
ENDROOT
BRANCH   1   7
ATOM      7  C   UNL     1      49.014   4.883  19.817  0.00  0.00    +0.000 C 
BRANCH   7   8
ATOM      8  N   UNL     1      48.459   3.989  20.824  0.00  0.00    +0.000 NA
ATOM      9  H   UNL     1      48.942   4.140  21.706  0.00  0.00    +0.000 HD
ATOM     10  H   UNL     1      48.654   3.026  20.549  0.00  0.00    +0.000 HD
ENDBRANCH   7   8
ENDBRANCH   1   7
BRANCH   4  11
ATOM     11  O   UNL     1      46.907   3.610  14.693  0.00  0.00    +0.000 OA
BRANCH  11  12
ATOM     12  C   UNL     1      46.712   4.684  13.771  0.00  0.00    +0.000 C 
BRANCH  12  13
ATOM     13  C   UNL     1      45.406   4.499  13.047  0.00  0.00    +0.000 A 
ATOM     14  C   UNL     1      44.388   5.449  13.169  0.00  0.00    +0.000 A 
ATOM     15  C   UNL     1      43.214   5.259  12.460  0.00  0.00    +0.000 A 
ATOM     16  N   UNL     1      42.987   4.200  11.655  0.00  0.00    +0.000 NA
ATOM     17  C   UNL     1      43.978   3.286  11.561  0.00  0.00    +0.000 A 
ATOM     18  C   UNL     1      45.189   3.388  12.228  0.00  0.00    +0.000 A 
ENDBRANCH  12  13
ENDBRANCH  11  12
ENDBRANCH   4  11
TORSDOF 5
ENDMDL
MODEL 7
REMARK VINA RESULT:    -4.862      3.817      5.577
REMARK INTER + INTRA:          -6.772
REMARK INTER:                  -6.428
REMARK INTRA:                  -0.343
REMARK UNBOUND:                -0.631
REMARK  Name = 
REMARK  5 active torsions:
REMARK  status: ('A' for Active; 'I' for Inactive)
REMARK    1  A    between atoms: N_1  and  C_2
REMARK    2  A    between atoms: C_2  and  C_3
REMARK    3  A    between atoms: C_6  and  O_7
REMARK    4  A    between atoms: O_7  and  C_8
REMARK    5  A    between atoms: C_8  and  C_9
REMARK                            x       y       z     vdW  Elec       q    Type
REMARK                         _______ _______ _______ _____ _____    ______ ____
ROOT
ATOM      1  C   UNL     1      45.132   4.591  11.143  0.00  0.00    +0.000 A 
ATOM      2  C   UNL     1      45.257   3.608  12.135  0.00  0.00    +0.000 A 
ATOM      3  C   UNL     1      46.048   3.834  13.265  0.00  0.00    +0.000 A 
ATOM      4  C   UNL     1      46.734   5.039  13.413  0.00  0.00    +0.000 A 
ATOM      5  C   UNL     1      46.577   6.039  12.451  0.00  0.00    +0.000 A 
ATOM      6  C   UNL     1      45.790   5.813  11.320  0.00  0.00    +0.000 A 
ENDROOT
BRANCH   1   7
ATOM      7  C   UNL     1      44.310   4.343   9.905  0.00  0.00    +0.000 C 
BRANCH   7   8
ATOM      8  N   UNL     1      45.031   4.726   8.699  0.00  0.00    +0.000 NA
ATOM      9  H   UNL     1      44.868   5.713   8.513  0.00  0.00    +0.000 HD
ATOM     10  H   UNL     1      44.640   4.214   7.908  0.00  0.00    +0.000 HD
ENDBRANCH   7   8
ENDBRANCH   1   7
BRANCH   4  11
ATOM     11  O   UNL     1      47.530   5.141  14.523  0.00  0.00    +0.000 OA
BRANCH  11  12
ATOM     12  C   UNL     1      47.129   4.322  15.622  0.00  0.00    +0.000 C 
BRANCH  12  13
ATOM     13  C   UNL     1      48.325   4.002  16.477  0.00  0.00    +0.000 A 
ATOM     14  C   UNL     1      48.733   2.677  16.656  0.00  0.00    +0.000 A 
ATOM     15  C   UNL     1      49.858   2.426  17.423  0.00  0.00    +0.000 A 
ATOM     16  N   UNL     1      50.591   3.392  18.018  0.00  0.00    +0.000 NA
ATOM     17  C   UNL     1      50.172   4.664  17.843  0.00  0.00    +0.000 A 
ATOM     18  C   UNL     1      49.062   5.016  17.093  0.00  0.00    +0.000 A 
ENDBRANCH  12  13
ENDBRANCH  11  12
ENDBRANCH   4  11
TORSDOF 5
ENDMDL
MODEL 8
REMARK VINA RESULT:    -4.789      4.470      6.054
REMARK INTER + INTRA:          -6.680
REMARK INTER:                  -6.302
REMARK INTRA:                  -0.379
REMARK UNBOUND:                -0.631
REMARK  Name = 
REMARK  5 active torsions:
REMARK  status: ('A' for Active; 'I' for Inactive)
REMARK    1  A    between atoms: N_1  and  C_2
REMARK    2  A    between atoms: C_2  and  C_3
REMARK    3  A    between atoms: C_6  and  O_7
REMARK    4  A    between atoms: O_7  and  C_8
REMARK    5  A    between atoms: C_8  and  C_9
REMARK                            x       y       z     vdW  Elec       q    Type
REMARK                         _______ _______ _______ _____ _____    ______ ____
ROOT
ATOM      1  C   UNL     1      44.366   5.548  12.067  0.00  0.00    +0.000 A 
ATOM      2  C   UNL     1      45.193   6.672  12.203  0.00  0.00    +0.000 A 
ATOM      3  C   UNL     1      46.437   6.568  12.830  0.00  0.00    +0.000 A 
ATOM      4  C   UNL     1      46.867   5.343  13.340  0.00  0.00    +0.000 A 
ATOM      5  C   UNL     1      46.067   4.211  13.168  0.00  0.00    +0.000 A 
ATOM      6  C   UNL     1      44.822   4.314  12.545  0.00  0.00    +0.000 A 
ENDROOT
BRANCH   1   7
ATOM      7  C   UNL     1      43.008   5.658  11.424  0.00  0.00    +0.000 C 
BRANCH   7   8
ATOM      8  N   UNL     1      42.630   7.048  11.206  0.00  0.00    +0.000 NA
ATOM      9  H   UNL     1      43.099   7.393  10.372  0.00  0.00    +0.000 HD
ATOM     10  H   UNL     1      42.977   7.608  11.985  0.00  0.00    +0.000 HD
ENDBRANCH   7   8
ENDBRANCH   1   7
BRANCH   4  11
ATOM     11  O   UNL     1      48.073   5.356  13.989  0.00  0.00    +0.000 OA
BRANCH  11  12
ATOM     12  C   UNL     1      48.065   6.028  15.250  0.00  0.00    +0.000 C 
BRANCH  12  13
ATOM     13  C   UNL     1      48.233   5.024  16.359  0.00  0.00    +0.000 A 
ATOM     14  C   UNL     1      47.261   4.044  16.579  0.00  0.00    +0.000 A 
ATOM     15  C   UNL     1      47.468   3.119  17.588  0.00  0.00    +0.000 A 
ATOM     16  N   UNL     1      48.559   3.106  18.382  0.00  0.00    +0.000 NA
ATOM     17  C   UNL     1      49.480   4.069  18.161  0.00  0.00    +0.000 A 
ATOM     18  C   UNL     1      49.365   5.037  17.176  0.00  0.00    +0.000 A 
ENDBRANCH  12  13
ENDBRANCH  11  12
ENDBRANCH   4  11
TORSDOF 5
ENDMDL
MODEL 9
REMARK VINA RESULT:    -4.637      4.111      7.552
REMARK INTER + INTRA:          -6.488
REMARK INTER:                  -6.146
REMARK INTRA:                  -0.342
REMARK UNBOUND:                -0.631
REMARK  Name = 
REMARK  5 active torsions:
REMARK  status: ('A' for Active; 'I' for Inactive)
REMARK    1  A    between atoms: N_1  and  C_2
REMARK    2  A    between atoms: C_2  and  C_3
REMARK    3  A    between atoms: C_6  and  O_7
REMARK    4  A    between atoms: O_7  and  C_8
REMARK    5  A    between atoms: C_8  and  C_9
REMARK                            x       y       z     vdW  Elec       q    Type
REMARK                         _______ _______ _______ _____ _____    ______ ____
ROOT
ATOM      1  C   UNL     1      49.577   4.338  17.787  0.00  0.00    +0.000 A 
ATOM      2  C   UNL     1      49.154   5.454  17.050  0.00  0.00    +0.000 A 
ATOM      3  C   UNL     1      48.126   5.337  16.111  0.00  0.00    +0.000 A 
ATOM      4  C   UNL     1      47.516   4.104  15.885  0.00  0.00    +0.000 A 
ATOM      5  C   UNL     1      47.902   2.999  16.648  0.00  0.00    +0.000 A 
ATOM      6  C   UNL     1      48.931   3.113  17.584  0.00  0.00    +0.000 A 
ENDROOT
BRANCH   1   7
ATOM      7  C   UNL     1      50.708   4.446  18.776  0.00  0.00    +0.000 C 
BRANCH   7   8
ATOM      8  N   UNL     1      51.658   3.352  18.624  0.00  0.00    +0.000 NA
ATOM      9  H   UNL     1      52.488   3.697  18.147  0.00  0.00    +0.000 HD
ATOM     10  H   UNL     1      51.248   2.644  18.016  0.00  0.00    +0.000 HD
ENDBRANCH   7   8
ENDBRANCH   1   7
BRANCH   4  11
ATOM     11  O   UNL     1      46.562   4.080  14.903  0.00  0.00    +0.000 OA
BRANCH  11  12
ATOM     12  C   UNL     1      46.750   5.042  13.864  0.00  0.00    +0.000 C 
BRANCH  12  13
ATOM     13  C   UNL     1      45.804   4.753  12.730  0.00  0.00    +0.000 A 
ATOM     14  C   UNL     1      45.379   3.445  12.478  0.00  0.00    +0.000 A 
ATOM     15  C   UNL     1      44.482   3.226  11.446  0.00  0.00    +0.000 A 
ATOM     16  N   UNL     1      43.991   4.206  10.659  0.00  0.00    +0.000 NA
ATOM     17  C   UNL     1      44.424   5.460  10.910  0.00  0.00    +0.000 A 
ATOM     18  C   UNL     1      45.317   5.781  11.920  0.00  0.00    +0.000 A 
ENDBRANCH  12  13
ENDBRANCH  11  12
ENDBRANCH   4  11
TORSDOF 5
ENDMDL
