MODEL 1
REMARK VINA RESULT:    -6.477      0.000      0.000
REMARK INTER + INTRA:         -10.006
REMARK INTER:                  -9.127
REMARK INTRA:                  -0.879
REMARK UNBOUND:                -0.879
REMARK  Name = 
REMARK  10 active torsions:
REMARK  status: ('A' for Active; 'I' for Inactive)
REMARK    1  A    between atoms: C_1  and  C_2
REMARK    2  A    between atoms: C_2  and  N_3
REMARK    3  A    between atoms: C_4  and  C_6
REMARK    4  A    between atoms: C_9  and  N_10
REMARK    5  A    between atoms: N_10  and  C_11
REMARK    6  A    between atoms: N_10  and  C_12
REMARK    7  A    between atoms: C_12  and  C_13
REMARK    8  A    between atoms: C_13  and  C_14
REMARK    9  A    between atoms: C_13  and  C_15
REMARK   10  A    between atoms: C_19  and  C_20
REMARK                            x       y       z     vdW  Elec       q    Type
REMARK                         _______ _______ _______ _____ _____    ______ ____
ROOT
ATOM      1  N   UNL     1      48.051   4.625  16.999  0.00  0.00    +0.000 N 
ATOM      2  C   UNL     1      47.207   4.879  18.176  0.00  0.00    +0.000 C 
ENDROOT
BRANCH   1   6
ATOM      3  C   UNL     1      51.668   2.418  17.709  0.00  0.00    +0.000 A 
ATOM      4  C   UNL     1      50.515   1.780  17.256  0.00  0.00    +0.000 A 
ATOM      5  C   UNL     1      49.342   2.510  16.996  0.00  0.00    +0.000 A 
ATOM      6  C   UNL     1      49.250   3.904  17.180  0.00  0.00    +0.000 A 
ATOM      7  C   UNL     1      50.430   4.514  17.652  0.00  0.00    +0.000 A 
ATOM      8  C   UNL     1      51.619   3.795  17.916  0.00  0.00    +0.000 A 
BRANCH   3  10
ATOM      9  N   UNL     1      53.111   0.533  17.105  0.00  0.00    +0.000 N 
ATOM     10  C   UNL     1      52.876   1.581  17.973  0.00  0.00    +0.000 C 
ATOM     11  O   UNL     1      53.575   1.813  18.953  0.00  0.00    +0.000 OA
ATOM     12  H   UNL     1      52.443   0.323  16.379  0.00  0.00    +0.000 HD
BRANCH   9  14
ATOM     13  C   UNL     1      55.413  -0.105  16.501  0.00  0.00    +0.000 C 
ATOM     14  C   UNL     1      54.186  -0.414  17.340  0.00  0.00    +0.000 C 
ENDBRANCH   9  14
ENDBRANCH   3  10
ENDBRANCH   1   6
BRANCH   1  15
ATOM     15  C   UNL     1      47.262   4.415  15.753  0.00  0.00    +0.000 C 
BRANCH  15  16
ATOM     16  C   UNL     1      47.772   5.154  14.479  0.00  0.00    +0.000 C 
ATOM     17  C   UNL     1      48.256   6.573  14.786  0.00  0.00    +0.000 C 
BRANCH  16  18
ATOM     18  C   UNL     1      46.903   5.192  13.225  0.00  0.00    +0.000 A 
ATOM     19  C   UNL     1      46.959   6.305  12.365  0.00  0.00    +0.000 A 
ATOM     20  C   UNL     1      46.026   6.476  11.337  0.00  0.00    +0.000 A 
ATOM     21  C   UNL     1      45.042   5.513  11.120  0.00  0.00    +0.000 A 
ATOM     22  C   UNL     1      45.007   4.370  11.921  0.00  0.00    +0.000 A 
ATOM     23  C   UNL     1      45.909   4.230  12.987  0.00  0.00    +0.000 A 
BRANCH  22  24
ATOM     24  C   UNL     1      43.990   3.329  11.623  0.00  0.00    +0.000 C 
ATOM     25  N   UNL     1      43.795   2.375  12.582  0.00  0.00    +0.000 N 
ATOM     26  O   UNL     1      43.400   3.286  10.553  0.00  0.00    +0.000 OA
ATOM     27  H   UNL     1      44.413   2.265  13.374  0.00  0.00    +0.000 HD
ATOM     28  H   UNL     1      43.194   1.600  12.336  0.00  0.00    +0.000 HD
ENDBRANCH  22  24
ENDBRANCH  16  18
ENDBRANCH  15  16
ENDBRANCH   1  15
TORSDOF 7
ENDMDL
MODEL 2
REMARK VINA RESULT:    -6.371      5.788      7.616
REMARK INTER + INTRA:          -9.857
REMARK INTER:                  -8.849
REMARK INTRA:                  -1.008
REMARK UNBOUND:                -0.879
REMARK  Name = 
REMARK  10 active torsions:
REMARK  status: ('A' for Active; 'I' for Inactive)
REMARK    1  A    between atoms: C_1  and  C_2
REMARK    2  A    between atoms: C_2  and  N_3
REMARK    3  A    between atoms: C_4  and  C_6
REMARK    4  A    between atoms: C_9  and  N_10
REMARK    5  A    between atoms: N_10  and  C_11
REMARK    6  A    between atoms: N_10  and  C_12
REMARK    7  A    between atoms: C_12  and  C_13
REMARK    8  A    between atoms: C_13  and  C_14
REMARK    9  A    between atoms: C_13  and  C_15
REMARK   10  A    between atoms: C_19  and  C_20
REMARK                            x       y       z     vdW  Elec       q    Type
REMARK                         _______ _______ _______ _____ _____    ______ ____
ROOT
ATOM      1  N   UNL     1      45.960   5.651  13.441  0.00  0.00    +0.000 N 
ATOM      2  C   UNL     1      46.576   4.318  13.515  0.00  0.00    +0.000 C 
ENDROOT
BRANCH   1   6
ATOM      3  C   UNL     1      48.362   8.915  12.016  0.00  0.00    +0.000 A 
ATOM      4  C   UNL     1      47.057   9.124  12.457  0.00  0.00    +0.000 A 
ATOM      5  C   UNL     1      46.284   8.058  12.951  0.00  0.00    +0.000 A 
ATOM      6  C   UNL     1      46.761   6.735  13.024  0.00  0.00    +0.000 A 
ATOM      7  C   UNL     1      48.079   6.558  12.556  0.00  0.00    +0.000 A 
ATOM      8  C   UNL     1      48.871   7.619  12.059  0.00  0.00    +0.000 A 
BRANCH   3  10
ATOM      9  N   UNL     1      50.461   9.893  11.217  0.00  0.00    +0.000 N 
ATOM     10  C   UNL     1      49.124  10.090  11.496  0.00  0.00    +0.000 C 
ATOM     11  O   UNL     1      48.565  11.176  11.384  0.00  0.00    +0.000 OA
ATOM     12  H   UNL     1      50.893   9.006  11.430  0.00  0.00    +0.000 HD
BRANCH   9  14
ATOM     13  C   UNL     1      51.846  10.834   9.408  0.00  0.00    +0.000 C 
ATOM     14  C   UNL     1      51.319  10.996  10.823  0.00  0.00    +0.000 C 
ENDBRANCH   9  14
ENDBRANCH   3  10
ENDBRANCH   1   6
BRANCH   1  15
ATOM     15  C   UNL     1      44.530   5.607  13.024  0.00  0.00    +0.000 C 
BRANCH  15  16
ATOM     16  C   UNL     1      44.249   5.753  11.499  0.00  0.00    +0.000 C 
ATOM     17  C   UNL     1      42.915   6.448  11.217  0.00  0.00    +0.000 C 
BRANCH  16  18
ATOM     18  C   UNL     1      44.373   4.537  10.584  0.00  0.00    +0.000 A 
ATOM     19  C   UNL     1      43.785   3.314  10.959  0.00  0.00    +0.000 A 
ATOM     20  C   UNL     1      44.063   2.132  10.264  0.00  0.00    +0.000 A 
ATOM     21  C   UNL     1      44.902   2.158   9.151  0.00  0.00    +0.000 A 
ATOM     22  C   UNL     1      45.445   3.371   8.724  0.00  0.00    +0.000 A 
ATOM     23  C   UNL     1      45.210   4.544   9.457  0.00  0.00    +0.000 A 
BRANCH  22  24
ATOM     24  C   UNL     1      46.279   3.378   7.495  0.00  0.00    +0.000 C 
ATOM     25  N   UNL     1      46.812   2.180   7.113  0.00  0.00    +0.000 N 
ATOM     26  O   UNL     1      46.531   4.410   6.888  0.00  0.00    +0.000 OA
ATOM     27  H   UNL     1      46.795   1.363   7.708  0.00  0.00    +0.000 HD
ATOM     28  H   UNL     1      47.474   2.200   6.350  0.00  0.00    +0.000 HD
ENDBRANCH  22  24
ENDBRANCH  16  18
ENDBRANCH  15  16
ENDBRANCH   1  15
TORSDOF 7
ENDMDL
MODEL 3
REMARK VINA RESULT:    -6.338      3.516      4.704
REMARK INTER + INTRA:          -9.810
REMARK INTER:                  -8.663
REMARK INTRA:                  -1.147
REMARK UNBOUND:                -0.879
REMARK  Name = 
REMARK  10 active torsions:
REMARK  status: ('A' for Active; 'I' for Inactive)
REMARK    1  A    between atoms: C_1  and  C_2
REMARK    2  A    between atoms: C_2  and  N_3
REMARK    3  A    between atoms: C_4  and  C_6
REMARK    4  A    between atoms: C_9  and  N_10
REMARK    5  A    between atoms: N_10  and  C_11
REMARK    6  A    between atoms: N_10  and  C_12
REMARK    7  A    between atoms: C_12  and  C_13
REMARK    8  A    between atoms: C_13  and  C_14
REMARK    9  A    between atoms: C_13  and  C_15
REMARK   10  A    between atoms: C_19  and  C_20
REMARK                            x       y       z     vdW  Elec       q    Type
REMARK                         _______ _______ _______ _____ _____    ______ ____
ROOT
ATOM      1  N   UNL     1      47.687   6.721  13.060  0.00  0.00    +0.000 N 
ATOM      2  C   UNL     1      48.914   7.075  12.333  0.00  0.00    +0.000 C 
ENDROOT
BRANCH   1   6
ATOM      3  C   UNL     1      48.185   4.787  16.864  0.00  0.00    +0.000 A 
ATOM      4  C   UNL     1      48.827   5.990  16.582  0.00  0.00    +0.000 A 
ATOM      5  C   UNL     1      48.638   6.636  15.347  0.00  0.00    +0.000 A 
ATOM      6  C   UNL     1      47.813   6.119  14.330  0.00  0.00    +0.000 A 
ATOM      7  C   UNL     1      47.190   4.893  14.644  0.00  0.00    +0.000 A 
ATOM      8  C   UNL     1      47.368   4.232  15.882  0.00  0.00    +0.000 A 
BRANCH   3  10
ATOM      9  N   UNL     1      48.331   4.964  19.303  0.00  0.00    +0.000 N 
ATOM     10  C   UNL     1      48.437   4.151  18.192  0.00  0.00    +0.000 C 
ATOM     11  O   UNL     1      48.769   2.972  18.249  0.00  0.00    +0.000 OA
ATOM     12  H   UNL     1      48.160   5.952  19.188  0.00  0.00    +0.000 HD
BRANCH   9  14
ATOM     13  C   UNL     1      50.036   4.969  21.082  0.00  0.00    +0.000 C 
ATOM     14  C   UNL     1      48.673   4.478  20.627  0.00  0.00    +0.000 C 
ENDBRANCH   9  14
ENDBRANCH   3  10
ENDBRANCH   1   6
BRANCH   1  15
ATOM     15  C   UNL     1      46.574   7.684  12.825  0.00  0.00    +0.000 C 
BRANCH  15  16
ATOM     16  C   UNL     1      45.612   7.355  11.645  0.00  0.00    +0.000 C 
ATOM     17  C   UNL     1      44.546   8.434  11.446  0.00  0.00    +0.000 C 
BRANCH  16  18
ATOM     18  C   UNL     1      44.944   5.984  11.570  0.00  0.00    +0.000 A 
ATOM     19  C   UNL     1      44.271   5.469  12.694  0.00  0.00    +0.000 A 
ATOM     20  C   UNL     1      43.844   4.137  12.736  0.00  0.00    +0.000 A 
ATOM     21  C   UNL     1      44.043   3.305  11.635  0.00  0.00    +0.000 A 
ATOM     22  C   UNL     1      44.651   3.814  10.486  0.00  0.00    +0.000 A 
ATOM     23  C   UNL     1      45.129   5.133  10.469  0.00  0.00    +0.000 A 
BRANCH  22  24
ATOM     24  C   UNL     1      44.787   2.924   9.305  0.00  0.00    +0.000 C 
ATOM     25  N   UNL     1      44.416   1.620   9.478  0.00  0.00    +0.000 N 
ATOM     26  O   UNL     1      45.264   3.315   8.249  0.00  0.00    +0.000 OA
ATOM     27  H   UNL     1      44.223   1.226  10.389  0.00  0.00    +0.000 HD
ATOM     28  H   UNL     1      44.618   0.986   8.718  0.00  0.00    +0.000 HD
ENDBRANCH  22  24
ENDBRANCH  16  18
ENDBRANCH  15  16
ENDBRANCH   1  15
TORSDOF 7
ENDMDL
MODEL 4
REMARK VINA RESULT:    -6.248      3.934      8.074
REMARK INTER + INTRA:          -9.683
REMARK INTER:                  -8.447
REMARK INTRA:                  -1.236
REMARK UNBOUND:                -0.879
REMARK  Name = 
REMARK  10 active torsions:
REMARK  status: ('A' for Active; 'I' for Inactive)
REMARK    1  A    between atoms: C_1  and  C_2
REMARK    2  A    between atoms: C_2  and  N_3
REMARK    3  A    between atoms: C_4  and  C_6
REMARK    4  A    between atoms: C_9  and  N_10
REMARK    5  A    between atoms: N_10  and  C_11
REMARK    6  A    between atoms: N_10  and  C_12
REMARK    7  A    between atoms: C_12  and  C_13
REMARK    8  A    between atoms: C_13  and  C_14
REMARK    9  A    between atoms: C_13  and  C_15
REMARK   10  A    between atoms: C_19  and  C_20
REMARK                            x       y       z     vdW  Elec       q    Type
REMARK                         _______ _______ _______ _____ _____    ______ ____
ROOT
ATOM      1  N   UNL     1      48.592   8.770  14.104  0.00  0.00    +0.000 N 
ATOM      2  C   UNL     1      48.802  10.171  13.711  0.00  0.00    +0.000 C 
ENDROOT
BRANCH   1   6
ATOM      3  C   UNL     1      45.538   6.616  11.985  0.00  0.00    +0.000 A 
ATOM      4  C   UNL     1      46.783   6.040  12.231  0.00  0.00    +0.000 A 
ATOM      5  C   UNL     1      47.770   6.737  12.952  0.00  0.00    +0.000 A 
ATOM      6  C   UNL     1      47.577   8.038  13.454  0.00  0.00    +0.000 A 
ATOM      7  C   UNL     1      46.312   8.595  13.174  0.00  0.00    +0.000 A 
ATOM      8  C   UNL     1      45.307   7.907  12.454  0.00  0.00    +0.000 A 
BRANCH   3  10
ATOM      9  N   UNL     1      45.030   4.792  10.430  0.00  0.00    +0.000 N 
ATOM     10  C   UNL     1      44.540   5.824  11.207  0.00  0.00    +0.000 C 
ATOM     11  O   UNL     1      43.355   6.136  11.242  0.00  0.00    +0.000 OA
ATOM     12  H   UNL     1      46.026   4.649  10.356  0.00  0.00    +0.000 HD
BRANCH   9  14
ATOM     13  C   UNL     1      44.767   2.702   9.152  0.00  0.00    +0.000 C 
ATOM     14  C   UNL     1      44.163   4.039   9.543  0.00  0.00    +0.000 C 
ENDBRANCH   9  14
ENDBRANCH   3  10
ENDBRANCH   1   6
BRANCH   1  15
ATOM     15  C   UNL     1      49.857   8.076  14.477  0.00  0.00    +0.000 C 
BRANCH  15  16
ATOM     16  C   UNL     1      50.071   7.795  15.994  0.00  0.00    +0.000 C 
ATOM     17  C   UNL     1      51.446   7.189  16.285  0.00  0.00    +0.000 C 
BRANCH  16  18
ATOM     18  C   UNL     1      49.016   7.019  16.779  0.00  0.00    +0.000 A 
ATOM     19  C   UNL     1      48.610   7.474  18.048  0.00  0.00    +0.000 A 
ATOM     20  C   UNL     1      47.819   6.678  18.885  0.00  0.00    +0.000 A 
ATOM     21  C   UNL     1      47.382   5.428  18.450  0.00  0.00    +0.000 A 
ATOM     22  C   UNL     1      47.720   4.985  17.170  0.00  0.00    +0.000 A 
ATOM     23  C   UNL     1      48.560   5.761  16.356  0.00  0.00    +0.000 A 
BRANCH  22  24
ATOM     24  C   UNL     1      47.183   3.679  16.709  0.00  0.00    +0.000 C 
ATOM     25  N   UNL     1      47.224   3.444  15.364  0.00  0.00    +0.000 N 
ATOM     26  O   UNL     1      46.673   2.879  17.480  0.00  0.00    +0.000 OA
ATOM     27  H   UNL     1      47.441   4.167  14.691  0.00  0.00    +0.000 HD
ATOM     28  H   UNL     1      46.753   2.612  15.034  0.00  0.00    +0.000 HD
ENDBRANCH  22  24
ENDBRANCH  16  18
ENDBRANCH  15  16
ENDBRANCH   1  15
TORSDOF 7
ENDMDL
MODEL 5
REMARK VINA RESULT:    -6.197      2.566      8.198
REMARK INTER + INTRA:          -9.612
REMARK INTER:                  -8.680
REMARK INTRA:                  -0.932
REMARK UNBOUND:                -0.879
REMARK  Name = 
REMARK  10 active torsions:
REMARK  status: ('A' for Active; 'I' for Inactive)
REMARK    1  A    between atoms: C_1  and  C_2
REMARK    2  A    between atoms: C_2  and  N_3
REMARK    3  A    between atoms: C_4  and  C_6
REMARK    4  A    between atoms: C_9  and  N_10
REMARK    5  A    between atoms: N_10  and  C_11
REMARK    6  A    between atoms: N_10  and  C_12
REMARK    7  A    between atoms: C_12  and  C_13
REMARK    8  A    between atoms: C_13  and  C_14
REMARK    9  A    between atoms: C_13  and  C_15
REMARK   10  A    between atoms: C_19  and  C_20
REMARK                            x       y       z     vdW  Elec       q    Type
REMARK                         _______ _______ _______ _____ _____    ______ ____
ROOT
ATOM      1  N   UNL     1      47.999   7.976  14.133  0.00  0.00    +0.000 N 
ATOM      2  C   UNL     1      48.328   9.322  13.642  0.00  0.00    +0.000 C 
ENDROOT
BRANCH   1   6
ATOM      3  C   UNL     1      45.403   5.556  11.711  0.00  0.00    +0.000 A 
ATOM      4  C   UNL     1      46.109   5.005  12.778  0.00  0.00    +0.000 A 
ATOM      5  C   UNL     1      46.935   5.806  13.587  0.00  0.00    +0.000 A 
ATOM      6  C   UNL     1      47.108   7.187  13.375  0.00  0.00    +0.000 A 
ATOM      7  C   UNL     1      46.390   7.709  12.279  0.00  0.00    +0.000 A 
ATOM      8  C   UNL     1      45.554   6.918  11.457  0.00  0.00    +0.000 A 
BRANCH   3  10
ATOM      9  N   UNL     1      45.190   3.604  10.246  0.00  0.00    +0.000 N 
ATOM     10  C   UNL     1      44.551   4.647  10.888  0.00  0.00    +0.000 C 
ATOM     11  O   UNL     1      43.352   4.876  10.771  0.00  0.00    +0.000 OA
ATOM     12  H   UNL     1      46.195   3.527  10.292  0.00  0.00    +0.000 HD
BRANCH   9  14
ATOM     13  C   UNL     1      45.375   1.656   8.749  0.00  0.00    +0.000 C 
ATOM     14  C   UNL     1      44.478   2.736   9.327  0.00  0.00    +0.000 C 
ENDBRANCH   9  14
ENDBRANCH   3  10
ENDBRANCH   1   6
BRANCH   1  15
ATOM     15  C   UNL     1      49.142   7.314  14.822  0.00  0.00    +0.000 C 
BRANCH  15  16
ATOM     16  C   UNL     1      49.093   7.294  16.379  0.00  0.00    +0.000 C 
ATOM     17  C   UNL     1      50.316   7.967  17.007  0.00  0.00    +0.000 C 
BRANCH  16  18
ATOM     18  C   UNL     1      48.822   5.984  17.114  0.00  0.00    +0.000 A 
ATOM     19  C   UNL     1      48.104   5.994  18.325  0.00  0.00    +0.000 A 
ATOM     20  C   UNL     1      48.029   4.855  19.134  0.00  0.00    +0.000 A 
ATOM     21  C   UNL     1      48.634   3.667  18.724  0.00  0.00    +0.000 A 
ATOM     22  C   UNL     1      49.297   3.618  17.496  0.00  0.00    +0.000 A 
ATOM     23  C   UNL     1      49.419   4.778  16.716  0.00  0.00    +0.000 A 
BRANCH  22  24
ATOM     24  C   UNL     1      49.873   2.322  17.056  0.00  0.00    +0.000 C 
ATOM     25  N   UNL     1      50.888   1.815  17.818  0.00  0.00    +0.000 N 
ATOM     26  O   UNL     1      49.506   1.763  16.032  0.00  0.00    +0.000 OA
ATOM     27  H   UNL     1      51.348   2.354  18.538  0.00  0.00    +0.000 HD
ATOM     28  H   UNL     1      51.362   0.998  17.458  0.00  0.00    +0.000 HD
ENDBRANCH  22  24
ENDBRANCH  16  18
ENDBRANCH  15  16
ENDBRANCH   1  15
TORSDOF 7
ENDMDL
MODEL 6
REMARK VINA RESULT:    -6.000      2.815      7.954
REMARK INTER + INTRA:          -9.334
REMARK INTER:                  -8.284
REMARK INTRA:                  -1.050
REMARK UNBOUND:                -0.879
REMARK  Name = 
REMARK  10 active torsions:
REMARK  status: ('A' for Active; 'I' for Inactive)
REMARK    1  A    between atoms: C_1  and  C_2
REMARK    2  A    between atoms: C_2  and  N_3
REMARK    3  A    between atoms: C_4  and  C_6
REMARK    4  A    between atoms: C_9  and  N_10
REMARK    5  A    between atoms: N_10  and  C_11
REMARK    6  A    between atoms: N_10  and  C_12
REMARK    7  A    between atoms: C_12  and  C_13
REMARK    8  A    between atoms: C_13  and  C_14
REMARK    9  A    between atoms: C_13  and  C_15
REMARK   10  A    between atoms: C_19  and  C_20
REMARK                            x       y       z     vdW  Elec       q    Type
REMARK                         _______ _______ _______ _____ _____    ______ ____
ROOT
ATOM      1  N   UNL     1      48.735   8.116  14.200  0.00  0.00    +0.000 N 
ATOM      2  C   UNL     1      48.814   9.428  13.541  0.00  0.00    +0.000 C 
ENDROOT
BRANCH   1   6
ATOM      3  C   UNL     1      46.135   5.141  12.511  0.00  0.00    +0.000 A 
ATOM      4  C   UNL     1      46.766   4.931  13.735  0.00  0.00    +0.000 A 
ATOM      5  C   UNL     1      47.593   5.919  14.299  0.00  0.00    +0.000 A 
ATOM      6  C   UNL     1      47.842   7.158  13.677  0.00  0.00    +0.000 A 
ATOM      7  C   UNL     1      47.199   7.331  12.434  0.00  0.00    +0.000 A 
ATOM      8  C   UNL     1      46.362   6.349  11.854  0.00  0.00    +0.000 A 
BRANCH   3  10
ATOM      9  N   UNL     1      44.974   4.103  10.620  0.00  0.00    +0.000 N 
ATOM     10  C   UNL     1      45.278   4.047  11.966  0.00  0.00    +0.000 C 
ATOM     11  O   UNL     1      44.842   3.183  12.720  0.00  0.00    +0.000 OA
ATOM     12  H   UNL     1      45.272   4.895  10.071  0.00  0.00    +0.000 HD
BRANCH   9  14
ATOM     13  C   UNL     1      44.768   2.128   9.162  0.00  0.00    +0.000 C 
ATOM     14  C   UNL     1      44.052   3.159  10.016  0.00  0.00    +0.000 C 
ENDBRANCH   9  14
ENDBRANCH   3  10
ENDBRANCH   1   6
BRANCH   1  15
ATOM     15  C   UNL     1      50.045   7.660  14.745  0.00  0.00    +0.000 C 
BRANCH  15  16
ATOM     16  C   UNL     1      50.162   7.591  16.297  0.00  0.00    +0.000 C 
ATOM     17  C   UNL     1      51.175   8.596  16.849  0.00  0.00    +0.000 C 
BRANCH  16  18
ATOM     18  C   UNL     1      50.382   6.244  16.983  0.00  0.00    +0.000 A 
ATOM     19  C   UNL     1      51.679   5.704  17.069  0.00  0.00    +0.000 A 
ATOM     20  C   UNL     1      51.890   4.385  17.485  0.00  0.00    +0.000 A 
ATOM     21  C   UNL     1      50.808   3.593  17.867  0.00  0.00    +0.000 A 
ATOM     22  C   UNL     1      49.519   4.130  17.849  0.00  0.00    +0.000 A 
ATOM     23  C   UNL     1      49.306   5.434  17.376  0.00  0.00    +0.000 A 
BRANCH  22  24
ATOM     24  C   UNL     1      48.395   3.284  18.326  0.00  0.00    +0.000 C 
ATOM     25  N   UNL     1      48.313   3.081  19.675  0.00  0.00    +0.000 N 
ATOM     26  O   UNL     1      47.616   2.744  17.553  0.00  0.00    +0.000 OA
ATOM     27  H   UNL     1      49.058   3.336  20.309  0.00  0.00    +0.000 HD
ATOM     28  H   UNL     1      47.625   2.413  19.993  0.00  0.00    +0.000 HD
ENDBRANCH  22  24
ENDBRANCH  16  18
ENDBRANCH  15  16
ENDBRANCH   1  15
TORSDOF 7
ENDMDL
MODEL 7
REMARK VINA RESULT:    -5.911      3.283      7.955
REMARK INTER + INTRA:          -9.209
REMARK INTER:                  -7.844
REMARK INTRA:                  -1.365
REMARK UNBOUND:                -0.879
REMARK  Name = 
REMARK  10 active torsions:
REMARK  status: ('A' for Active; 'I' for Inactive)
REMARK    1  A    between atoms: C_1  and  C_2
REMARK    2  A    between atoms: C_2  and  N_3
REMARK    3  A    between atoms: C_4  and  C_6
REMARK    4  A    between atoms: C_9  and  N_10
REMARK    5  A    between atoms: N_10  and  C_11
REMARK    6  A    between atoms: N_10  and  C_12
REMARK    7  A    between atoms: C_12  and  C_13
REMARK    8  A    between atoms: C_13  and  C_14
REMARK    9  A    between atoms: C_13  and  C_15
REMARK   10  A    between atoms: C_19  and  C_20
REMARK                            x       y       z     vdW  Elec       q    Type
REMARK                         _______ _______ _______ _____ _____    ______ ____
ROOT
ATOM      1  N   UNL     1      49.821   8.997  14.232  0.00  0.00    +0.000 N 
ATOM      2  C   UNL     1      51.087   9.036  13.485  0.00  0.00    +0.000 C 
ENDROOT
BRANCH   1   6
ATOM      3  C   UNL     1      46.573   6.584  12.787  0.00  0.00    +0.000 A 
ATOM      4  C   UNL     1      46.362   7.896  13.205  0.00  0.00    +0.000 A 
ATOM      5  C   UNL     1      47.433   8.693  13.649  0.00  0.00    +0.000 A 
ATOM      6  C   UNL     1      48.760   8.228  13.710  0.00  0.00    +0.000 A 
ATOM      7  C   UNL     1      48.935   6.892  13.294  0.00  0.00    +0.000 A 
ATOM      8  C   UNL     1      47.870   6.078  12.842  0.00  0.00    +0.000 A 
BRANCH   3  10
ATOM      9  N   UNL     1      44.242   5.897  13.095  0.00  0.00    +0.000 N 
ATOM     10  C   UNL     1      45.391   5.792  12.336  0.00  0.00    +0.000 C 
ATOM     11  O   UNL     1      45.488   5.056  11.360  0.00  0.00    +0.000 OA
ATOM     12  H   UNL     1      44.252   6.435  13.949  0.00  0.00    +0.000 HD
BRANCH   9  14
ATOM     13  C   UNL     1      42.197   5.686  11.737  0.00  0.00    +0.000 C 
ATOM     14  C   UNL     1      43.077   5.079  12.816  0.00  0.00    +0.000 C 
ENDBRANCH   9  14
ENDBRANCH   3  10
ENDBRANCH   1   6
BRANCH   1  15
ATOM     15  C   UNL     1      50.016   9.050  15.708  0.00  0.00    +0.000 C 
BRANCH  15  16
ATOM     16  C   UNL     1      48.946   8.320  16.574  0.00  0.00    +0.000 C 
ATOM     17  C   UNL     1      48.504   9.155  17.777  0.00  0.00    +0.000 C 
BRANCH  16  18
ATOM     18  C   UNL     1      49.192   6.885  17.034  0.00  0.00    +0.000 A 
ATOM     19  C   UNL     1      50.368   6.566  17.739  0.00  0.00    +0.000 A 
ATOM     20  C   UNL     1      50.732   5.237  17.980  0.00  0.00    +0.000 A 
ATOM     21  C   UNL     1      49.902   4.199  17.558  0.00  0.00    +0.000 A 
ATOM     22  C   UNL     1      48.700   4.495  16.913  0.00  0.00    +0.000 A 
ATOM     23  C   UNL     1      48.367   5.827  16.622  0.00  0.00    +0.000 A 
BRANCH  22  24
ATOM     24  C   UNL     1      47.805   3.372  16.536  0.00  0.00    +0.000 C 
ATOM     25  N   UNL     1      47.041   2.839  17.535  0.00  0.00    +0.000 N 
ATOM     26  O   UNL     1      47.793   2.902  15.406  0.00  0.00    +0.000 OA
ATOM     27  H   UNL     1      47.186   3.064  18.510  0.00  0.00    +0.000 HD
ATOM     28  H   UNL     1      46.521   2.001  17.312  0.00  0.00    +0.000 HD
ENDBRANCH  22  24
ENDBRANCH  16  18
ENDBRANCH  15  16
ENDBRANCH   1  15
TORSDOF 7
ENDMDL
MODEL 8
REMARK VINA RESULT:    -5.837      2.082      7.942
REMARK INTER + INTRA:          -9.105
REMARK INTER:                  -8.182
REMARK INTRA:                  -0.922
REMARK UNBOUND:                -0.879
REMARK  Name = 
REMARK  10 active torsions:
REMARK  status: ('A' for Active; 'I' for Inactive)
REMARK    1  A    between atoms: C_1  and  C_2
REMARK    2  A    between atoms: C_2  and  N_3
REMARK    3  A    between atoms: C_4  and  C_6
REMARK    4  A    between atoms: C_9  and  N_10
REMARK    5  A    between atoms: N_10  and  C_11
REMARK    6  A    between atoms: N_10  and  C_12
REMARK    7  A    between atoms: C_12  and  C_13
REMARK    8  A    between atoms: C_13  and  C_14
REMARK    9  A    between atoms: C_13  and  C_15
REMARK   10  A    between atoms: C_19  and  C_20
REMARK                            x       y       z     vdW  Elec       q    Type
REMARK                         _______ _______ _______ _____ _____    ______ ____
ROOT
ATOM      1  N   UNL     1      49.431   6.083  17.980  0.00  0.00    +0.000 N 
ATOM      2  C   UNL     1      48.774   6.162  19.293  0.00  0.00    +0.000 C 
ENDROOT
BRANCH   1   6
ATOM      3  C   UNL     1      47.179   4.935  14.506  0.00  0.00    +0.000 A 
ATOM      4  C   UNL     1      47.163   4.156  15.661  0.00  0.00    +0.000 A 
ATOM      5  C   UNL     1      47.878   4.551  16.807  0.00  0.00    +0.000 A 
ATOM      6  C   UNL     1      48.648   5.728  16.862  0.00  0.00    +0.000 A 
ATOM      7  C   UNL     1      48.653   6.484  15.671  0.00  0.00    +0.000 A 
ATOM      8  C   UNL     1      47.939   6.103  14.511  0.00  0.00    +0.000 A 
BRANCH   3  10
ATOM      9  N   UNL     1      46.006   5.405  12.408  0.00  0.00    +0.000 N 
ATOM     10  C   UNL     1      46.405   4.452  13.324  0.00  0.00    +0.000 C 
ATOM     11  O   UNL     1      46.114   3.264  13.231  0.00  0.00    +0.000 OA
ATOM     12  H   UNL     1      46.182   6.382  12.590  0.00  0.00    +0.000 HD
BRANCH   9  14
ATOM     13  C   UNL     1      45.735   5.506   9.960  0.00  0.00    +0.000 C 
ATOM     14  C   UNL     1      45.148   5.062  11.289  0.00  0.00    +0.000 C 
ENDBRANCH   9  14
ENDBRANCH   3  10
ENDBRANCH   1   6
BRANCH   1  15
ATOM     15  C   UNL     1      50.516   7.091  17.812  0.00  0.00    +0.000 C 
BRANCH  15  16
ATOM     16  C   UNL     1      51.945   6.531  17.546  0.00  0.00    +0.000 C 
ATOM     17  C   UNL     1      52.371   6.694  16.085  0.00  0.00    +0.000 C 
BRANCH  16  18
ATOM     18  C   UNL     1      52.307   5.122  18.010  0.00  0.00    +0.000 A 
ATOM     19  C   UNL     1      53.460   4.914  18.789  0.00  0.00    +0.000 A 
ATOM     20  C   UNL     1      53.943   3.625  19.042  0.00  0.00    +0.000 A 
ATOM     21  C   UNL     1      53.253   2.515  18.557  0.00  0.00    +0.000 A 
ATOM     22  C   UNL     1      52.071   2.697  17.836  0.00  0.00    +0.000 A 
ATOM     23  C   UNL     1      51.623   3.992  17.536  0.00  0.00    +0.000 A 
BRANCH  22  24
ATOM     24  C   UNL     1      51.323   1.494  17.391  0.00  0.00    +0.000 C 
ATOM     25  N   UNL     1      51.624   0.320  18.022  0.00  0.00    +0.000 N 
ATOM     26  O   UNL     1      50.523   1.532  16.467  0.00  0.00    +0.000 OA
ATOM     27  H   UNL     1      52.423   0.221  18.633  0.00  0.00    +0.000 HD
ATOM     28  H   UNL     1      51.207  -0.519  17.644  0.00  0.00    +0.000 HD
ENDBRANCH  22  24
ENDBRANCH  16  18
ENDBRANCH  15  16
ENDBRANCH   1  15
TORSDOF 7
ENDMDL
MODEL 9
REMARK VINA RESULT:    -5.754      2.672      8.129
REMARK INTER + INTRA:          -8.987
REMARK INTER:                  -7.795
REMARK INTRA:                  -1.192
REMARK UNBOUND:                -0.879
REMARK  Name = 
REMARK  10 active torsions:
REMARK  status: ('A' for Active; 'I' for Inactive)
REMARK    1  A    between atoms: C_1  and  C_2
REMARK    2  A    between atoms: C_2  and  N_3
REMARK    3  A    between atoms: C_4  and  C_6
REMARK    4  A    between atoms: C_9  and  N_10
REMARK    5  A    between atoms: N_10  and  C_11
REMARK    6  A    between atoms: N_10  and  C_12
REMARK    7  A    between atoms: C_12  and  C_13
REMARK    8  A    between atoms: C_13  and  C_14
REMARK    9  A    between atoms: C_13  and  C_15
REMARK   10  A    between atoms: C_19  and  C_20
REMARK                            x       y       z     vdW  Elec       q    Type
REMARK                         _______ _______ _______ _____ _____    ______ ____
ROOT
ATOM      1  N   UNL     1      49.446   8.821  15.538  0.00  0.00    +0.000 N 
ATOM      2  C   UNL     1      49.912  10.188  15.264  0.00  0.00    +0.000 C 
ENDROOT
BRANCH   1   6
ATOM      3  C   UNL     1      46.829   6.846  12.761  0.00  0.00    +0.000 A 
ATOM      4  C   UNL     1      46.612   8.171  13.133  0.00  0.00    +0.000 A 
ATOM      5  C   UNL     1      47.488   8.824  14.019  0.00  0.00    +0.000 A 
ATOM      6  C   UNL     1      48.614   8.195  14.586  0.00  0.00    +0.000 A 
ATOM      7  C   UNL     1      48.794   6.851  14.199  0.00  0.00    +0.000 A 
ATOM      8  C   UNL     1      47.924   6.181  13.307  0.00  0.00    +0.000 A 
BRANCH   3  10
ATOM      9  N   UNL     1      44.675   5.748  12.368  0.00  0.00    +0.000 N 
ATOM     10  C   UNL     1      45.855   6.213  11.823  0.00  0.00    +0.000 C 
ATOM     11  O   UNL     1      46.146   6.084  10.639  0.00  0.00    +0.000 OA
ATOM     12  H   UNL     1      44.535   5.784  13.367  0.00  0.00    +0.000 HD
BRANCH   9  14
ATOM     13  C   UNL     1      42.299   5.526  11.754  0.00  0.00    +0.000 C 
ATOM     14  C   UNL     1      43.715   5.009  11.569  0.00  0.00    +0.000 C 
ENDBRANCH   9  14
ENDBRANCH   3  10
ENDBRANCH   1   6
BRANCH   1  15
ATOM     15  C   UNL     1      50.452   7.999  16.268  0.00  0.00    +0.000 C 
BRANCH  15  16
ATOM     16  C   UNL     1      49.974   7.339  17.595  0.00  0.00    +0.000 C 
ATOM     17  C   UNL     1      51.086   7.271  18.644  0.00  0.00    +0.000 C 
BRANCH  16  18
ATOM     18  C   UNL     1      49.251   5.995  17.557  0.00  0.00    +0.000 A 
ATOM     19  C   UNL     1      47.915   5.903  17.990  0.00  0.00    +0.000 A 
ATOM     20  C   UNL     1      47.297   4.663  18.179  0.00  0.00    +0.000 A 
ATOM     21  C   UNL     1      47.990   3.487  17.896  0.00  0.00    +0.000 A 
ATOM     22  C   UNL     1      49.295   3.557  17.405  0.00  0.00    +0.000 A 
ATOM     23  C   UNL     1      49.931   4.800  17.272  0.00  0.00    +0.000 A 
BRANCH  22  24
ATOM     24  C   UNL     1      49.985   2.290  17.048  0.00  0.00    +0.000 C 
ATOM     25  N   UNL     1      50.981   1.880  17.889  0.00  0.00    +0.000 N 
ATOM     26  O   UNL     1      49.722   1.675  16.025  0.00  0.00    +0.000 OA
ATOM     27  H   UNL     1      51.357   2.473  18.615  0.00  0.00    +0.000 HD
ATOM     28  H   UNL     1      51.531   1.087  17.588  0.00  0.00    +0.000 HD
ENDBRANCH  22  24
ENDBRANCH  16  18
ENDBRANCH  15  16
ENDBRANCH   1  15
TORSDOF 7
ENDMDL
