MODEL 1
REMARK VINA RESULT:    -7.924      0.000      0.000
REMARK INTER + INTRA:         -11.287
REMARK INTER:                 -10.935
REMARK INTRA:                  -0.352
REMARK UNBOUND:                -0.352
REMARK  Name = 
REMARK  7 active torsions:
REMARK  status: ('A' for Active; 'I' for Inactive)
REMARK    1  A    between atoms: N_1  and  C_2
REMARK    2  A    between atoms: C_2  and  C_3
REMARK    3  A    between atoms: C_7  and  C_8
REMARK    4  A    between atoms: C_8  and  C_20
REMARK    5  A    between atoms: C_9  and  S_10
REMARK    6  A    between atoms: S_10  and  C_11
REMARK    7  A    between atoms: C_14  and  C_15
REMARK                            x       y       z     vdW  Elec       q    Type
REMARK                         _______ _______ _______ _____ _____    ______ ____
ROOT
ATOM      1  C   UNL     1      45.374   4.910  12.582  0.00  0.00    +0.000 C 
ATOM      2  C   UNL     1      45.255   3.637  12.152  0.00  0.00    +0.000 C 
ENDROOT
BRANCH   1   7
ATOM      3  C   UNL     1      47.567   4.630  15.667  0.00  0.00    +0.000 A 
ATOM      4  C   UNL     1      48.417   5.729  15.477  0.00  0.00    +0.000 A 
ATOM      5  C   UNL     1      48.256   6.562  14.371  0.00  0.00    +0.000 A 
ATOM      6  C   UNL     1      47.254   6.298  13.437  0.00  0.00    +0.000 A 
ATOM      7  C   UNL     1      46.394   5.206  13.606  0.00  0.00    +0.000 A 
ATOM      8  C   UNL     1      46.549   4.382  14.730  0.00  0.00    +0.000 A 
BRANCH   3   9
ATOM      9  C   UNL     1      47.812   3.670  16.801  0.00  0.00    +0.000 C 
BRANCH   9  10
ATOM     10  N   UNL     1      46.542   3.228  17.362  0.00  0.00    +0.000 NA
ATOM     11  H   UNL     1      46.054   4.023  17.766  0.00  0.00    +0.000 HD
ATOM     12  H   UNL     1      46.728   2.581  18.128  0.00  0.00    +0.000 HD
ENDBRANCH   9  10
ENDBRANCH   3   9
ENDBRANCH   1   7
BRANCH   1  13
ATOM     13  C   UNL     1      44.590   6.090  12.076  0.00  0.00    +0.000 C 
ATOM     14  F   UNL     1      43.252   5.859  11.993  0.00  0.00    +0.000 F 
ATOM     15  F   UNL     1      44.732   7.177  12.881  0.00  0.00    +0.000 F 
ATOM     16  F   UNL     1      44.982   6.466  10.829  0.00  0.00    +0.000 F 
ENDBRANCH   1  13
BRANCH   2  17
ATOM     17  S   UNL     1      44.139   3.185  10.903  0.00  0.00    +0.000 S 
BRANCH  17  18
ATOM     18  C   UNL     1      45.120   3.003   9.432  0.00  0.00    +0.000 A 
ATOM     19  N   UNL     1      45.468   4.068   8.688  0.00  0.00    +0.000 NA
ATOM     20  C   UNL     1      46.245   3.815   7.602  0.00  0.00    +0.000 A 
ATOM     21  C   UNL     1      46.691   2.559   7.252  0.00  0.00    +0.000 A 
ATOM     22  C   UNL     1      46.254   1.539   8.061  0.00  0.00    +0.000 A 
ATOM     23  N   UNL     1      45.482   1.734   9.151  0.00  0.00    +0.000 NA
BRANCH  21  24
ATOM     24  C   UNL     1      47.551   2.360   6.074  0.00  0.00    +0.000 C 
ATOM     25  N   UNL     1      47.430   3.241   5.036  0.00  0.00    +0.000 N 
ATOM     26  O   UNL     1      48.325   1.413   6.015  0.00  0.00    +0.000 OA
ATOM     27  H   UNL     1      46.668   3.896   4.929  0.00  0.00    +0.000 HD
ATOM     28  H   UNL     1      47.969   3.028   4.202  0.00  0.00    +0.000 HD
ENDBRANCH  21  24
ENDBRANCH  17  18
ENDBRANCH   2  17
TORSDOF 7
ENDMDL
MODEL 2
REMARK VINA RESULT:    -7.861      2.171      2.603
REMARK INTER + INTRA:         -11.200
REMARK INTER:                 -10.815
REMARK INTRA:                  -0.385
REMARK UNBOUND:                -0.352
REMARK  Name = 
REMARK  7 active torsions:
REMARK  status: ('A' for Active; 'I' for Inactive)
REMARK    1  A    between atoms: N_1  and  C_2
REMARK    2  A    between atoms: C_2  and  C_3
REMARK    3  A    between atoms: C_7  and  C_8
REMARK    4  A    between atoms: C_8  and  C_20
REMARK    5  A    between atoms: C_9  and  S_10
REMARK    6  A    between atoms: S_10  and  C_11
REMARK    7  A    between atoms: C_14  and  C_15
REMARK                            x       y       z     vdW  Elec       q    Type
REMARK                         _______ _______ _______ _____ _____    ______ ____
ROOT
ATOM      1  C   UNL     1      45.417   5.711  12.277  0.00  0.00    +0.000 C 
ATOM      2  C   UNL     1      44.812   5.962  11.098  0.00  0.00    +0.000 C 
ENDROOT
BRANCH   1   7
ATOM      3  C   UNL     1      48.338   7.546  13.861  0.00  0.00    +0.000 A 
ATOM      4  C   UNL     1      47.826   8.850  13.906  0.00  0.00    +0.000 A 
ATOM      5  C   UNL     1      46.537   9.117  13.450  0.00  0.00    +0.000 A 
ATOM      6  C   UNL     1      45.750   8.088  12.931  0.00  0.00    +0.000 A 
ATOM      7  C   UNL     1      46.241   6.778  12.877  0.00  0.00    +0.000 A 
ATOM      8  C   UNL     1      47.532   6.511  13.355  0.00  0.00    +0.000 A 
BRANCH   3   9
ATOM      9  C   UNL     1      49.767   7.279  14.252  0.00  0.00    +0.000 C 
BRANCH   9  10
ATOM     10  N   UNL     1      49.811   6.538  15.507  0.00  0.00    +0.000 NA
ATOM     11  H   UNL     1      48.951   6.698  16.025  0.00  0.00    +0.000 HD
ATOM     12  H   UNL     1      50.569   6.907  16.080  0.00  0.00    +0.000 HD
ENDBRANCH   9  10
ENDBRANCH   3   9
ENDBRANCH   1   7
BRANCH   1  13
ATOM     13  C   UNL     1      45.294   4.446  13.082  0.00  0.00    +0.000 C 
ATOM     14  F   UNL     1      45.906   3.375  12.507  0.00  0.00    +0.000 F 
ATOM     15  F   UNL     1      45.849   4.574  14.316  0.00  0.00    +0.000 F 
ATOM     16  F   UNL     1      43.997   4.082  13.264  0.00  0.00    +0.000 F 
ENDBRANCH   1  13
BRANCH   2  17
ATOM     17  S   UNL     1      43.766   4.809  10.334  0.00  0.00    +0.000 S 
BRANCH  17  18
ATOM     18  C   UNL     1      44.809   3.871   9.242  0.00  0.00    +0.000 A 
ATOM     19  N   UNL     1      45.551   4.474   8.296  0.00  0.00    +0.000 NA
ATOM     20  C   UNL     1      46.335   3.663   7.538  0.00  0.00    +0.000 A 
ATOM     21  C   UNL     1      46.413   2.296   7.703  0.00  0.00    +0.000 A 
ATOM     22  C   UNL     1      45.592   1.779   8.675  0.00  0.00    +0.000 A 
ATOM     23  N   UNL     1      44.795   2.539   9.456  0.00  0.00    +0.000 NA
BRANCH  21  24
ATOM     24  C   UNL     1      47.302   1.479   6.861  0.00  0.00    +0.000 C 
ATOM     25  N   UNL     1      48.328   2.108   6.215  0.00  0.00    +0.000 N 
ATOM     26  O   UNL     1      47.104   0.280   6.721  0.00  0.00    +0.000 OA
ATOM     27  H   UNL     1      48.409   3.110   6.111  0.00  0.00    +0.000 HD
ATOM     28  H   UNL     1      48.870   1.538   5.572  0.00  0.00    +0.000 HD
ENDBRANCH  21  24
ENDBRANCH  17  18
ENDBRANCH   2  17
TORSDOF 7
ENDMDL
MODEL 3
REMARK VINA RESULT:    -7.219      1.442      2.123
REMARK INTER + INTRA:         -10.314
REMARK INTER:                 -10.183
REMARK INTRA:                  -0.131
REMARK UNBOUND:                -0.352
REMARK  Name = 
REMARK  7 active torsions:
REMARK  status: ('A' for Active; 'I' for Inactive)
REMARK    1  A    between atoms: N_1  and  C_2
REMARK    2  A    between atoms: C_2  and  C_3
REMARK    3  A    between atoms: C_7  and  C_8
REMARK    4  A    between atoms: C_8  and  C_20
REMARK    5  A    between atoms: C_9  and  S_10
REMARK    6  A    between atoms: S_10  and  C_11
REMARK    7  A    between atoms: C_14  and  C_15
REMARK                            x       y       z     vdW  Elec       q    Type
REMARK                         _______ _______ _______ _____ _____    ______ ____
ROOT
ATOM      1  C   UNL     1      45.528   5.238  12.562  0.00  0.00    +0.000 C 
ATOM      2  C   UNL     1      45.166   4.003  12.156  0.00  0.00    +0.000 C 
ENDROOT
BRANCH   1   7
ATOM      3  C   UNL     1      48.353   6.550  14.729  0.00  0.00    +0.000 A 
ATOM      4  C   UNL     1      48.346   5.601  15.761  0.00  0.00    +0.000 A 
ATOM      5  C   UNL     1      47.449   4.535  15.731  0.00  0.00    +0.000 A 
ATOM      6  C   UNL     1      46.540   4.414  14.680  0.00  0.00    +0.000 A 
ATOM      7  C   UNL     1      46.530   5.351  13.639  0.00  0.00    +0.000 A 
ATOM      8  C   UNL     1      47.447   6.410  13.664  0.00  0.00    +0.000 A 
BRANCH   3   9
ATOM      9  C   UNL     1      49.247   7.759  14.819  0.00  0.00    +0.000 C 
BRANCH   9  10
ATOM     10  N   UNL     1      50.569   7.440  14.294  0.00  0.00    +0.000 NA
ATOM     11  H   UNL     1      51.202   8.214  14.477  0.00  0.00    +0.000 HD
ATOM     12  H   UNL     1      50.507   7.349  13.280  0.00  0.00    +0.000 HD
ENDBRANCH   9  10
ENDBRANCH   3   9
ENDBRANCH   1   7
BRANCH   1  13
ATOM     13  C   UNL     1      45.039   6.537  11.981  0.00  0.00    +0.000 C 
ATOM     14  F   UNL     1      45.694   6.906  10.847  0.00  0.00    +0.000 F 
ATOM     15  F   UNL     1      43.721   6.481  11.650  0.00  0.00    +0.000 F 
ATOM     16  F   UNL     1      45.186   7.572  12.851  0.00  0.00    +0.000 F 
ENDBRANCH   1  13
BRANCH   2  17
ATOM     17  S   UNL     1      44.050   3.750  10.853  0.00  0.00    +0.000 S 
BRANCH  17  18
ATOM     18  C   UNL     1      45.053   3.393   9.430  0.00  0.00    +0.000 A 
ATOM     19  N   UNL     1      45.503   4.375   8.628  0.00  0.00    +0.000 NA
ATOM     20  C   UNL     1      46.287   3.990   7.587  0.00  0.00    +0.000 A 
ATOM     21  C   UNL     1      46.644   2.683   7.336  0.00  0.00    +0.000 A 
ATOM     22  C   UNL     1      46.107   1.757   8.196  0.00  0.00    +0.000 A 
ATOM     23  N   UNL     1      45.323   2.084   9.245  0.00  0.00    +0.000 NA
BRANCH  21  24
ATOM     24  C   UNL     1      47.518   2.338   6.202  0.00  0.00    +0.000 C 
ATOM     25  N   UNL     1      47.334   3.008   5.025  0.00  0.00    +0.000 N 
ATOM     26  O   UNL     1      48.359   1.455   6.304  0.00  0.00    +0.000 OA
ATOM     27  H   UNL     1      46.525   3.576   4.812  0.00  0.00    +0.000 HD
ATOM     28  H   UNL     1      47.887   2.689   4.236  0.00  0.00    +0.000 HD
ENDBRANCH  21  24
ENDBRANCH  17  18
ENDBRANCH   2  17
TORSDOF 7
ENDMDL
MODEL 4
REMARK VINA RESULT:    -6.870      3.132      7.538
REMARK INTER + INTRA:          -9.833
REMARK INTER:                  -9.288
REMARK INTRA:                  -0.545
REMARK UNBOUND:                -0.352
REMARK  Name = 
REMARK  7 active torsions:
REMARK  status: ('A' for Active; 'I' for Inactive)
REMARK    1  A    between atoms: N_1  and  C_2
REMARK    2  A    between atoms: C_2  and  C_3
REMARK    3  A    between atoms: C_7  and  C_8
REMARK    4  A    between atoms: C_8  and  C_20
REMARK    5  A    between atoms: C_9  and  S_10
REMARK    6  A    between atoms: S_10  and  C_11
REMARK    7  A    between atoms: C_14  and  C_15
REMARK                            x       y       z     vdW  Elec       q    Type
REMARK                         _______ _______ _______ _____ _____    ______ ____
ROOT
ATOM      1  C   UNL     1      45.285   5.539  10.971  0.00  0.00    +0.000 C 
ATOM      2  C   UNL     1      46.501   5.932  11.406  0.00  0.00    +0.000 C 
ENDROOT
BRANCH   1   7
ATOM      3  C   UNL     1      45.810   3.516   7.803  0.00  0.00    +0.000 A 
ATOM      4  C   UNL     1      45.180   2.315   8.159  0.00  0.00    +0.000 A 
ATOM      5  C   UNL     1      44.570   2.182   9.405  0.00  0.00    +0.000 A 
ATOM      6  C   UNL     1      44.596   3.240  10.314  0.00  0.00    +0.000 A 
ATOM      7  C   UNL     1      45.221   4.448   9.979  0.00  0.00    +0.000 A 
ATOM      8  C   UNL     1      45.816   4.583   8.717  0.00  0.00    +0.000 A 
BRANCH   3   9
ATOM      9  C   UNL     1      46.562   3.619   6.502  0.00  0.00    +0.000 C 
BRANCH   9  10
ATOM     10  N   UNL     1      47.835   2.917   6.605  0.00  0.00    +0.000 NA
ATOM     11  H   UNL     1      48.567   3.477   6.177  0.00  0.00    +0.000 HD
ATOM     12  H   UNL     1      47.778   2.053   6.068  0.00  0.00    +0.000 HD
ENDBRANCH   9  10
ENDBRANCH   3   9
ENDBRANCH   1   7
BRANCH   1  13
ATOM     13  C   UNL     1      43.962   6.078  11.441  0.00  0.00    +0.000 C 
ATOM     14  F   UNL     1      42.902   5.615  10.726  0.00  0.00    +0.000 F 
ATOM     15  F   UNL     1      43.711   5.748  12.736  0.00  0.00    +0.000 F 
ATOM     16  F   UNL     1      43.905   7.434  11.358  0.00  0.00    +0.000 F 
ENDBRANCH   1  13
BRANCH   2  17
ATOM     17  S   UNL     1      46.695   7.155  12.619  0.00  0.00    +0.000 S 
BRANCH  17  18
ATOM     18  C   UNL     1      47.326   6.310  14.050  0.00  0.00    +0.000 A 
ATOM     19  N   UNL     1      48.293   6.852  14.812  0.00  0.00    +0.000 NA
ATOM     20  C   UNL     1      48.677   6.132  15.898  0.00  0.00    +0.000 A 
ATOM     21  C   UNL     1      48.125   4.919  16.252  0.00  0.00    +0.000 A 
ATOM     22  C   UNL     1      47.168   4.442  15.391  0.00  0.00    +0.000 A 
ATOM     23  N   UNL     1      46.749   5.116  14.298  0.00  0.00    +0.000 NA
BRANCH  21  24
ATOM     24  C   UNL     1      48.573   4.203  17.457  0.00  0.00    +0.000 C 
ATOM     25  N   UNL     1      47.621   3.771  18.337  0.00  0.00    +0.000 N 
ATOM     26  O   UNL     1      49.765   4.031  17.678  0.00  0.00    +0.000 OA
ATOM     27  H   UNL     1      46.656   4.073  18.327  0.00  0.00    +0.000 HD
ATOM     28  H   UNL     1      47.961   3.361  19.201  0.00  0.00    +0.000 HD
ENDBRANCH  21  24
ENDBRANCH  17  18
ENDBRANCH   2  17
TORSDOF 7
ENDMDL
MODEL 5
REMARK VINA RESULT:    -6.632      4.001      8.249
REMARK INTER + INTRA:          -9.504
REMARK INTER:                  -8.839
REMARK INTRA:                  -0.665
REMARK UNBOUND:                -0.352
REMARK  Name = 
REMARK  7 active torsions:
REMARK  status: ('A' for Active; 'I' for Inactive)
REMARK    1  A    between atoms: N_1  and  C_2
REMARK    2  A    between atoms: C_2  and  C_3
REMARK    3  A    between atoms: C_7  and  C_8
REMARK    4  A    between atoms: C_8  and  C_20
REMARK    5  A    between atoms: C_9  and  S_10
REMARK    6  A    between atoms: S_10  and  C_11
REMARK    7  A    between atoms: C_14  and  C_15
REMARK                            x       y       z     vdW  Elec       q    Type
REMARK                         _______ _______ _______ _____ _____    ______ ____
ROOT
ATOM      1  C   UNL     1      46.361   6.644  12.615  0.00  0.00    +0.000 C 
ATOM      2  C   UNL     1      47.381   6.057  13.276  0.00  0.00    +0.000 C 
ENDROOT
BRANCH   1   7
ATOM      3  C   UNL     1      44.472   4.527  10.095  0.00  0.00    +0.000 A 
ATOM      4  C   UNL     1      43.436   4.033  10.901  0.00  0.00    +0.000 A 
ATOM      5  C   UNL     1      43.345   4.410  12.239  0.00  0.00    +0.000 A 
ATOM      6  C   UNL     1      44.294   5.272  12.791  0.00  0.00    +0.000 A 
ATOM      7  C   UNL     1      45.336   5.776  12.004  0.00  0.00    +0.000 A 
ATOM      8  C   UNL     1      45.413   5.409  10.653  0.00  0.00    +0.000 A 
BRANCH   3   9
ATOM      9  C   UNL     1      44.632   4.033   8.681  0.00  0.00    +0.000 C 
BRANCH   9  10
ATOM     10  N   UNL     1      45.858   4.569   8.103  0.00  0.00    +0.000 NA
ATOM     11  H   UNL     1      45.812   5.584   8.092  0.00  0.00    +0.000 HD
ATOM     12  H   UNL     1      45.920   4.271   7.130  0.00  0.00    +0.000 HD
ENDBRANCH   9  10
ENDBRANCH   3   9
ENDBRANCH   1   7
BRANCH   1  13
ATOM     13  C   UNL     1      46.134   8.125  12.479  0.00  0.00    +0.000 C 
ATOM     14  F   UNL     1      47.143   8.773  11.836  0.00  0.00    +0.000 F 
ATOM     15  F   UNL     1      45.005   8.402  11.774  0.00  0.00    +0.000 F 
ATOM     16  F   UNL     1      46.009   8.735  13.687  0.00  0.00    +0.000 F 
ENDBRANCH   1  13
BRANCH   2  17
ATOM     17  S   UNL     1      48.604   6.976  14.090  0.00  0.00    +0.000 S 
BRANCH  17  18
ATOM     18  C   UNL     1      48.624   6.367  15.760  0.00  0.00    +0.000 A 
ATOM     19  N   UNL     1      48.976   7.160  16.788  0.00  0.00    +0.000 NA
ATOM     20  C   UNL     1      48.925   6.598  18.025  0.00  0.00    +0.000 A 
ATOM     21  C   UNL     1      48.525   5.301  18.265  0.00  0.00    +0.000 A 
ATOM     22  C   UNL     1      48.217   4.570  17.144  0.00  0.00    +0.000 A 
ATOM     23  N   UNL     1      48.251   5.078  15.894  0.00  0.00    +0.000 NA
BRANCH  21  24
ATOM     24  C   UNL     1      48.471   4.763  19.634  0.00  0.00    +0.000 C 
ATOM     25  N   UNL     1      48.484   3.406  19.790  0.00  0.00    +0.000 N 
ATOM     26  O   UNL     1      48.384   5.512  20.599  0.00  0.00    +0.000 OA
ATOM     27  H   UNL     1      48.330   2.744  19.042  0.00  0.00    +0.000 HD
ATOM     28  H   UNL     1      48.356   3.061  20.736  0.00  0.00    +0.000 HD
ENDBRANCH  21  24
ENDBRANCH  17  18
ENDBRANCH   2  17
TORSDOF 7
ENDMDL
MODEL 6
REMARK VINA RESULT:    -6.512      4.438      7.991
REMARK INTER + INTRA:          -9.339
REMARK INTER:                  -8.698
REMARK INTRA:                  -0.641
REMARK UNBOUND:                -0.352
REMARK  Name = 
REMARK  7 active torsions:
REMARK  status: ('A' for Active; 'I' for Inactive)
REMARK    1  A    between atoms: N_1  and  C_2
REMARK    2  A    between atoms: C_2  and  C_3
REMARK    3  A    between atoms: C_7  and  C_8
REMARK    4  A    between atoms: C_8  and  C_20
REMARK    5  A    between atoms: C_9  and  S_10
REMARK    6  A    between atoms: S_10  and  C_11
REMARK    7  A    between atoms: C_14  and  C_15
REMARK                            x       y       z     vdW  Elec       q    Type
REMARK                         _______ _______ _______ _____ _____    ______ ____
ROOT
ATOM      1  C   UNL     1      46.823   6.733  12.389  0.00  0.00    +0.000 C 
ATOM      2  C   UNL     1      47.947   6.293  12.992  0.00  0.00    +0.000 C 
ENDROOT
BRANCH   1   7
ATOM      3  C   UNL     1      44.379   3.940  11.598  0.00  0.00    +0.000 A 
ATOM      4  C   UNL     1      44.376   3.992  10.196  0.00  0.00    +0.000 A 
ATOM      5  C   UNL     1      45.183   4.908   9.524  0.00  0.00    +0.000 A 
ATOM      6  C   UNL     1      45.988   5.791  10.243  0.00  0.00    +0.000 A 
ATOM      7  C   UNL     1      46.006   5.757  11.643  0.00  0.00    +0.000 A 
ATOM      8  C   UNL     1      45.207   4.821  12.314  0.00  0.00    +0.000 A 
BRANCH   3   9
ATOM      9  C   UNL     1      43.427   3.026  12.323  0.00  0.00    +0.000 C 
BRANCH   9  10
ATOM     10  N   UNL     1      43.010   1.942  11.442  0.00  0.00    +0.000 NA
ATOM     11  H   UNL     1      42.166   2.214  10.945  0.00  0.00    +0.000 HD
ATOM     12  H   UNL     1      42.764   1.132  12.010  0.00  0.00    +0.000 HD
ENDBRANCH   9  10
ENDBRANCH   3   9
ENDBRANCH   1   7
BRANCH   1  13
ATOM     13  C   UNL     1      46.283   8.136  12.444  0.00  0.00    +0.000 C 
ATOM     14  F   UNL     1      47.091   9.054  11.849  0.00  0.00    +0.000 F 
ATOM     15  F   UNL     1      45.079   8.241  11.822  0.00  0.00    +0.000 F 
ATOM     16  F   UNL     1      46.108   8.566  13.723  0.00  0.00    +0.000 F 
ENDBRANCH   1  13
BRANCH   2  17
ATOM     17  S   UNL     1      48.947   7.334  13.953  0.00  0.00    +0.000 S 
BRANCH  17  18
ATOM     18  C   UNL     1      48.844   6.698  15.609  0.00  0.00    +0.000 A 
ATOM     19  N   UNL     1      49.087   7.482  16.675  0.00  0.00    +0.000 NA
ATOM     20  C   UNL     1      48.948   6.898  17.894  0.00  0.00    +0.000 A 
ATOM     21  C   UNL     1      48.565   5.587  18.081  0.00  0.00    +0.000 A 
ATOM     22  C   UNL     1      48.371   4.868  16.927  0.00  0.00    +0.000 A 
ATOM     23  N   UNL     1      48.495   5.397  15.692  0.00  0.00    +0.000 NA
BRANCH  21  24
ATOM     24  C   UNL     1      48.411   5.025  19.433  0.00  0.00    +0.000 C 
ATOM     25  N   UNL     1      48.477   3.667  19.573  0.00  0.00    +0.000 N 
ATOM     26  O   UNL     1      48.198   5.752  20.393  0.00  0.00    +0.000 OA
ATOM     27  H   UNL     1      48.426   3.011  18.806  0.00  0.00    +0.000 HD
ATOM     28  H   UNL     1      48.279   3.302  20.499  0.00  0.00    +0.000 HD
ENDBRANCH  21  24
ENDBRANCH  17  18
ENDBRANCH   2  17
TORSDOF 7
ENDMDL
MODEL 7
REMARK VINA RESULT:    -5.964      4.374      6.032
REMARK INTER + INTRA:          -8.583
REMARK INTER:                  -7.800
REMARK INTRA:                  -0.782
REMARK UNBOUND:                -0.352
REMARK  Name = 
REMARK  7 active torsions:
REMARK  status: ('A' for Active; 'I' for Inactive)
REMARK    1  A    between atoms: N_1  and  C_2
REMARK    2  A    between atoms: C_2  and  C_3
REMARK    3  A    between atoms: C_7  and  C_8
REMARK    4  A    between atoms: C_8  and  C_20
REMARK    5  A    between atoms: C_9  and  S_10
REMARK    6  A    between atoms: S_10  and  C_11
REMARK    7  A    between atoms: C_14  and  C_15
REMARK                            x       y       z     vdW  Elec       q    Type
REMARK                         _______ _______ _______ _____ _____    ______ ____
ROOT
ATOM      1  C   UNL     1      48.611   8.204  12.791  0.00  0.00    +0.000 C 
ATOM      2  C   UNL     1      47.485   8.679  12.217  0.00  0.00    +0.000 C 
ENDROOT
BRANCH   1   7
ATOM      3  C   UNL     1      51.730   7.969  10.642  0.00  0.00    +0.000 A 
ATOM      4  C   UNL     1      52.304   9.225  10.886  0.00  0.00    +0.000 A 
ATOM      5  C   UNL     1      51.693  10.120  11.762  0.00  0.00    +0.000 A 
ATOM      6  C   UNL     1      50.495   9.778  12.390  0.00  0.00    +0.000 A 
ATOM      7  C   UNL     1      49.904   8.530  12.160  0.00  0.00    +0.000 A 
ATOM      8  C   UNL     1      50.533   7.625  11.293  0.00  0.00    +0.000 A 
BRANCH   3   9
ATOM      9  C   UNL     1      52.333   7.048   9.615  0.00  0.00    +0.000 C 
BRANCH   9  10
ATOM     10  N   UNL     1      53.174   6.054  10.270  0.00  0.00    +0.000 NA
ATOM     11  H   UNL     1      52.636   5.571  10.984  0.00  0.00    +0.000 HD
ATOM     12  H   UNL     1      53.934   6.533  10.752  0.00  0.00    +0.000 HD
ENDBRANCH   9  10
ENDBRANCH   3   9
ENDBRANCH   1   7
BRANCH   1  13
ATOM     13  C   UNL     1      48.684   7.402  14.062  0.00  0.00    +0.000 C 
ATOM     14  F   UNL     1      49.955   7.126  14.458  0.00  0.00    +0.000 F 
ATOM     15  F   UNL     1      48.101   8.050  15.105  0.00  0.00    +0.000 F 
ATOM     16  F   UNL     1      48.061   6.199  13.942  0.00  0.00    +0.000 F 
ENDBRANCH   1  13
BRANCH   2  17
ATOM     17  S   UNL     1      45.917   8.417  12.908  0.00  0.00    +0.000 S 
BRANCH  17  18
ATOM     18  C   UNL     1      45.366   6.856  12.259  0.00  0.00    +0.000 A 
ATOM     19  N   UNL     1      45.491   6.560  10.953  0.00  0.00    +0.000 NA
ATOM     20  C   UNL     1      45.065   5.326  10.573  0.00  0.00    +0.000 A 
ATOM     21  C   UNL     1      44.545   4.391  11.442  0.00  0.00    +0.000 A 
ATOM     22  C   UNL     1      44.433   4.806  12.746  0.00  0.00    +0.000 A 
ATOM     23  N   UNL     1      44.840   6.019  13.177  0.00  0.00    +0.000 NA
BRANCH  21  24
ATOM     24  C   UNL     1      44.124   3.063  10.966  0.00  0.00    +0.000 C 
ATOM     25  N   UNL     1      44.944   2.405  10.094  0.00  0.00    +0.000 N 
ATOM     26  O   UNL     1      43.055   2.581  11.317  0.00  0.00    +0.000 OA
ATOM     27  H   UNL     1      45.715   2.835   9.600  0.00  0.00    +0.000 HD
ATOM     28  H   UNL     1      44.589   1.534   9.713  0.00  0.00    +0.000 HD
ENDBRANCH  21  24
ENDBRANCH  17  18
ENDBRANCH   2  17
TORSDOF 7
ENDMDL
MODEL 8
REMARK VINA RESULT:    -5.877      4.914      7.955
REMARK INTER + INTRA:          -8.462
REMARK INTER:                  -8.475
REMARK INTRA:                   0.013
REMARK UNBOUND:                -0.352
REMARK  Name = 
REMARK  7 active torsions:
REMARK  status: ('A' for Active; 'I' for Inactive)
REMARK    1  A    between atoms: N_1  and  C_2
REMARK    2  A    between atoms: C_2  and  C_3
REMARK    3  A    between atoms: C_7  and  C_8
REMARK    4  A    between atoms: C_8  and  C_20
REMARK    5  A    between atoms: C_9  and  S_10
REMARK    6  A    between atoms: S_10  and  C_11
REMARK    7  A    between atoms: C_14  and  C_15
REMARK                            x       y       z     vdW  Elec       q    Type
REMARK                         _______ _______ _______ _____ _____    ______ ____
ROOT
ATOM      1  C   UNL     1      45.788   6.228  12.320  0.00  0.00    +0.000 C 
ATOM      2  C   UNL     1      46.454   5.870  13.437  0.00  0.00    +0.000 C 
ENDROOT
BRANCH   1   7
ATOM      3  C   UNL     1      44.372   9.589  11.270  0.00  0.00    +0.000 A 
ATOM      4  C   UNL     1      45.473  10.420  11.521  0.00  0.00    +0.000 A 
ATOM      5  C   UNL     1      46.666   9.883  12.000  0.00  0.00    +0.000 A 
ATOM      6  C   UNL     1      46.768   8.514  12.247  0.00  0.00    +0.000 A 
ATOM      7  C   UNL     1      45.681   7.665  12.004  0.00  0.00    +0.000 A 
ATOM      8  C   UNL     1      44.489   8.209  11.504  0.00  0.00    +0.000 A 
BRANCH   3   9
ATOM      9  C   UNL     1      43.052  10.185  10.857  0.00  0.00    +0.000 C 
BRANCH   9  10
ATOM     10  N   UNL     1      41.997   9.186  10.973  0.00  0.00    +0.000 NA
ATOM     11  H   UNL     1      41.107   9.650  11.132  0.00  0.00    +0.000 HD
ATOM     12  H   UNL     1      42.176   8.612  11.795  0.00  0.00    +0.000 HD
ENDBRANCH   9  10
ENDBRANCH   3   9
ENDBRANCH   1   7
BRANCH   1  13
ATOM     13  C   UNL     1      45.173   5.288  11.319  0.00  0.00    +0.000 C 
ATOM     14  F   UNL     1      45.358   5.673  10.028  0.00  0.00    +0.000 F 
ATOM     15  F   UNL     1      45.694   4.036  11.413  0.00  0.00    +0.000 F 
ATOM     16  F   UNL     1      43.828   5.174  11.486  0.00  0.00    +0.000 F 
ENDBRANCH   1  13
BRANCH   2  17
ATOM     17  S   UNL     1      46.701   4.210  13.873  0.00  0.00    +0.000 S 
BRANCH  17  18
ATOM     18  C   UNL     1      47.390   4.246  15.511  0.00  0.00    +0.000 A 
ATOM     19  N   UNL     1      46.995   3.372  16.454  0.00  0.00    +0.000 NA
ATOM     20  C   UNL     1      47.610   3.471  17.662  0.00  0.00    +0.000 A 
ATOM     21  C   UNL     1      48.600   4.386  17.947  0.00  0.00    +0.000 A 
ATOM     22  C   UNL     1      48.907   5.251  16.925  0.00  0.00    +0.000 A 
ATOM     23  N   UNL     1      48.327   5.197  15.708  0.00  0.00    +0.000 NA
BRANCH  21  24
ATOM     24  C   UNL     1      49.242   4.423  19.272  0.00  0.00    +0.000 C 
ATOM     25  N   UNL     1      50.603   4.319  19.328  0.00  0.00    +0.000 N 
ATOM     26  O   UNL     1      48.571   4.511  20.291  0.00  0.00    +0.000 OA
ATOM     27  H   UNL     1      51.185   4.024  18.555  0.00  0.00    +0.000 HD
ATOM     28  H   UNL     1      51.011   4.257  20.255  0.00  0.00    +0.000 HD
ENDBRANCH  21  24
ENDBRANCH  17  18
ENDBRANCH   2  17
TORSDOF 7
ENDMDL
MODEL 9
REMARK VINA RESULT:    -5.798      3.641      4.695
REMARK INTER + INTRA:          -8.354
REMARK INTER:                  -7.601
REMARK INTRA:                  -0.752
REMARK UNBOUND:                -0.352
REMARK  Name = 
REMARK  7 active torsions:
REMARK  status: ('A' for Active; 'I' for Inactive)
REMARK    1  A    between atoms: N_1  and  C_2
REMARK    2  A    between atoms: C_2  and  C_3
REMARK    3  A    between atoms: C_7  and  C_8
REMARK    4  A    between atoms: C_8  and  C_20
REMARK    5  A    between atoms: C_9  and  S_10
REMARK    6  A    between atoms: S_10  and  C_11
REMARK    7  A    between atoms: C_14  and  C_15
REMARK                            x       y       z     vdW  Elec       q    Type
REMARK                         _______ _______ _______ _____ _____    ______ ____
ROOT
ATOM      1  C   UNL     1      48.034   8.080  13.476  0.00  0.00    +0.000 C 
ATOM      2  C   UNL     1      46.707   8.289  13.612  0.00  0.00    +0.000 C 
ENDROOT
BRANCH   1   7
ATOM      3  C   UNL     1      49.630   6.423  16.495  0.00  0.00    +0.000 A 
ATOM      4  C   UNL     1      50.453   7.463  16.952  0.00  0.00    +0.000 A 
ATOM      5  C   UNL     1      50.461   8.694  16.298  0.00  0.00    +0.000 A 
ATOM      6  C   UNL     1      49.661   8.894  15.173  0.00  0.00    +0.000 A 
ATOM      7  C   UNL     1      48.833   7.870  14.698  0.00  0.00    +0.000 A 
ATOM      8  C   UNL     1      48.814   6.640  15.372  0.00  0.00    +0.000 A 
BRANCH   3   9
ATOM      9  C   UNL     1      49.704   5.063  17.135  0.00  0.00    +0.000 C 
BRANCH   9  10
ATOM     10  N   UNL     1      48.721   4.173  16.528  0.00  0.00    +0.000 NA
ATOM     11  H   UNL     1      49.165   3.629  15.793  0.00  0.00    +0.000 HD
ATOM     12  H   UNL     1      48.001   4.737  16.079  0.00  0.00    +0.000 HD
ENDBRANCH   9  10
ENDBRANCH   3   9
ENDBRANCH   1   7
BRANCH   1  13
ATOM     13  C   UNL     1      48.785   7.989  12.177  0.00  0.00    +0.000 C 
ATOM     14  F   UNL     1      48.302   7.036  11.335  0.00  0.00    +0.000 F 
ATOM     15  F   UNL     1      48.740   9.157  11.482  0.00  0.00    +0.000 F 
ATOM     16  F   UNL     1      50.098   7.689  12.366  0.00  0.00    +0.000 F 
ENDBRANCH   1  13
BRANCH   2  17
ATOM     17  S   UNL     1      45.659   8.481  12.244  0.00  0.00    +0.000 S 
BRANCH  17  18
ATOM     18  C   UNL     1      45.133   6.838  11.815  0.00  0.00    +0.000 A 
ATOM     19  N   UNL     1      45.387   6.319  10.600  0.00  0.00    +0.000 NA
ATOM     20  C   UNL     1      44.967   5.043  10.392  0.00  0.00    +0.000 A 
ATOM     21  C   UNL     1      44.329   4.278  11.345  0.00  0.00    +0.000 A 
ATOM     22  C   UNL     1      44.092   4.914  12.539  0.00  0.00    +0.000 A 
ATOM     23  N   UNL     1      44.488   6.178  12.799  0.00  0.00    +0.000 NA
BRANCH  21  24
ATOM     24  C   UNL     1      43.920   2.893  11.059  0.00  0.00    +0.000 C 
ATOM     25  N   UNL     1      44.585   2.220  10.073  0.00  0.00    +0.000 N 
ATOM     26  O   UNL     1      42.992   2.375  11.665  0.00  0.00    +0.000 OA
ATOM     27  H   UNL     1      45.197   2.656   9.396  0.00  0.00    +0.000 HD
ATOM     28  H   UNL     1      44.226   1.301   9.836  0.00  0.00    +0.000 HD
ENDBRANCH  21  24
ENDBRANCH  17  18
ENDBRANCH   2  17
TORSDOF 7
ENDMDL
