MODEL 1
REMARK VINA RESULT:    -7.257      0.000      0.000
REMARK INTER + INTRA:          -9.147
REMARK INTER:                  -8.741
REMARK INTRA:                  -0.405
REMARK UNBOUND:                -0.405
REMARK  Name = 
REMARK  4 active torsions:
REMARK  status: ('A' for Active; 'I' for Inactive)
REMARK    1  A    between atoms: N_1  and  C_2
REMARK    2  A    between atoms: C_2  and  C_3
REMARK    3  A    between atoms: C_7  and  C_8
REMARK    4  A    between atoms: C_8  and  N_9
REMARK                            x       y       z     vdW  Elec       q    Type
REMARK                         _______ _______ _______ _____ _____    ______ ____
ROOT
ATOM      1  C   UNL     1      46.717   2.546   6.847  0.00  0.00    +0.000 A 
ATOM      2  C   UNL     1      46.628   1.301   7.452  0.00  0.00    +0.000 A 
ATOM      3  N   UNL     1      45.922   1.040   8.569  0.00  0.00    +0.000 NA
ATOM      4  C   UNL     1      45.214   2.074   9.093  0.00  0.00    +0.000 A 
ATOM      5  C   UNL     1      45.190   3.356   8.561  0.00  0.00    +0.000 A 
ATOM      6  C   UNL     1      45.967   3.584   7.411  0.00  0.00    +0.000 A 
ENDROOT
BRANCH   1   7
ATOM      7  C   UNL     1      47.484   2.721   5.565  0.00  0.00    +0.000 C 
BRANCH   7   8
ATOM      8  N   UNL     1      48.569   1.749   5.435  0.00  0.00    +0.000 NA
ATOM      9  H   UNL     1      49.398   2.112   5.900  0.00  0.00    +0.000 HD
ATOM     10  H   UNL     1      48.815   1.662   4.448  0.00  0.00    +0.000 HD
ENDBRANCH   7   8
ENDBRANCH   1   7
BRANCH   5  11
ATOM     11  C   UNL     1      44.212   4.367   9.074  0.00  0.00    +0.000 C 
BRANCH  11  12
ATOM     12  N   UNL     1      44.240   4.627  10.525  0.00  0.00    +0.000 N 
ATOM     13  C   UNL     1      43.043   4.643  11.228  0.00  0.00    +0.000 A 
ATOM     14  C   UNL     1      42.794   5.971  11.492  0.00  0.00    +0.000 A 
ATOM     15  C   UNL     1      44.067   6.595  11.547  0.00  0.00    +0.000 A 
ATOM     16  C   UNL     1      44.527   7.825  12.023  0.00  0.00    +0.000 A 
ATOM     17  C   UNL     1      45.902   7.968  12.100  0.00  0.00    +0.000 A 
ATOM     18  N   UNL     1      46.805   7.054  11.676  0.00  0.00    +0.000 NA
ATOM     19  C   UNL     1      46.363   5.898  11.125  0.00  0.00    +0.000 A 
ATOM     20  C   UNL     1      44.997   5.665  11.068  0.00  0.00    +0.000 A 
ENDBRANCH  11  12
ENDBRANCH   5  11
TORSDOF 4
ENDMDL
MODEL 2
REMARK VINA RESULT:    -7.002      1.577      1.780
REMARK INTER + INTRA:          -8.840
REMARK INTER:                  -8.955
REMARK INTRA:                   0.115
REMARK UNBOUND:                -0.405
REMARK  Name = 
REMARK  4 active torsions:
REMARK  status: ('A' for Active; 'I' for Inactive)
REMARK    1  A    between atoms: N_1  and  C_2
REMARK    2  A    between atoms: C_2  and  C_3
REMARK    3  A    between atoms: C_7  and  C_8
REMARK    4  A    between atoms: C_8  and  N_9
REMARK                            x       y       z     vdW  Elec       q    Type
REMARK                         _______ _______ _______ _____ _____    ______ ____
ROOT
ATOM      1  C   UNL     1      46.828   2.627   7.375  0.00  0.00    +0.000 A 
ATOM      2  C   UNL     1      46.493   1.321   7.703  0.00  0.00    +0.000 A 
ATOM      3  N   UNL     1      45.536   0.973   8.585  0.00  0.00    +0.000 NA
ATOM      4  C   UNL     1      44.828   1.989   9.142  0.00  0.00    +0.000 A 
ATOM      5  C   UNL     1      45.040   3.334   8.869  0.00  0.00    +0.000 A 
ATOM      6  C   UNL     1      46.070   3.646   7.962  0.00  0.00    +0.000 A 
ENDROOT
BRANCH   1   7
ATOM      7  C   UNL     1      47.872   2.911   6.331  0.00  0.00    +0.000 C 
BRANCH   7   8
ATOM      8  N   UNL     1      48.494   1.686   5.827  0.00  0.00    +0.000 NA
ATOM      9  H   UNL     1      49.049   1.266   6.568  0.00  0.00    +0.000 HD
ATOM     10  H   UNL     1      49.151   1.933   5.086  0.00  0.00    +0.000 HD
ENDBRANCH   7   8
ENDBRANCH   1   7
BRANCH   5  11
ATOM     11  C   UNL     1      44.070   4.365   9.356  0.00  0.00    +0.000 C 
BRANCH  11  12
ATOM     12  N   UNL     1      43.671   4.270  10.773  0.00  0.00    +0.000 N 
ATOM     13  C   UNL     1      42.711   5.145  11.261  0.00  0.00    +0.000 A 
ATOM     14  C   UNL     1      43.405   6.055  12.027  0.00  0.00    +0.000 A 
ATOM     15  C   UNL     1      44.550   5.363  12.499  0.00  0.00    +0.000 A 
ATOM     16  C   UNL     1      45.489   5.610  13.503  0.00  0.00    +0.000 A 
ATOM     17  C   UNL     1      46.342   4.561  13.804  0.00  0.00    +0.000 A 
ATOM     18  N   UNL     1      46.381   3.377  13.151  0.00  0.00    +0.000 NA
ATOM     19  C   UNL     1      45.535   3.168  12.113  0.00  0.00    +0.000 A 
ATOM     20  C   UNL     1      44.616   4.157  11.793  0.00  0.00    +0.000 A 
ENDBRANCH  11  12
ENDBRANCH   5  11
TORSDOF 4
ENDMDL
MODEL 3
REMARK VINA RESULT:    -6.768      1.873      6.075
REMARK INTER + INTRA:          -8.558
REMARK INTER:                  -8.491
REMARK INTRA:                  -0.067
REMARK UNBOUND:                -0.405
REMARK  Name = 
REMARK  4 active torsions:
REMARK  status: ('A' for Active; 'I' for Inactive)
REMARK    1  A    between atoms: N_1  and  C_2
REMARK    2  A    between atoms: C_2  and  C_3
REMARK    3  A    between atoms: C_7  and  C_8
REMARK    4  A    between atoms: C_8  and  N_9
REMARK                            x       y       z     vdW  Elec       q    Type
REMARK                         _______ _______ _______ _____ _____    ______ ____
ROOT
ATOM      1  C   UNL     1      45.394   4.891  13.039  0.00  0.00    +0.000 A 
ATOM      2  C   UNL     1      44.027   5.088  13.179  0.00  0.00    +0.000 A 
ATOM      3  N   UNL     1      43.191   5.402  12.171  0.00  0.00    +0.000 NA
ATOM      4  C   UNL     1      43.739   5.474  10.930  0.00  0.00    +0.000 A 
ATOM      5  C   UNL     1      45.084   5.261  10.654  0.00  0.00    +0.000 A 
ATOM      6  C   UNL     1      45.919   4.965  11.745  0.00  0.00    +0.000 A 
ENDROOT
BRANCH   1   7
ATOM      7  C   UNL     1      46.232   4.483  14.219  0.00  0.00    +0.000 C 
BRANCH   7   8
ATOM      8  N   UNL     1      47.181   3.421  13.881  0.00  0.00    +0.000 NA
ATOM      9  H   UNL     1      46.939   2.581  14.400  0.00  0.00    +0.000 HD
ATOM     10  H   UNL     1      48.109   3.696  14.203  0.00  0.00    +0.000 HD
ENDBRANCH   7   8
ENDBRANCH   1   7
BRANCH   5  11
ATOM     11  C   UNL     1      45.552   5.144   9.237  0.00  0.00    +0.000 C 
BRANCH  11  12
ATOM     12  N   UNL     1      45.045   3.990   8.473  0.00  0.00    +0.000 N 
ATOM     13  C   UNL     1      44.263   3.045   9.122  0.00  0.00    +0.000 A 
ATOM     14  C   UNL     1      45.080   1.950   9.290  0.00  0.00    +0.000 A 
ATOM     15  C   UNL     1      46.016   2.003   8.225  0.00  0.00    +0.000 A 
ATOM     16  C   UNL     1      46.914   1.087   7.674  0.00  0.00    +0.000 A 
ATOM     17  C   UNL     1      47.501   1.461   6.477  0.00  0.00    +0.000 A 
ATOM     18  N   UNL     1      47.332   2.657   5.866  0.00  0.00    +0.000 NA
ATOM     19  C   UNL     1      46.534   3.586   6.447  0.00  0.00    +0.000 A 
ATOM     20  C   UNL     1      45.872   3.257   7.620  0.00  0.00    +0.000 A 
ENDBRANCH  11  12
ENDBRANCH   5  11
TORSDOF 4
ENDMDL
MODEL 4
REMARK VINA RESULT:    -6.704      1.499      1.976
REMARK INTER + INTRA:          -8.480
REMARK INTER:                  -8.388
REMARK INTRA:                  -0.092
REMARK UNBOUND:                -0.405
REMARK  Name = 
REMARK  4 active torsions:
REMARK  status: ('A' for Active; 'I' for Inactive)
REMARK    1  A    between atoms: N_1  and  C_2
REMARK    2  A    between atoms: C_2  and  C_3
REMARK    3  A    between atoms: C_7  and  C_8
REMARK    4  A    between atoms: C_8  and  N_9
REMARK                            x       y       z     vdW  Elec       q    Type
REMARK                         _______ _______ _______ _____ _____    ______ ____
ROOT
ATOM      1  C   UNL     1      46.657   1.970   7.597  0.00  0.00    +0.000 A 
ATOM      2  C   UNL     1      46.976   3.188   7.014  0.00  0.00    +0.000 A 
ATOM      3  N   UNL     1      46.337   4.348   7.263  0.00  0.00    +0.000 NA
ATOM      4  C   UNL     1      45.348   4.306   8.193  0.00  0.00    +0.000 A 
ATOM      5  C   UNL     1      44.959   3.158   8.872  0.00  0.00    +0.000 A 
ATOM      6  C   UNL     1      45.638   1.969   8.555  0.00  0.00    +0.000 A 
ENDROOT
BRANCH   1   7
ATOM      7  C   UNL     1      47.473   0.742   7.297  0.00  0.00    +0.000 C 
BRANCH   7   8
ATOM      8  N   UNL     1      46.785  -0.487   7.695  0.00  0.00    +0.000 NA
ATOM      9  H   UNL     1      46.262  -0.847   6.901  0.00  0.00    +0.000 HD
ATOM     10  H   UNL     1      46.093  -0.259   8.410  0.00  0.00    +0.000 HD
ENDBRANCH   7   8
ENDBRANCH   1   7
BRANCH   5  11
ATOM     11  C   UNL     1      44.016   3.252  10.031  0.00  0.00    +0.000 C 
BRANCH  11  12
ATOM     12  N   UNL     1      44.618   3.561  11.341  0.00  0.00    +0.000 N 
ATOM     13  C   UNL     1      43.989   3.111  12.493  0.00  0.00    +0.000 A 
ATOM     14  C   UNL     1      43.404   4.227  13.048  0.00  0.00    +0.000 A 
ATOM     15  C   UNL     1      44.203   5.324  12.634  0.00  0.00    +0.000 A 
ATOM     16  C   UNL     1      44.320   6.652  13.048  0.00  0.00    +0.000 A 
ATOM     17  C   UNL     1      45.396   7.355  12.531  0.00  0.00    +0.000 A 
ATOM     18  N   UNL     1      46.267   6.879  11.611  0.00  0.00    +0.000 NA
ATOM     19  C   UNL     1      46.101   5.621  11.136  0.00  0.00    +0.000 A 
ATOM     20  C   UNL     1      45.076   4.842  11.652  0.00  0.00    +0.000 A 
ENDBRANCH  11  12
ENDBRANCH   5  11
TORSDOF 4
ENDMDL
MODEL 5
REMARK VINA RESULT:    -6.262      2.151      6.157
REMARK INTER + INTRA:          -7.948
REMARK INTER:                  -7.547
REMARK INTRA:                  -0.401
REMARK UNBOUND:                -0.405
REMARK  Name = 
REMARK  4 active torsions:
REMARK  status: ('A' for Active; 'I' for Inactive)
REMARK    1  A    between atoms: N_1  and  C_2
REMARK    2  A    between atoms: C_2  and  C_3
REMARK    3  A    between atoms: C_7  and  C_8
REMARK    4  A    between atoms: C_8  and  N_9
REMARK                            x       y       z     vdW  Elec       q    Type
REMARK                         _______ _______ _______ _____ _____    ______ ____
ROOT
ATOM      1  C   UNL     1      48.228   7.480  12.986  0.00  0.00    +0.000 A 
ATOM      2  C   UNL     1      47.412   8.595  13.112  0.00  0.00    +0.000 A 
ATOM      3  N   UNL     1      46.069   8.579  13.003  0.00  0.00    +0.000 NA
ATOM      4  C   UNL     1      45.493   7.365  12.807  0.00  0.00    +0.000 A 
ATOM      5  C   UNL     1      46.195   6.172  12.702  0.00  0.00    +0.000 A 
ATOM      6  C   UNL     1      47.597   6.247  12.794  0.00  0.00    +0.000 A 
ENDROOT
BRANCH   1   7
ATOM      7  C   UNL     1      49.714   7.593  13.187  0.00  0.00    +0.000 C 
BRANCH   7   8
ATOM      8  N   UNL     1      50.138   7.061  14.482  0.00  0.00    +0.000 NA
ATOM      9  H   UNL     1      50.611   6.173  14.338  0.00  0.00    +0.000 HD
ATOM     10  H   UNL     1      49.308   6.853  15.039  0.00  0.00    +0.000 HD
ENDBRANCH   7   8
ENDBRANCH   1   7
BRANCH   5  11
ATOM     11  C   UNL     1      45.466   4.865  12.709  0.00  0.00    +0.000 C 
BRANCH  11  12
ATOM     12  N   UNL     1      44.461   4.670  11.648  0.00  0.00    +0.000 N 
ATOM     13  C   UNL     1      43.346   3.887  11.913  0.00  0.00    +0.000 A 
ATOM     14  C   UNL     1      43.564   2.704  11.244  0.00  0.00    +0.000 A 
ATOM     15  C   UNL     1      44.391   3.036  10.139  0.00  0.00    +0.000 A 
ATOM     16  C   UNL     1      44.746   2.379   8.959  0.00  0.00    +0.000 A 
ATOM     17  C   UNL     1      45.408   3.146   8.016  0.00  0.00    +0.000 A 
ATOM     18  N   UNL     1      45.799   4.430   8.191  0.00  0.00    +0.000 NA
ATOM     19  C   UNL     1      45.539   5.043   9.371  0.00  0.00    +0.000 A 
ATOM     20  C   UNL     1      44.830   4.349  10.340  0.00  0.00    +0.000 A 
ENDBRANCH  11  12
ENDBRANCH   5  11
TORSDOF 4
ENDMDL
MODEL 6
REMARK VINA RESULT:    -6.172      2.192      5.698
REMARK INTER + INTRA:          -7.840
REMARK INTER:                  -7.331
REMARK INTRA:                  -0.508
REMARK UNBOUND:                -0.405
REMARK  Name = 
REMARK  4 active torsions:
REMARK  status: ('A' for Active; 'I' for Inactive)
REMARK    1  A    between atoms: N_1  and  C_2
REMARK    2  A    between atoms: C_2  and  C_3
REMARK    3  A    between atoms: C_7  and  C_8
REMARK    4  A    between atoms: C_8  and  N_9
REMARK                            x       y       z     vdW  Elec       q    Type
REMARK                         _______ _______ _______ _____ _____    ______ ____
ROOT
ATOM      1  C   UNL     1      46.949   5.226  13.829  0.00  0.00    +0.000 A 
ATOM      2  C   UNL     1      47.979   5.952  13.249  0.00  0.00    +0.000 A 
ATOM      3  N   UNL     1      47.863   6.685  12.125  0.00  0.00    +0.000 NA
ATOM      4  C   UNL     1      46.626   6.743  11.566  0.00  0.00    +0.000 A 
ATOM      5  C   UNL     1      45.507   6.092  12.069  0.00  0.00    +0.000 A 
ATOM      6  C   UNL     1      45.688   5.317  13.229  0.00  0.00    +0.000 A 
ENDROOT
BRANCH   1   7
ATOM      7  C   UNL     1      47.165   4.487  15.121  0.00  0.00    +0.000 C 
BRANCH   7   8
ATOM      8  N   UNL     1      47.607   3.110  14.902  0.00  0.00    +0.000 NA
ATOM      9  H   UNL     1      48.576   3.021  15.196  0.00  0.00    +0.000 HD
ATOM     10  H   UNL     1      47.596   2.917  13.899  0.00  0.00    +0.000 HD
ENDBRANCH   7   8
ENDBRANCH   1   7
BRANCH   5  11
ATOM     11  C   UNL     1      44.149   6.391  11.516  0.00  0.00    +0.000 C 
BRANCH  11  12
ATOM     12  N   UNL     1      43.464   5.282  10.827  0.00  0.00    +0.000 N 
ATOM     13  C   UNL     1      42.624   4.454  11.557  0.00  0.00    +0.000 A 
ATOM     14  C   UNL     1      43.320   3.276  11.713  0.00  0.00    +0.000 A 
ATOM     15  C   UNL     1      44.183   3.190  10.590  0.00  0.00    +0.000 A 
ATOM     16  C   UNL     1      44.932   2.160  10.017  0.00  0.00    +0.000 A 
ATOM     17  C   UNL     1      45.477   2.429   8.773  0.00  0.00    +0.000 A 
ATOM     18  N   UNL     1      45.405   3.619   8.131  0.00  0.00    +0.000 NA
ATOM     19  C   UNL     1      44.759   4.651   8.727  0.00  0.00    +0.000 A 
ATOM     20  C   UNL     1      44.143   4.434   9.951  0.00  0.00    +0.000 A 
ENDBRANCH  11  12
ENDBRANCH   5  11
TORSDOF 4
ENDMDL
MODEL 7
REMARK VINA RESULT:    -5.971      2.562      4.374
REMARK INTER + INTRA:          -7.598
REMARK INTER:                  -7.220
REMARK INTRA:                  -0.378
REMARK UNBOUND:                -0.405
REMARK  Name = 
REMARK  4 active torsions:
REMARK  status: ('A' for Active; 'I' for Inactive)
REMARK    1  A    between atoms: N_1  and  C_2
REMARK    2  A    between atoms: C_2  and  C_3
REMARK    3  A    between atoms: C_7  and  C_8
REMARK    4  A    between atoms: C_8  and  N_9
REMARK                            x       y       z     vdW  Elec       q    Type
REMARK                         _______ _______ _______ _____ _____    ______ ____
ROOT
ATOM      1  C   UNL     1      44.258   3.454  10.634  0.00  0.00    +0.000 A 
ATOM      2  C   UNL     1      43.604   3.043  11.786  0.00  0.00    +0.000 A 
ATOM      3  N   UNL     1      43.362   3.830  12.853  0.00  0.00    +0.000 NA
ATOM      4  C   UNL     1      43.751   5.127  12.748  0.00  0.00    +0.000 A 
ATOM      5  C   UNL     1      44.381   5.669  11.636  0.00  0.00    +0.000 A 
ATOM      6  C   UNL     1      44.636   4.799  10.561  0.00  0.00    +0.000 A 
ENDROOT
BRANCH   1   7
ATOM      7  C   UNL     1      44.425   2.514   9.472  0.00  0.00    +0.000 C 
BRANCH   7   8
ATOM      8  N   UNL     1      44.393   3.214   8.188  0.00  0.00    +0.000 NA
ATOM      9  H   UNL     1      45.108   3.938   8.186  0.00  0.00    +0.000 HD
ATOM     10  H   UNL     1      43.500   3.700   8.100  0.00  0.00    +0.000 HD
ENDBRANCH   7   8
ENDBRANCH   1   7
BRANCH   5  11
ATOM     11  C   UNL     1      44.571   7.150  11.524  0.00  0.00    +0.000 C 
BRANCH  11  12
ATOM     12  N   UNL     1      45.444   7.776  12.534  0.00  0.00    +0.000 N 
ATOM     13  C   UNL     1      45.401   9.153  12.699  0.00  0.00    +0.000 A 
ATOM     14  C   UNL     1      46.558   9.625  12.121  0.00  0.00    +0.000 A 
ATOM     15  C   UNL     1      47.500   8.571  12.234  0.00  0.00    +0.000 A 
ATOM     16  C   UNL     1      48.888   8.489  12.099  0.00  0.00    +0.000 A 
ATOM     17  C   UNL     1      49.467   7.303  12.518  0.00  0.00    +0.000 A 
ATOM     18  N   UNL     1      48.789   6.217  12.958  0.00  0.00    +0.000 NA
ATOM     19  C   UNL     1      47.435   6.259  13.001  0.00  0.00    +0.000 A 
ATOM     20  C   UNL     1      46.793   7.436  12.647  0.00  0.00    +0.000 A 
ENDBRANCH  11  12
ENDBRANCH   5  11
TORSDOF 4
ENDMDL
MODEL 8
REMARK VINA RESULT:    -5.275      2.907      5.107
REMARK INTER + INTRA:          -6.760
REMARK INTER:                  -6.464
REMARK INTRA:                  -0.296
REMARK UNBOUND:                -0.405
REMARK  Name = 
REMARK  4 active torsions:
REMARK  status: ('A' for Active; 'I' for Inactive)
REMARK    1  A    between atoms: N_1  and  C_2
REMARK    2  A    between atoms: C_2  and  C_3
REMARK    3  A    between atoms: C_7  and  C_8
REMARK    4  A    between atoms: C_8  and  N_9
REMARK                            x       y       z     vdW  Elec       q    Type
REMARK                         _______ _______ _______ _____ _____    ______ ____
ROOT
ATOM      1  C   UNL     1      44.271   3.724  10.835  0.00  0.00    +0.000 A 
ATOM      2  C   UNL     1      43.087   4.228  11.354  0.00  0.00    +0.000 A 
ATOM      3  N   UNL     1      42.974   4.847  12.545  0.00  0.00    +0.000 NA
ATOM      4  C   UNL     1      44.124   5.022  13.247  0.00  0.00    +0.000 A 
ATOM      5  C   UNL     1      45.376   4.597  12.820  0.00  0.00    +0.000 A 
ATOM      6  C   UNL     1      45.435   3.932  11.583  0.00  0.00    +0.000 A 
ENDROOT
BRANCH   1   7
ATOM      7  C   UNL     1      44.303   3.104   9.465  0.00  0.00    +0.000 C 
BRANCH   7   8
ATOM      8  N   UNL     1      44.211   4.106   8.404  0.00  0.00    +0.000 NA
ATOM      9  H   UNL     1      43.513   3.810   7.726  0.00  0.00    +0.000 HD
ATOM     10  H   UNL     1      45.099   4.135   7.901  0.00  0.00    +0.000 HD
ENDBRANCH   7   8
ENDBRANCH   1   7
BRANCH   5  11
ATOM     11  C   UNL     1      46.608   5.028  13.552  0.00  0.00    +0.000 C 
BRANCH  11  12
ATOM     12  N   UNL     1      46.930   6.466  13.501  0.00  0.00    +0.000 N 
ATOM     13  C   UNL     1      46.682   7.170  12.332  0.00  0.00    +0.000 A 
ATOM     14  C   UNL     1      47.917   7.374  11.760  0.00  0.00    +0.000 A 
ATOM     15  C   UNL     1      48.838   7.398  12.839  0.00  0.00    +0.000 A 
ATOM     16  C   UNL     1      50.163   7.818  12.976  0.00  0.00    +0.000 A 
ATOM     17  C   UNL     1      50.645   7.885  14.273  0.00  0.00    +0.000 A 
ATOM     18  N   UNL     1      49.965   7.501  15.378  0.00  0.00    +0.000 NA
ATOM     19  C   UNL     1      48.711   7.004  15.240  0.00  0.00    +0.000 A 
ATOM     20  C   UNL     1      48.147   6.960  13.974  0.00  0.00    +0.000 A 
ENDBRANCH  11  12
ENDBRANCH   5  11
TORSDOF 4
ENDMDL
MODEL 9
REMARK VINA RESULT:    -5.154      2.652      4.762
REMARK INTER + INTRA:          -6.614
REMARK INTER:                  -6.229
REMARK INTRA:                  -0.384
REMARK UNBOUND:                -0.405
REMARK  Name = 
REMARK  4 active torsions:
REMARK  status: ('A' for Active; 'I' for Inactive)
REMARK    1  A    between atoms: N_1  and  C_2
REMARK    2  A    between atoms: C_2  and  C_3
REMARK    3  A    between atoms: C_7  and  C_8
REMARK    4  A    between atoms: C_8  and  N_9
REMARK                            x       y       z     vdW  Elec       q    Type
REMARK                         _______ _______ _______ _____ _____    ______ ____
ROOT
ATOM      1  C   UNL     1      44.489   3.579  10.681  0.00  0.00    +0.000 A 
ATOM      2  C   UNL     1      43.693   2.975  11.644  0.00  0.00    +0.000 A 
ATOM      3  N   UNL     1      43.552   3.417  12.909  0.00  0.00    +0.000 NA
ATOM      4  C   UNL     1      44.205   4.566  13.225  0.00  0.00    +0.000 A 
ATOM      5  C   UNL     1      45.001   5.283  12.341  0.00  0.00    +0.000 A 
ATOM      6  C   UNL     1      45.138   4.764  11.041  0.00  0.00    +0.000 A 
ENDROOT
BRANCH   1   7
ATOM      7  C   UNL     1      44.531   3.041   9.277  0.00  0.00    +0.000 C 
BRANCH   7   8
ATOM      8  N   UNL     1      44.234   4.072   8.283  0.00  0.00    +0.000 NA
ATOM      9  H   UNL     1      44.098   4.962   8.757  0.00  0.00    +0.000 HD
ATOM     10  H   UNL     1      43.343   3.851   7.836  0.00  0.00    +0.000 HD
ENDBRANCH   7   8
ENDBRANCH   1   7
BRANCH   5  11
ATOM     11  C   UNL     1      45.497   6.646  12.711  0.00  0.00    +0.000 C 
BRANCH  11  12
ATOM     12  N   UNL     1      46.954   6.858  12.624  0.00  0.00    +0.000 N 
ATOM     13  C   UNL     1      47.803   5.958  13.252  0.00  0.00    +0.000 A 
ATOM     14  C   UNL     1      48.268   6.615  14.369  0.00  0.00    +0.000 A 
ATOM     15  C   UNL     1      48.238   7.995  14.041  0.00  0.00    +0.000 A 
ATOM     16  C   UNL     1      48.807   9.140  14.603  0.00  0.00    +0.000 A 
ATOM     17  C   UNL     1      48.722  10.294  13.841  0.00  0.00    +0.000 A 
ATOM     18  N   UNL     1      48.068  10.402  12.661  0.00  0.00    +0.000 NA
ATOM     19  C   UNL     1      47.433   9.315  12.158  0.00  0.00    +0.000 A 
ATOM     20  C   UNL     1      47.525   8.113  12.843  0.00  0.00    +0.000 A 
ENDBRANCH  11  12
ENDBRANCH   5  11
TORSDOF 4
ENDMDL
