MODEL 1
REMARK VINA RESULT:    -8.707      0.000      0.000
REMARK INTER + INTRA:         -11.229
REMARK INTER:                 -10.742
REMARK INTRA:                  -0.487
REMARK UNBOUND:                -0.487
REMARK  Name = 
REMARK  4 active torsions:
REMARK  status: ('A' for Active; 'I' for Inactive)
REMARK    1  A    between atoms: C_2  and  C_4
REMARK    2  A    between atoms: C_7  and  C_8
REMARK    3  A    between atoms: C_8  and  N_9
REMARK    4  A    between atoms: C_14  and  C_15
REMARK                            x       y       z     vdW  Elec       q    Type
REMARK                         _______ _______ _______ _____ _____    ______ ____
ROOT
ATOM      1  N   UNL     1      44.266   2.866  11.889  0.00  0.00    +0.000 N 
ATOM      2  C   UNL     1      45.140   3.763  12.482  0.00  0.00    +0.000 A 
ATOM      3  N   UNL     1      46.149   3.226  13.181  0.00  0.00    +0.000 NA
ATOM      4  C   UNL     1      47.000   4.070  13.800  0.00  0.00    +0.000 A 
ATOM      5  C   UNL     1      46.888   5.431  13.741  0.00  0.00    +0.000 A 
ATOM      6  C   UNL     1      45.830   5.881  12.991  0.00  0.00    +0.000 A 
ATOM      7  N   UNL     1      44.947   5.077  12.348  0.00  0.00    +0.000 NA
ATOM      8  H   UNL     1      44.735   1.967  11.864  0.00  0.00    +0.000 HD
ENDROOT
BRANCH   6   9
ATOM      9  C   UNL     1      45.599   7.351  12.845  0.00  0.00    +0.000 C 
ATOM     10  N   UNL     1      44.484   7.703  12.135  0.00  0.00    +0.000 N 
ATOM     11  O   UNL     1      46.351   8.187  13.330  0.00  0.00    +0.000 OA
ATOM     12  H   UNL     1      43.860   6.981  11.792  0.00  0.00    +0.000 HD
ATOM     13  H   UNL     1      44.241   8.677  12.038  0.00  0.00    +0.000 HD
ENDBRANCH   6   9
BRANCH   1  14
ATOM     14  C   UNL     1      43.709   3.313  10.632  0.00  0.00    +0.000 C 
BRANCH  14  18
ATOM     15  C   UNL     1      46.556   2.614   7.448  0.00  0.00    +0.000 A 
ATOM     16  C   UNL     1      46.109   3.912   7.718  0.00  0.00    +0.000 A 
ATOM     17  C   UNL     1      45.181   4.133   8.741  0.00  0.00    +0.000 A 
ATOM     18  C   UNL     1      44.697   3.065   9.514  0.00  0.00    +0.000 A 
ATOM     19  C   UNL     1      45.130   1.765   9.219  0.00  0.00    +0.000 A 
ATOM     20  C   UNL     1      46.051   1.541   8.192  0.00  0.00    +0.000 A 
BRANCH  15  22
ATOM     21  N   UNL     1      47.523   3.139   5.271  0.00  0.00    +0.000 N 
ATOM     22  C   UNL     1      47.536   2.324   6.369  0.00  0.00    +0.000 C 
ATOM     23  O   UNL     1      48.355   1.420   6.470  0.00  0.00    +0.000 OA
ATOM     24  H   UNL     1      48.268   2.995   4.602  0.00  0.00    +0.000 HD
ATOM     25  H   UNL     1      47.053   4.032   5.265  0.00  0.00    +0.000 HD
ENDBRANCH  15  22
ENDBRANCH  14  18
ENDBRANCH   1  14
TORSDOF 4
ENDMDL
MODEL 2
REMARK VINA RESULT:    -8.049      1.449      1.808
REMARK INTER + INTRA:         -10.418
REMARK INTER:                  -9.967
REMARK INTRA:                  -0.451
REMARK UNBOUND:                -0.487
REMARK  Name = 
REMARK  4 active torsions:
REMARK  status: ('A' for Active; 'I' for Inactive)
REMARK    1  A    between atoms: C_2  and  C_4
REMARK    2  A    between atoms: C_7  and  C_8
REMARK    3  A    between atoms: C_8  and  N_9
REMARK    4  A    between atoms: C_14  and  C_15
REMARK                            x       y       z     vdW  Elec       q    Type
REMARK                         _______ _______ _______ _____ _____    ______ ____
ROOT
ATOM      1  N   UNL     1      44.522   4.355  11.699  0.00  0.00    +0.000 N 
ATOM      2  C   UNL     1      45.054   5.612  11.937  0.00  0.00    +0.000 A 
ATOM      3  N   UNL     1      46.181   5.646  12.660  0.00  0.00    +0.000 NA
ATOM      4  C   UNL     1      46.708   6.855  12.941  0.00  0.00    +0.000 A 
ATOM      5  C   UNL     1      46.158   8.034  12.518  0.00  0.00    +0.000 A 
ATOM      6  C   UNL     1      45.014   7.891  11.774  0.00  0.00    +0.000 A 
ATOM      7  N   UNL     1      44.443   6.701  11.464  0.00  0.00    +0.000 NA
ATOM      8  H   UNL     1      45.259   3.682  11.880  0.00  0.00    +0.000 HD
ENDROOT
BRANCH   6   9
ATOM      9  C   UNL     1      44.317   9.105  11.251  0.00  0.00    +0.000 C 
ATOM     10  N   UNL     1      43.056   8.893  10.762  0.00  0.00    +0.000 N 
ATOM     11  O   UNL     1      44.831  10.216  11.258  0.00  0.00    +0.000 OA
ATOM     12  H   UNL     1      42.645   7.968  10.819  0.00  0.00    +0.000 HD
ATOM     13  H   UNL     1      42.509   9.676  10.437  0.00  0.00    +0.000 HD
ENDBRANCH   6   9
BRANCH   1  14
ATOM     14  C   UNL     1      43.853   4.218  10.425  0.00  0.00    +0.000 C 
BRANCH  14  18
ATOM     15  C   UNL     1      46.640   2.707   7.478  0.00  0.00    +0.000 A 
ATOM     16  C   UNL     1      46.367   4.077   7.548  0.00  0.00    +0.000 A 
ATOM     17  C   UNL     1      45.457   4.561   8.495  0.00  0.00    +0.000 A 
ATOM     18  C   UNL     1      44.820   3.687   9.390  0.00  0.00    +0.000 A 
ATOM     19  C   UNL     1      45.080   2.312   9.294  0.00  0.00    +0.000 A 
ATOM     20  C   UNL     1      45.981   1.826   8.344  0.00  0.00    +0.000 A 
BRANCH  15  22
ATOM     21  N   UNL     1      47.885   2.902   5.390  0.00  0.00    +0.000 N 
ATOM     22  C   UNL     1      47.592   2.141   6.488  0.00  0.00    +0.000 C 
ATOM     23  O   UNL     1      48.131   1.056   6.661  0.00  0.00    +0.000 OA
ATOM     24  H   UNL     1      48.617   2.549   4.787  0.00  0.00    +0.000 HD
ATOM     25  H   UNL     1      47.671   3.887   5.341  0.00  0.00    +0.000 HD
ENDBRANCH  15  22
ENDBRANCH  14  18
ENDBRANCH   1  14
TORSDOF 4
ENDMDL
MODEL 3
REMARK VINA RESULT:    -6.576      3.376      4.833
REMARK INTER + INTRA:          -8.601
REMARK INTER:                  -8.174
REMARK INTRA:                  -0.427
REMARK UNBOUND:                -0.487
REMARK  Name = 
REMARK  4 active torsions:
REMARK  status: ('A' for Active; 'I' for Inactive)
REMARK    1  A    between atoms: C_2  and  C_4
REMARK    2  A    between atoms: C_7  and  C_8
REMARK    3  A    between atoms: C_8  and  N_9
REMARK    4  A    between atoms: C_14  and  C_15
REMARK                            x       y       z     vdW  Elec       q    Type
REMARK                         _______ _______ _______ _____ _____    ______ ____
ROOT
ATOM      1  N   UNL     1      47.723   6.408  13.480  0.00  0.00    +0.000 N 
ATOM      2  C   UNL     1      48.230   6.044  14.718  0.00  0.00    +0.000 A 
ATOM      3  N   UNL     1      49.362   6.657  15.092  0.00  0.00    +0.000 NA
ATOM      4  C   UNL     1      49.903   6.302  16.276  0.00  0.00    +0.000 A 
ATOM      5  C   UNL     1      49.351   5.366  17.106  0.00  0.00    +0.000 A 
ATOM      6  C   UNL     1      48.188   4.807  16.638  0.00  0.00    +0.000 A 
ATOM      7  N   UNL     1      47.603   5.127  15.458  0.00  0.00    +0.000 NA
ATOM      8  H   UNL     1      48.161   7.286  13.227  0.00  0.00    +0.000 HD
ENDROOT
BRANCH   6   9
ATOM      9  C   UNL     1      47.486   3.771  17.455  0.00  0.00    +0.000 C 
ATOM     10  N   UNL     1      48.104   3.429  18.627  0.00  0.00    +0.000 N 
ATOM     11  O   UNL     1      46.428   3.262  17.107  0.00  0.00    +0.000 OA
ATOM     12  H   UNL     1      48.953   3.909  18.904  0.00  0.00    +0.000 HD
ATOM     13  H   UNL     1      47.662   2.771  19.251  0.00  0.00    +0.000 HD
ENDBRANCH   6   9
BRANCH   1  14
ATOM     14  C   UNL     1      46.280   6.383  13.393  0.00  0.00    +0.000 C 
BRANCH  14  18
ATOM     15  C   UNL     1      45.020   3.779  10.174  0.00  0.00    +0.000 A 
ATOM     16  C   UNL     1      44.977   3.330  11.498  0.00  0.00    +0.000 A 
ATOM     17  C   UNL     1      45.396   4.170  12.535  0.00  0.00    +0.000 A 
ATOM     18  C   UNL     1      45.848   5.472  12.266  0.00  0.00    +0.000 A 
ATOM     19  C   UNL     1      45.913   5.904  10.933  0.00  0.00    +0.000 A 
ATOM     20  C   UNL     1      45.503   5.063   9.896  0.00  0.00    +0.000 A 
BRANCH  15  22
ATOM     21  N   UNL     1      44.209   3.556   7.884  0.00  0.00    +0.000 N 
ATOM     22  C   UNL     1      44.593   2.925   9.035  0.00  0.00    +0.000 C 
ATOM     23  O   UNL     1      44.620   1.704   9.101  0.00  0.00    +0.000 OA
ATOM     24  H   UNL     1      44.030   2.959   7.088  0.00  0.00    +0.000 HD
ATOM     25  H   UNL     1      44.416   4.528   7.704  0.00  0.00    +0.000 HD
ENDBRANCH  15  22
ENDBRANCH  14  18
ENDBRANCH   1  14
TORSDOF 4
ENDMDL
MODEL 4
REMARK VINA RESULT:    -6.475      4.784      8.185
REMARK INTER + INTRA:          -8.476
REMARK INTER:                  -8.104
REMARK INTRA:                  -0.372
REMARK UNBOUND:                -0.487
REMARK  Name = 
REMARK  4 active torsions:
REMARK  status: ('A' for Active; 'I' for Inactive)
REMARK    1  A    between atoms: C_2  and  C_4
REMARK    2  A    between atoms: C_7  and  C_8
REMARK    3  A    between atoms: C_8  and  N_9
REMARK    4  A    between atoms: C_14  and  C_15
REMARK                            x       y       z     vdW  Elec       q    Type
REMARK                         _______ _______ _______ _____ _____    ______ ____
ROOT
ATOM      1  N   UNL     1      47.224   5.041  15.769  0.00  0.00    +0.000 N 
ATOM      2  C   UNL     1      46.813   5.072  14.446  0.00  0.00    +0.000 A 
ATOM      3  N   UNL     1      47.359   6.030  13.683  0.00  0.00    +0.000 NA
ATOM      4  C   UNL     1      46.956   6.112  12.399  0.00  0.00    +0.000 A 
ATOM      5  C   UNL     1      46.035   5.268  11.842  0.00  0.00    +0.000 A 
ATOM      6  C   UNL     1      45.546   4.316  12.701  0.00  0.00    +0.000 A 
ATOM      7  N   UNL     1      45.917   4.189  13.999  0.00  0.00    +0.000 NA
ATOM      8  H   UNL     1      48.083   5.577  15.825  0.00  0.00    +0.000 HD
ENDROOT
BRANCH   6   9
ATOM      9  C   UNL     1      44.534   3.331  12.213  0.00  0.00    +0.000 C 
ATOM     10  N   UNL     1      44.730   2.870  10.939  0.00  0.00    +0.000 N 
ATOM     11  O   UNL     1      43.593   2.955  12.901  0.00  0.00    +0.000 OA
ATOM     12  H   UNL     1      45.548   3.167  10.420  0.00  0.00    +0.000 HD
ATOM     13  H   UNL     1      44.112   2.167  10.562  0.00  0.00    +0.000 HD
ENDBRANCH   6   9
BRANCH   1  14
ATOM     14  C   UNL     1      47.276   3.717  16.349  0.00  0.00    +0.000 C 
BRANCH  14  18
ATOM     15  C   UNL     1      51.301   2.866  17.693  0.00  0.00    +0.000 A 
ATOM     16  C   UNL     1      50.536   1.863  17.087  0.00  0.00    +0.000 A 
ATOM     17  C   UNL     1      49.232   2.139  16.663  0.00  0.00    +0.000 A 
ATOM     18  C   UNL     1      48.679   3.420  16.827  0.00  0.00    +0.000 A 
ATOM     19  C   UNL     1      49.444   4.411  17.460  0.00  0.00    +0.000 A 
ATOM     20  C   UNL     1      50.744   4.135  17.891  0.00  0.00    +0.000 A 
BRANCH  15  22
ATOM     21  N   UNL     1      52.988   2.985  19.451  0.00  0.00    +0.000 N 
ATOM     22  C   UNL     1      52.689   2.624  18.166  0.00  0.00    +0.000 C 
ATOM     23  O   UNL     1      53.526   2.085  17.455  0.00  0.00    +0.000 OA
ATOM     24  H   UNL     1      53.901   2.711  19.788  0.00  0.00    +0.000 HD
ATOM     25  H   UNL     1      52.275   3.186  20.137  0.00  0.00    +0.000 HD
ENDBRANCH  15  22
ENDBRANCH  14  18
ENDBRANCH   1  14
TORSDOF 4
ENDMDL
MODEL 5
REMARK VINA RESULT:    -6.390      4.758      6.675
REMARK INTER + INTRA:          -8.370
REMARK INTER:                  -7.972
REMARK INTRA:                  -0.399
REMARK UNBOUND:                -0.487
REMARK  Name = 
REMARK  4 active torsions:
REMARK  status: ('A' for Active; 'I' for Inactive)
REMARK    1  A    between atoms: C_2  and  C_4
REMARK    2  A    between atoms: C_7  and  C_8
REMARK    3  A    between atoms: C_8  and  N_9
REMARK    4  A    between atoms: C_14  and  C_15
REMARK                            x       y       z     vdW  Elec       q    Type
REMARK                         _______ _______ _______ _____ _____    ______ ____
ROOT
ATOM      1  N   UNL     1      48.206   6.635  15.619  0.00  0.00    +0.000 N 
ATOM      2  C   UNL     1      48.263   5.608  16.548  0.00  0.00    +0.000 A 
ATOM      3  N   UNL     1      47.517   5.769  17.650  0.00  0.00    +0.000 NA
ATOM      4  C   UNL     1      47.575   4.806  18.591  0.00  0.00    +0.000 A 
ATOM      5  C   UNL     1      48.342   3.679  18.471  0.00  0.00    +0.000 A 
ATOM      6  C   UNL     1      49.057   3.603  17.302  0.00  0.00    +0.000 A 
ATOM      7  N   UNL     1      49.035   4.542  16.324  0.00  0.00    +0.000 NA
ATOM      8  H   UNL     1      47.378   7.181  15.831  0.00  0.00    +0.000 HD
ENDROOT
BRANCH   6   9
ATOM      9  C   UNL     1      49.934   2.418  17.049  0.00  0.00    +0.000 C 
ATOM     10  N   UNL     1      50.949   2.237  17.948  0.00  0.00    +0.000 N 
ATOM     11  O   UNL     1      49.758   1.657  16.106  0.00  0.00    +0.000 OA
ATOM     12  H   UNL     1      51.032   2.860  18.743  0.00  0.00    +0.000 HD
ATOM     13  H   UNL     1      51.550   1.431  17.866  0.00  0.00    +0.000 HD
ENDBRANCH   6   9
BRANCH   1  14
ATOM     14  C   UNL     1      48.336   6.208  14.244  0.00  0.00    +0.000 C 
BRANCH  14  18
ATOM     15  C   UNL     1      44.426   5.614  12.486  0.00  0.00    +0.000 A 
ATOM     16  C   UNL     1      45.045   6.866  12.415  0.00  0.00    +0.000 A 
ATOM     17  C   UNL     1      46.304   7.057  12.994  0.00  0.00    +0.000 A 
ATOM     18  C   UNL     1      46.966   6.000  13.638  0.00  0.00    +0.000 A 
ATOM     19  C   UNL     1      46.326   4.755  13.728  0.00  0.00    +0.000 A 
ATOM     20  C   UNL     1      45.065   4.565  13.158  0.00  0.00    +0.000 A 
BRANCH  15  22
ATOM     21  N   UNL     1      42.232   6.421  11.790  0.00  0.00    +0.000 N 
ATOM     22  C   UNL     1      43.087   5.359  11.893  0.00  0.00    +0.000 C 
ATOM     23  O   UNL     1      42.769   4.254  11.472  0.00  0.00    +0.000 OA
ATOM     24  H   UNL     1      41.372   6.252  11.284  0.00  0.00    +0.000 HD
ATOM     25  H   UNL     1      42.542   7.377  11.881  0.00  0.00    +0.000 HD
ENDBRANCH  15  22
ENDBRANCH  14  18
ENDBRANCH   1  14
TORSDOF 4
ENDMDL
MODEL 6
REMARK VINA RESULT:    -6.362      4.831      7.970
REMARK INTER + INTRA:          -8.337
REMARK INTER:                  -7.915
REMARK INTRA:                  -0.422
REMARK UNBOUND:                -0.487
REMARK  Name = 
REMARK  4 active torsions:
REMARK  status: ('A' for Active; 'I' for Inactive)
REMARK    1  A    between atoms: C_2  and  C_4
REMARK    2  A    between atoms: C_7  and  C_8
REMARK    3  A    between atoms: C_8  and  N_9
REMARK    4  A    between atoms: C_14  and  C_15
REMARK                            x       y       z     vdW  Elec       q    Type
REMARK                         _______ _______ _______ _____ _____    ______ ____
ROOT
ATOM      1  N   UNL     1      46.973   3.901  15.684  0.00  0.00    +0.000 N 
ATOM      2  C   UNL     1      46.838   4.643  14.522  0.00  0.00    +0.000 A 
ATOM      3  N   UNL     1      45.693   4.476  13.847  0.00  0.00    +0.000 NA
ATOM      4  C   UNL     1      45.542   5.157  12.692  0.00  0.00    +0.000 A 
ATOM      5  C   UNL     1      46.488   6.007  12.189  0.00  0.00    +0.000 A 
ATOM      6  C   UNL     1      47.618   6.118  12.961  0.00  0.00    +0.000 A 
ATOM      7  N   UNL     1      47.820   5.458  14.127  0.00  0.00    +0.000 NA
ATOM      8  H   UNL     1      46.044   3.590  15.947  0.00  0.00    +0.000 HD
ENDROOT
BRANCH   6   9
ATOM      9  C   UNL     1      48.727   7.019  12.520  0.00  0.00    +0.000 C 
ATOM     10  N   UNL     1      49.775   7.129  13.393  0.00  0.00    +0.000 N 
ATOM     11  O   UNL     1      48.706   7.616  11.452  0.00  0.00    +0.000 OA
ATOM     12  H   UNL     1      49.778   6.579  14.245  0.00  0.00    +0.000 HD
ATOM     13  H   UNL     1      50.580   7.682  13.140  0.00  0.00    +0.000 HD
ENDBRANCH   6   9
BRANCH   1  14
ATOM     14  C   UNL     1      47.729   4.554  16.728  0.00  0.00    +0.000 C 
BRANCH  14  18
ATOM     15  C   UNL     1      51.344   2.327  17.565  0.00  0.00    +0.000 A 
ATOM     16  C   UNL     1      51.309   3.711  17.770  0.00  0.00    +0.000 A 
ATOM     17  C   UNL     1      50.142   4.429  17.488  0.00  0.00    +0.000 A 
ATOM     18  C   UNL     1      48.994   3.776  17.012  0.00  0.00    +0.000 A 
ATOM     19  C   UNL     1      49.048   2.393  16.785  0.00  0.00    +0.000 A 
ATOM     20  C   UNL     1      50.215   1.675  17.058  0.00  0.00    +0.000 A 
BRANCH  15  22
ATOM     21  N   UNL     1      52.377   0.217  18.222  0.00  0.00    +0.000 N 
ATOM     22  C   UNL     1      52.560   1.518  17.843  0.00  0.00    +0.000 C 
ATOM     23  O   UNL     1      53.685   1.977  17.700  0.00  0.00    +0.000 OA
ATOM     24  H   UNL     1      53.214  -0.346  18.297  0.00  0.00    +0.000 HD
ATOM     25  H   UNL     1      51.497  -0.264  18.101  0.00  0.00    +0.000 HD
ENDBRANCH  15  22
ENDBRANCH  14  18
ENDBRANCH   1  14
TORSDOF 4
ENDMDL
MODEL 7
REMARK VINA RESULT:    -6.313      3.294      6.164
REMARK INTER + INTRA:          -8.276
REMARK INTER:                  -7.960
REMARK INTRA:                  -0.316
REMARK UNBOUND:                -0.487
REMARK  Name = 
REMARK  4 active torsions:
REMARK  status: ('A' for Active; 'I' for Inactive)
REMARK    1  A    between atoms: C_2  and  C_4
REMARK    2  A    between atoms: C_7  and  C_8
REMARK    3  A    between atoms: C_8  and  N_9
REMARK    4  A    between atoms: C_14  and  C_15
REMARK                            x       y       z     vdW  Elec       q    Type
REMARK                         _______ _______ _______ _____ _____    ______ ____
ROOT
ATOM      1  N   UNL     1      45.425   5.806  13.354  0.00  0.00    +0.000 N 
ATOM      2  C   UNL     1      44.936   4.889  12.438  0.00  0.00    +0.000 A 
ATOM      3  N   UNL     1      44.206   3.886  12.943  0.00  0.00    +0.000 NA
ATOM      4  C   UNL     1      43.743   2.954  12.085  0.00  0.00    +0.000 A 
ATOM      5  C   UNL     1      43.973   2.991  10.738  0.00  0.00    +0.000 A 
ATOM      6  C   UNL     1      44.720   4.063  10.319  0.00  0.00    +0.000 A 
ATOM      7  N   UNL     1      45.209   5.026  11.138  0.00  0.00    +0.000 NA
ATOM      8  H   UNL     1      44.886   5.693  14.205  0.00  0.00    +0.000 HD
ENDROOT
BRANCH   6   9
ATOM      9  C   UNL     1      45.039   4.219   8.867  0.00  0.00    +0.000 C 
ATOM     10  N   UNL     1      44.311   3.430   8.018  0.00  0.00    +0.000 N 
ATOM     11  O   UNL     1      45.890   4.999   8.458  0.00  0.00    +0.000 OA
ATOM     12  H   UNL     1      43.581   2.833   8.391  0.00  0.00    +0.000 HD
ATOM     13  H   UNL     1      44.440   3.517   7.021  0.00  0.00    +0.000 HD
ENDBRANCH   6   9
BRANCH   1  14
ATOM     14  C   UNL     1      45.522   7.159  12.854  0.00  0.00    +0.000 C 
BRANCH  14  18
ATOM     15  C   UNL     1      49.665   8.145  12.084  0.00  0.00    +0.000 A 
ATOM     16  C   UNL     1      49.333   6.920  12.672  0.00  0.00    +0.000 A 
ATOM     17  C   UNL     1      47.993   6.609  12.929  0.00  0.00    +0.000 A 
ATOM     18  C   UNL     1      46.970   7.509  12.592  0.00  0.00    +0.000 A 
ATOM     19  C   UNL     1      47.315   8.746  12.028  0.00  0.00    +0.000 A 
ATOM     20  C   UNL     1      48.653   9.062  11.778  0.00  0.00    +0.000 A 
BRANCH  15  22
ATOM     21  N   UNL     1      51.878   7.578  11.228  0.00  0.00    +0.000 N 
ATOM     22  C   UNL     1      51.072   8.526  11.795  0.00  0.00    +0.000 C 
ATOM     23  O   UNL     1      51.491   9.655  12.014  0.00  0.00    +0.000 OA
ATOM     24  H   UNL     1      52.795   7.890  10.938  0.00  0.00    +0.000 HD
ATOM     25  H   UNL     1      51.511   6.740  10.802  0.00  0.00    +0.000 HD
ENDBRANCH  15  22
ENDBRANCH  14  18
ENDBRANCH   1  14
TORSDOF 4
ENDMDL
MODEL 8
REMARK VINA RESULT:    -6.150      4.278      6.021
REMARK INTER + INTRA:          -8.074
REMARK INTER:                  -7.752
REMARK INTRA:                  -0.323
REMARK UNBOUND:                -0.487
REMARK  Name = 
REMARK  4 active torsions:
REMARK  status: ('A' for Active; 'I' for Inactive)
REMARK    1  A    between atoms: C_2  and  C_4
REMARK    2  A    between atoms: C_7  and  C_8
REMARK    3  A    between atoms: C_8  and  N_9
REMARK    4  A    between atoms: C_14  and  C_15
REMARK                            x       y       z     vdW  Elec       q    Type
REMARK                         _______ _______ _______ _____ _____    ______ ____
ROOT
ATOM      1  N   UNL     1      47.468   3.267  15.581  0.00  0.00    +0.000 N 
ATOM      2  C   UNL     1      48.639   3.088  16.299  0.00  0.00    +0.000 A 
ATOM      3  N   UNL     1      49.296   1.941  16.076  0.00  0.00    +0.000 NA
ATOM      4  C   UNL     1      50.421   1.717  16.784  0.00  0.00    +0.000 A 
ATOM      5  C   UNL     1      50.924   2.599  17.700  0.00  0.00    +0.000 A 
ATOM      6  C   UNL     1      50.186   3.747  17.846  0.00  0.00    +0.000 A 
ATOM      7  N   UNL     1      49.049   4.021  17.161  0.00  0.00    +0.000 NA
ATOM      8  H   UNL     1      47.491   2.613  14.807  0.00  0.00    +0.000 HD
ENDROOT
BRANCH   6   9
ATOM      9  C   UNL     1      50.631   4.793  18.817  0.00  0.00    +0.000 C 
ATOM     10  N   UNL     1      51.429   4.347  19.835  0.00  0.00    +0.000 N 
ATOM     11  O   UNL     1      50.310   5.969  18.712  0.00  0.00    +0.000 OA
ATOM     12  H   UNL     1      51.714   3.373  19.860  0.00  0.00    +0.000 HD
ATOM     13  H   UNL     1      51.806   5.006  20.500  0.00  0.00    +0.000 HD
ENDBRANCH   6   9
BRANCH   1  14
ATOM     14  C   UNL     1      47.186   4.640  15.228  0.00  0.00    +0.000 C 
BRANCH  14  18
ATOM     15  C   UNL     1      45.279   4.800  11.346  0.00  0.00    +0.000 A 
ATOM     16  C   UNL     1      45.882   5.944  11.880  0.00  0.00    +0.000 A 
ATOM     17  C   UNL     1      46.488   5.892  13.139  0.00  0.00    +0.000 A 
ATOM     18  C   UNL     1      46.511   4.696  13.876  0.00  0.00    +0.000 A 
ATOM     19  C   UNL     1      45.880   3.562  13.344  0.00  0.00    +0.000 A 
ATOM     20  C   UNL     1      45.267   3.615  12.090  0.00  0.00    +0.000 A 
BRANCH  15  22
ATOM     21  N   UNL     1      45.405   5.026   8.921  0.00  0.00    +0.000 N 
ATOM     22  C   UNL     1      44.616   4.803  10.016  0.00  0.00    +0.000 C 
ATOM     23  O   UNL     1      43.421   4.574   9.892  0.00  0.00    +0.000 OA
ATOM     24  H   UNL     1      44.957   4.913   8.021  0.00  0.00    +0.000 HD
ATOM     25  H   UNL     1      46.411   4.960   8.955  0.00  0.00    +0.000 HD
ENDBRANCH  15  22
ENDBRANCH  14  18
ENDBRANCH   1  14
TORSDOF 4
ENDMDL
MODEL 9
REMARK VINA RESULT:    -6.037      4.289      7.768
REMARK INTER + INTRA:          -7.935
REMARK INTER:                  -7.591
REMARK INTRA:                  -0.344
REMARK UNBOUND:                -0.487
REMARK  Name = 
REMARK  4 active torsions:
REMARK  status: ('A' for Active; 'I' for Inactive)
REMARK    1  A    between atoms: C_2  and  C_4
REMARK    2  A    between atoms: C_7  and  C_8
REMARK    3  A    between atoms: C_8  and  N_9
REMARK    4  A    between atoms: C_14  and  C_15
REMARK                            x       y       z     vdW  Elec       q    Type
REMARK                         _______ _______ _______ _____ _____    ______ ____
ROOT
ATOM      1  N   UNL     1      47.151   3.350  14.681  0.00  0.00    +0.000 N 
ATOM      2  C   UNL     1      46.373   4.009  13.743  0.00  0.00    +0.000 A 
ATOM      3  N   UNL     1      45.697   3.230  12.887  0.00  0.00    +0.000 NA
ATOM      4  C   UNL     1      44.956   3.838  11.938  0.00  0.00    +0.000 A 
ATOM      5  C   UNL     1      44.856   5.196  11.816  0.00  0.00    +0.000 A 
ATOM      6  C   UNL     1      45.575   5.904  12.746  0.00  0.00    +0.000 A 
ATOM      7  N   UNL     1      46.334   5.343  13.719  0.00  0.00    +0.000 NA
ATOM      8  H   UNL     1      46.825   2.390  14.715  0.00  0.00    +0.000 HD
ENDROOT
BRANCH   6   9
ATOM      9  C   UNL     1      45.546   7.398  12.720  0.00  0.00    +0.000 C 
ATOM     10  N   UNL     1      44.527   7.954  11.996  0.00  0.00    +0.000 N 
ATOM     11  O   UNL     1      46.373   8.084  13.308  0.00  0.00    +0.000 OA
ATOM     12  H   UNL     1      43.833   7.353  11.565  0.00  0.00    +0.000 HD
ATOM     13  H   UNL     1      44.418   8.956  11.974  0.00  0.00    +0.000 HD
ENDBRANCH   6   9
BRANCH   1  14
ATOM     14  C   UNL     1      47.248   4.021  15.957  0.00  0.00    +0.000 C 
BRANCH  14  18
ATOM     15  C   UNL     1      51.100   3.241  17.768  0.00  0.00    +0.000 A 
ATOM     16  C   UNL     1      50.620   4.551  17.677  0.00  0.00    +0.000 A 
ATOM     17  C   UNL     1      49.379   4.801  17.082  0.00  0.00    +0.000 A 
ATOM     18  C   UNL     1      48.597   3.747  16.582  0.00  0.00    +0.000 A 
ATOM     19  C   UNL     1      49.099   2.440  16.653  0.00  0.00    +0.000 A 
ATOM     20  C   UNL     1      50.342   2.189  17.240  0.00  0.00    +0.000 A 
BRANCH  15  22
ATOM     21  N   UNL     1      52.749   1.601  18.505  0.00  0.00    +0.000 N 
ATOM     22  C   UNL     1      52.414   2.921  18.386  0.00  0.00    +0.000 C 
ATOM     23  O   UNL     1      53.190   3.799  18.738  0.00  0.00    +0.000 OA
ATOM     24  H   UNL     1      53.689   1.408  18.824  0.00  0.00    +0.000 HD
ATOM     25  H   UNL     1      52.265   0.872  18.002  0.00  0.00    +0.000 HD
ENDBRANCH  15  22
ENDBRANCH  14  18
ENDBRANCH   1  14
TORSDOF 4
ENDMDL
