MODEL 1
REMARK VINA RESULT:    -8.708      0.000      0.000
REMARK INTER + INTRA:         -12.561
REMARK INTER:                 -11.763
REMARK INTRA:                  -0.798
REMARK UNBOUND:                -0.798
REMARK  Name = 
REMARK  6 active torsions:
REMARK  status: ('A' for Active; 'I' for Inactive)
REMARK    1  A    between atoms: C_2  and  C_3
REMARK    2  A    between atoms: C_6  and  N_7
REMARK    3  A    between atoms: N_7  and  C_8
REMARK    4  A    between atoms: C_8  and  C_9
REMARK    5  A    between atoms: C_13  and  C_14
REMARK    6  A    between atoms: C_18  and  C_19
REMARK                            x       y       z     vdW  Elec       q    Type
REMARK                         _______ _______ _______ _____ _____    ______ ____
ROOT
ATOM      1  C   UNL     1      45.434   5.484  11.978  0.00  0.00    +0.000 A 
ATOM      2  C   UNL     1      45.884   6.559  11.195  0.00  0.00    +0.000 A 
ATOM      3  C   UNL     1      46.869   7.421  11.659  0.00  0.00    +0.000 A 
ATOM      4  C   UNL     1      47.451   7.199  12.907  0.00  0.00    +0.000 A 
ATOM      5  C   UNL     1      47.121   6.075  13.683  0.00  0.00    +0.000 A 
ATOM      6  C   UNL     1      46.110   5.230  13.184  0.00  0.00    +0.000 A 
ENDROOT
BRANCH   5   7
ATOM      7  C   UNL     1      47.814   5.783  14.963  0.00  0.00    +0.000 A 
ATOM      8  C   UNL     1      48.981   6.481  15.329  0.00  0.00    +0.000 A 
ATOM      9  C   UNL     1      49.670   6.197  16.511  0.00  0.00    +0.000 A 
ATOM     10  C   UNL     1      49.227   5.179  17.348  0.00  0.00    +0.000 A 
ATOM     11  C   UNL     1      48.084   4.453  17.006  0.00  0.00    +0.000 A 
ATOM     12  C   UNL     1      47.369   4.778  15.843  0.00  0.00    +0.000 A 
BRANCH  11  13
ATOM     13  C   UNL     1      47.598   3.323  17.839  0.00  0.00    +0.000 C 
ATOM     14  N   UNL     1      48.288   3.055  18.989  0.00  0.00    +0.000 N 
ATOM     15  O   UNL     1      46.655   2.622  17.492  0.00  0.00    +0.000 OA
ATOM     16  H   UNL     1      49.207   3.434  19.167  0.00  0.00    +0.000 HD
ATOM     17  H   UNL     1      48.032   2.206  19.477  0.00  0.00    +0.000 HD
ENDBRANCH  11  13
ENDBRANCH   5   7
BRANCH   1  18
ATOM     18  C   UNL     1      44.179   4.714  11.589  0.00  0.00    +0.000 C 
ATOM     19  C   UNL     1      43.454   3.905  12.647  0.00  0.00    +0.000 C 
ATOM     20  C   UNL     1      42.906   5.237  12.260  0.00  0.00    +0.000 C 
BRANCH  18  21
ATOM     21  N   UNL     1      44.049   4.419  10.168  0.00  0.00    +0.000 N 
ATOM     22  H   UNL     1      43.406   4.961   9.600  0.00  0.00    +0.000 HD
BRANCH  21  26
ATOM     23  C   UNL     1      46.613   2.579   7.547  0.00  0.00    +0.000 A 
ATOM     24  C   UNL     1      46.395   3.943   7.558  0.00  0.00    +0.000 A 
ATOM     25  N   UNL     1      45.566   4.545   8.445  0.00  0.00    +0.000 NA
ATOM     26  C   UNL     1      44.932   3.749   9.337  0.00  0.00    +0.000 A 
ATOM     27  C   UNL     1      45.155   2.372   9.316  0.00  0.00    +0.000 A 
ATOM     28  N   UNL     1      45.995   1.753   8.435  0.00  0.00    +0.000 NA
BRANCH  23  30
ATOM     29  N   UNL     1      48.239   1.567   5.800  0.00  0.00    +0.000 NA
ATOM     30  C   UNL     1      47.491   1.989   6.577  0.00  0.00    +0.000 C 
ENDBRANCH  23  30
ENDBRANCH  21  26
ENDBRANCH  18  21
ENDBRANCH   1  18
TORSDOF 6
ENDMDL
MODEL 2
REMARK VINA RESULT:    -8.671      3.307      4.525
REMARK INTER + INTRA:         -12.511
REMARK INTER:                 -11.494
REMARK INTRA:                  -1.017
REMARK UNBOUND:                -0.798
REMARK  Name = 
REMARK  6 active torsions:
REMARK  status: ('A' for Active; 'I' for Inactive)
REMARK    1  A    between atoms: C_2  and  C_3
REMARK    2  A    between atoms: C_6  and  N_7
REMARK    3  A    between atoms: N_7  and  C_8
REMARK    4  A    between atoms: C_8  and  C_9
REMARK    5  A    between atoms: C_13  and  C_14
REMARK    6  A    between atoms: C_18  and  C_19
REMARK                            x       y       z     vdW  Elec       q    Type
REMARK                         _______ _______ _______ _____ _____    ______ ____
ROOT
ATOM      1  C   UNL     1      45.148   5.294  12.210  0.00  0.00    +0.000 A 
ATOM      2  C   UNL     1      45.464   4.559  13.364  0.00  0.00    +0.000 A 
ATOM      3  C   UNL     1      46.647   4.785  14.056  0.00  0.00    +0.000 A 
ATOM      4  C   UNL     1      47.521   5.783  13.625  0.00  0.00    +0.000 A 
ATOM      5  C   UNL     1      47.202   6.625  12.546  0.00  0.00    +0.000 A 
ATOM      6  C   UNL     1      46.000   6.358  11.862  0.00  0.00    +0.000 A 
ENDROOT
BRANCH   5   7
ATOM      7  C   UNL     1      48.084   7.752  12.152  0.00  0.00    +0.000 A 
ATOM      8  C   UNL     1      47.581   9.064  12.054  0.00  0.00    +0.000 A 
ATOM      9  C   UNL     1      48.384  10.133  11.649  0.00  0.00    +0.000 A 
ATOM     10  C   UNL     1      49.711   9.913  11.297  0.00  0.00    +0.000 A 
ATOM     11  C   UNL     1      50.238   8.622  11.365  0.00  0.00    +0.000 A 
ATOM     12  C   UNL     1      49.439   7.562  11.821  0.00  0.00    +0.000 A 
BRANCH  11  13
ATOM     13  C   UNL     1      51.634   8.325  10.952  0.00  0.00    +0.000 C 
ATOM     14  N   UNL     1      51.937   7.022  10.670  0.00  0.00    +0.000 N 
ATOM     15  O   UNL     1      52.497   9.194  10.917  0.00  0.00    +0.000 OA
ATOM     16  H   UNL     1      51.334   6.257  10.939  0.00  0.00    +0.000 HD
ATOM     17  H   UNL     1      52.916   6.812  10.520  0.00  0.00    +0.000 HD
ENDBRANCH  11  13
ENDBRANCH   5   7
BRANCH   1  18
ATOM     18  C   UNL     1      43.999   4.863  11.308  0.00  0.00    +0.000 C 
ATOM     19  C   UNL     1      42.924   3.953  11.870  0.00  0.00    +0.000 C 
ATOM     20  C   UNL     1      42.638   5.411  11.746  0.00  0.00    +0.000 C 
BRANCH  18  21
ATOM     21  N   UNL     1      44.267   4.951   9.878  0.00  0.00    +0.000 N 
ATOM     22  H   UNL     1      44.061   5.810   9.381  0.00  0.00    +0.000 HD
BRANCH  21  26
ATOM     23  C   UNL     1      46.757   2.799   7.429  0.00  0.00    +0.000 A 
ATOM     24  C   UNL     1      46.711   4.179   7.434  0.00  0.00    +0.000 A 
ATOM     25  N   UNL     1      45.904   4.882   8.266  0.00  0.00    +0.000 NA
ATOM     26  C   UNL     1      45.115   4.174   9.107  0.00  0.00    +0.000 A 
ATOM     27  C   UNL     1      45.166   2.779   9.092  0.00  0.00    +0.000 A 
ATOM     28  N   UNL     1      45.982   2.059   8.267  0.00  0.00    +0.000 NA
BRANCH  23  30
ATOM     29  N   UNL     1      48.361   1.590   5.789  0.00  0.00    +0.000 NA
ATOM     30  C   UNL     1      47.621   2.103   6.518  0.00  0.00    +0.000 C 
ENDBRANCH  23  30
ENDBRANCH  21  26
ENDBRANCH  18  21
ENDBRANCH   1  18
TORSDOF 6
ENDMDL
MODEL 3
REMARK VINA RESULT:    -7.975      1.657      2.275
REMARK INTER + INTRA:         -11.571
REMARK INTER:                 -10.757
REMARK INTRA:                  -0.814
REMARK UNBOUND:                -0.798
REMARK  Name = 
REMARK  6 active torsions:
REMARK  status: ('A' for Active; 'I' for Inactive)
REMARK    1  A    between atoms: C_2  and  C_3
REMARK    2  A    between atoms: C_6  and  N_7
REMARK    3  A    between atoms: N_7  and  C_8
REMARK    4  A    between atoms: C_8  and  C_9
REMARK    5  A    between atoms: C_13  and  C_14
REMARK    6  A    between atoms: C_18  and  C_19
REMARK                            x       y       z     vdW  Elec       q    Type
REMARK                         _______ _______ _______ _____ _____    ______ ____
ROOT
ATOM      1  C   UNL     1      44.663   6.582  11.458  0.00  0.00    +0.000 A 
ATOM      2  C   UNL     1      44.143   7.836  11.098  0.00  0.00    +0.000 A 
ATOM      3  C   UNL     1      44.754   9.011  11.514  0.00  0.00    +0.000 A 
ATOM      4  C   UNL     1      45.924   8.953  12.271  0.00  0.00    +0.000 A 
ATOM      5  C   UNL     1      46.552   7.730  12.562  0.00  0.00    +0.000 A 
ATOM      6  C   UNL     1      45.896   6.559  12.133  0.00  0.00    +0.000 A 
ENDROOT
BRANCH   5   7
ATOM      7  C   UNL     1      47.851   7.673  13.278  0.00  0.00    +0.000 A 
ATOM      8  C   UNL     1      49.010   8.245  12.719  0.00  0.00    +0.000 A 
ATOM      9  C   UNL     1      50.250   8.171  13.358  0.00  0.00    +0.000 A 
ATOM     10  C   UNL     1      50.373   7.490  14.564  0.00  0.00    +0.000 A 
ATOM     11  C   UNL     1      49.248   6.894  15.138  0.00  0.00    +0.000 A 
ATOM     12  C   UNL     1      47.996   7.016  14.515  0.00  0.00    +0.000 A 
BRANCH  11  13
ATOM     13  C   UNL     1      49.334   6.112  16.399  0.00  0.00    +0.000 C 
ATOM     14  N   UNL     1      48.328   6.284  17.308  0.00  0.00    +0.000 N 
ATOM     15  O   UNL     1      50.290   5.386  16.644  0.00  0.00    +0.000 OA
ATOM     16  H   UNL     1      47.679   7.056  17.255  0.00  0.00    +0.000 HD
ATOM     17  H   UNL     1      48.464   5.852  18.213  0.00  0.00    +0.000 HD
ENDBRANCH  11  13
ENDBRANCH   5   7
BRANCH   1  18
ATOM     18  C   UNL     1      43.850   5.314  11.236  0.00  0.00    +0.000 C 
ATOM     19  C   UNL     1      43.589   4.391  12.411  0.00  0.00    +0.000 C 
ATOM     20  C   UNL     1      42.504   5.312  11.966  0.00  0.00    +0.000 C 
BRANCH  18  21
ATOM     21  N   UNL     1      43.803   4.841   9.858  0.00  0.00    +0.000 N 
ATOM     22  H   UNL     1      43.190   5.298   9.192  0.00  0.00    +0.000 HD
BRANCH  21  26
ATOM     23  C   UNL     1      46.554   2.748   7.649  0.00  0.00    +0.000 A 
ATOM     24  C   UNL     1      46.449   4.125   7.616  0.00  0.00    +0.000 A 
ATOM     25  N   UNL     1      45.554   4.810   8.369  0.00  0.00    +0.000 NA
ATOM     26  C   UNL     1      44.737   4.086   9.169  0.00  0.00    +0.000 A 
ATOM     27  C   UNL     1      44.848   2.695   9.193  0.00  0.00    +0.000 A 
ATOM     28  N   UNL     1      45.751   1.993   8.447  0.00  0.00    +0.000 NA
BRANCH  23  30
ATOM     29  N   UNL     1      48.269   1.468   6.186  0.00  0.00    +0.000 NA
ATOM     30  C   UNL     1      47.509   2.070   6.820  0.00  0.00    +0.000 C 
ENDBRANCH  23  30
ENDBRANCH  21  26
ENDBRANCH  18  21
ENDBRANCH   1  18
TORSDOF 6
ENDMDL
MODEL 4
REMARK VINA RESULT:    -7.892      3.560      4.139
REMARK INTER + INTRA:         -11.458
REMARK INTER:                 -10.715
REMARK INTRA:                  -0.743
REMARK UNBOUND:                -0.798
REMARK  Name = 
REMARK  6 active torsions:
REMARK  status: ('A' for Active; 'I' for Inactive)
REMARK    1  A    between atoms: C_2  and  C_3
REMARK    2  A    between atoms: C_6  and  N_7
REMARK    3  A    between atoms: N_7  and  C_8
REMARK    4  A    between atoms: C_8  and  C_9
REMARK    5  A    between atoms: C_13  and  C_14
REMARK    6  A    between atoms: C_18  and  C_19
REMARK                            x       y       z     vdW  Elec       q    Type
REMARK                         _______ _______ _______ _____ _____    ______ ____
ROOT
ATOM      1  C   UNL     1      44.699   6.542  11.352  0.00  0.00    +0.000 A 
ATOM      2  C   UNL     1      44.023   7.760  11.177  0.00  0.00    +0.000 A 
ATOM      3  C   UNL     1      44.620   8.967  11.519  0.00  0.00    +0.000 A 
ATOM      4  C   UNL     1      45.925   8.979  12.009  0.00  0.00    +0.000 A 
ATOM      5  C   UNL     1      46.690   7.802  12.096  0.00  0.00    +0.000 A 
ATOM      6  C   UNL     1      46.046   6.598  11.752  0.00  0.00    +0.000 A 
ENDROOT
BRANCH   5   7
ATOM      7  C   UNL     1      48.112   7.829  12.520  0.00  0.00    +0.000 A 
ATOM      8  C   UNL     1      48.460   7.838  13.884  0.00  0.00    +0.000 A 
ATOM      9  C   UNL     1      49.791   7.901  14.305  0.00  0.00    +0.000 A 
ATOM     10  C   UNL     1      50.814   7.989  13.368  0.00  0.00    +0.000 A 
ATOM     11  C   UNL     1      50.504   8.002  12.007  0.00  0.00    +0.000 A 
ATOM     12  C   UNL     1      49.168   7.888  11.591  0.00  0.00    +0.000 A 
BRANCH  11  13
ATOM     13  C   UNL     1      51.556   8.145  10.967  0.00  0.00    +0.000 C 
ATOM     14  N   UNL     1      52.156   6.999  10.525  0.00  0.00    +0.000 N 
ATOM     15  O   UNL     1      51.915   9.243  10.558  0.00  0.00    +0.000 OA
ATOM     16  H   UNL     1      52.074   6.122  11.020  0.00  0.00    +0.000 HD
ATOM     17  H   UNL     1      52.957   7.118   9.918  0.00  0.00    +0.000 HD
ENDBRANCH  11  13
ENDBRANCH   5   7
BRANCH   1  18
ATOM     18  C   UNL     1      43.954   5.219  11.237  0.00  0.00    +0.000 C 
ATOM     19  C   UNL     1      43.819   4.341  12.467  0.00  0.00    +0.000 C 
ATOM     20  C   UNL     1      42.656   5.174  12.047  0.00  0.00    +0.000 C 
BRANCH  18  21
ATOM     21  N   UNL     1      43.857   4.678   9.888  0.00  0.00    +0.000 N 
ATOM     22  H   UNL     1      43.182   5.067   9.239  0.00  0.00    +0.000 HD
BRANCH  21  26
ATOM     23  C   UNL     1      46.599   2.637   7.619  0.00  0.00    +0.000 A 
ATOM     24  C   UNL     1      46.429   4.006   7.548  0.00  0.00    +0.000 A 
ATOM     25  N   UNL     1      45.539   4.675   8.320  0.00  0.00    +0.000 NA
ATOM     26  C   UNL     1      44.793   3.942   9.180  0.00  0.00    +0.000 A 
ATOM     27  C   UNL     1      44.970   2.559   9.243  0.00  0.00    +0.000 A 
ATOM     28  N   UNL     1      45.870   1.874   8.477  0.00  0.00    +0.000 NA
BRANCH  23  30
ATOM     29  N   UNL     1      48.347   1.498   6.080  0.00  0.00    +0.000 NA
ATOM     30  C   UNL     1      47.547   1.976   6.768  0.00  0.00    +0.000 C 
ENDBRANCH  23  30
ENDBRANCH  21  26
ENDBRANCH  18  21
ENDBRANCH   1  18
TORSDOF 6
ENDMDL
MODEL 5
REMARK VINA RESULT:    -7.310      3.439      4.452
REMARK INTER + INTRA:         -10.672
REMARK INTER:                 -10.163
REMARK INTRA:                  -0.509
REMARK UNBOUND:                -0.798
REMARK  Name = 
REMARK  6 active torsions:
REMARK  status: ('A' for Active; 'I' for Inactive)
REMARK    1  A    between atoms: C_2  and  C_3
REMARK    2  A    between atoms: C_6  and  N_7
REMARK    3  A    between atoms: N_7  and  C_8
REMARK    4  A    between atoms: C_8  and  C_9
REMARK    5  A    between atoms: C_13  and  C_14
REMARK    6  A    between atoms: C_18  and  C_19
REMARK                            x       y       z     vdW  Elec       q    Type
REMARK                         _______ _______ _______ _____ _____    ______ ____
ROOT
ATOM      1  C   UNL     1      44.825   4.860  12.219  0.00  0.00    +0.000 A 
ATOM      2  C   UNL     1      45.248   3.693  12.874  0.00  0.00    +0.000 A 
ATOM      3  C   UNL     1      46.529   3.591  13.401  0.00  0.00    +0.000 A 
ATOM      4  C   UNL     1      47.402   4.675  13.313  0.00  0.00    +0.000 A 
ATOM      5  C   UNL     1      46.994   5.906  12.771  0.00  0.00    +0.000 A 
ATOM      6  C   UNL     1      45.692   5.967  12.237  0.00  0.00    +0.000 A 
ENDROOT
BRANCH   5   7
ATOM      7  C   UNL     1      47.888   7.090  12.771  0.00  0.00    +0.000 A 
ATOM      8  C   UNL     1      49.174   7.026  13.342  0.00  0.00    +0.000 A 
ATOM      9  C   UNL     1      50.017   8.139  13.387  0.00  0.00    +0.000 A 
ATOM     10  C   UNL     1      49.585   9.362  12.887  0.00  0.00    +0.000 A 
ATOM     11  C   UNL     1      48.308   9.467  12.330  0.00  0.00    +0.000 A 
ATOM     12  C   UNL     1      47.486   8.333  12.244  0.00  0.00    +0.000 A 
BRANCH  11  13
ATOM     13  C   UNL     1      47.779  10.761  11.828  0.00  0.00    +0.000 C 
ATOM     14  N   UNL     1      46.473  11.052  12.112  0.00  0.00    +0.000 N 
ATOM     15  O   UNL     1      48.458  11.515  11.143  0.00  0.00    +0.000 OA
ATOM     16  H   UNL     1      45.823  10.351  12.439  0.00  0.00    +0.000 HD
ATOM     17  H   UNL     1      46.087  11.869  11.656  0.00  0.00    +0.000 HD
ENDBRANCH  11  13
ENDBRANCH   5   7
BRANCH   1  18
ATOM     18  C   UNL     1      43.533   4.871  11.413  0.00  0.00    +0.000 C 
ATOM     19  C   UNL     1      42.296   5.514  12.012  0.00  0.00    +0.000 C 
ATOM     20  C   UNL     1      43.082   6.273  10.996  0.00  0.00    +0.000 C 
BRANCH  18  21
ATOM     21  N   UNL     1      43.447   3.860  10.366  0.00  0.00    +0.000 N 
ATOM     22  H   UNL     1      42.537   3.552  10.040  0.00  0.00    +0.000 HD
BRANCH  21  26
ATOM     23  C   UNL     1      46.364   2.586   7.779  0.00  0.00    +0.000 A 
ATOM     24  C   UNL     1      45.664   1.731   8.608  0.00  0.00    +0.000 A 
ATOM     25  N   UNL     1      44.683   2.158   9.441  0.00  0.00    +0.000 NA
ATOM     26  C   UNL     1      44.410   3.483   9.445  0.00  0.00    +0.000 A 
ATOM     27  C   UNL     1      45.125   4.340   8.607  0.00  0.00    +0.000 A 
ATOM     28  N   UNL     1      46.108   3.922   7.756  0.00  0.00    +0.000 NA
BRANCH  23  30
ATOM     29  N   UNL     1      48.268   1.740   6.236  0.00  0.00    +0.000 NA
ATOM     30  C   UNL     1      47.403   2.084   6.926  0.00  0.00    +0.000 C 
ENDBRANCH  23  30
ENDBRANCH  21  26
ENDBRANCH  18  21
ENDBRANCH   1  18
TORSDOF 6
ENDMDL
MODEL 6
REMARK VINA RESULT:    -7.298      2.754      3.679
REMARK INTER + INTRA:         -10.656
REMARK INTER:                 -10.141
REMARK INTRA:                  -0.514
REMARK UNBOUND:                -0.798
REMARK  Name = 
REMARK  6 active torsions:
REMARK  status: ('A' for Active; 'I' for Inactive)
REMARK    1  A    between atoms: C_2  and  C_3
REMARK    2  A    between atoms: C_6  and  N_7
REMARK    3  A    between atoms: N_7  and  C_8
REMARK    4  A    between atoms: C_8  and  C_9
REMARK    5  A    between atoms: C_13  and  C_14
REMARK    6  A    between atoms: C_18  and  C_19
REMARK                            x       y       z     vdW  Elec       q    Type
REMARK                         _______ _______ _______ _____ _____    ______ ____
ROOT
ATOM      1  C   UNL     1      44.887   4.783  12.218  0.00  0.00    +0.000 A 
ATOM      2  C   UNL     1      45.244   3.622  12.923  0.00  0.00    +0.000 A 
ATOM      3  C   UNL     1      46.517   3.472  13.456  0.00  0.00    +0.000 A 
ATOM      4  C   UNL     1      47.449   4.502  13.326  0.00  0.00    +0.000 A 
ATOM      5  C   UNL     1      47.110   5.729  12.731  0.00  0.00    +0.000 A 
ATOM      6  C   UNL     1      45.814   5.840  12.191  0.00  0.00    +0.000 A 
ENDROOT
BRANCH   5   7
ATOM      7  C   UNL     1      48.069   6.861  12.684  0.00  0.00    +0.000 A 
ATOM      8  C   UNL     1      48.124   7.716  11.566  0.00  0.00    +0.000 A 
ATOM      9  C   UNL     1      49.045   8.764  11.484  0.00  0.00    +0.000 A 
ATOM     10  C   UNL     1      49.961   8.968  12.510  0.00  0.00    +0.000 A 
ATOM     11  C   UNL     1      49.947   8.127  13.625  0.00  0.00    +0.000 A 
ATOM     12  C   UNL     1      48.988   7.108  13.722  0.00  0.00    +0.000 A 
BRANCH  11  13
ATOM     13  C   UNL     1      50.938   8.270  14.723  0.00  0.00    +0.000 C 
ATOM     14  N   UNL     1      51.440   7.118  15.263  0.00  0.00    +0.000 N 
ATOM     15  O   UNL     1      51.254   9.366  15.170  0.00  0.00    +0.000 OA
ATOM     16  H   UNL     1      51.013   6.217  15.104  0.00  0.00    +0.000 HD
ATOM     17  H   UNL     1      52.009   7.224  16.093  0.00  0.00    +0.000 HD
ENDBRANCH  11  13
ENDBRANCH   5   7
BRANCH   1  18
ATOM     18  C   UNL     1      43.597   4.831  11.408  0.00  0.00    +0.000 C 
ATOM     19  C   UNL     1      42.367   5.474  12.021  0.00  0.00    +0.000 C 
ATOM     20  C   UNL     1      43.165   6.250  11.028  0.00  0.00    +0.000 C 
BRANCH  18  21
ATOM     21  N   UNL     1      43.503   3.850  10.335  0.00  0.00    +0.000 N 
ATOM     22  H   UNL     1      42.591   3.572   9.989  0.00  0.00    +0.000 HD
BRANCH  21  26
ATOM     23  C   UNL     1      46.431   2.580   7.758  0.00  0.00    +0.000 A 
ATOM     24  C   UNL     1      45.733   1.725   8.589  0.00  0.00    +0.000 A 
ATOM     25  N   UNL     1      44.749   2.150   9.418  0.00  0.00    +0.000 NA
ATOM     26  C   UNL     1      44.469   3.474   9.417  0.00  0.00    +0.000 A 
ATOM     27  C   UNL     1      45.182   4.331   8.577  0.00  0.00    +0.000 A 
ATOM     28  N   UNL     1      46.169   3.914   7.730  0.00  0.00    +0.000 NA
BRANCH  23  30
ATOM     29  N   UNL     1      48.342   1.737   6.222  0.00  0.00    +0.000 NA
ATOM     30  C   UNL     1      47.475   2.080   6.909  0.00  0.00    +0.000 C 
ENDBRANCH  23  30
ENDBRANCH  21  26
ENDBRANCH  18  21
ENDBRANCH   1  18
TORSDOF 6
ENDMDL
MODEL 7
REMARK VINA RESULT:    -6.987      3.156      8.220
REMARK INTER + INTRA:         -10.236
REMARK INTER:                  -9.490
REMARK INTRA:                  -0.746
REMARK UNBOUND:                -0.798
REMARK  Name = 
REMARK  6 active torsions:
REMARK  status: ('A' for Active; 'I' for Inactive)
REMARK    1  A    between atoms: C_2  and  C_3
REMARK    2  A    between atoms: C_6  and  N_7
REMARK    3  A    between atoms: N_7  and  C_8
REMARK    4  A    between atoms: C_8  and  C_9
REMARK    5  A    between atoms: C_13  and  C_14
REMARK    6  A    between atoms: C_18  and  C_19
REMARK                            x       y       z     vdW  Elec       q    Type
REMARK                         _______ _______ _______ _____ _____    ______ ____
ROOT
ATOM      1  C   UNL     1      47.085   7.807  12.259  0.00  0.00    +0.000 A 
ATOM      2  C   UNL     1      46.057   8.748  12.430  0.00  0.00    +0.000 A 
ATOM      3  C   UNL     1      44.806   8.554  11.858  0.00  0.00    +0.000 A 
ATOM      4  C   UNL     1      44.549   7.390  11.133  0.00  0.00    +0.000 A 
ATOM      5  C   UNL     1      45.503   6.363  11.027  0.00  0.00    +0.000 A 
ATOM      6  C   UNL     1      46.763   6.601  11.610  0.00  0.00    +0.000 A 
ENDROOT
BRANCH   5   7
ATOM      7  C   UNL     1      45.194   5.082  10.344  0.00  0.00    +0.000 A 
ATOM      8  C   UNL     1      44.331   4.138  10.932  0.00  0.00    +0.000 A 
ATOM      9  C   UNL     1      44.056   2.911  10.325  0.00  0.00    +0.000 A 
ATOM     10  C   UNL     1      44.666   2.578   9.120  0.00  0.00    +0.000 A 
ATOM     11  C   UNL     1      45.542   3.483   8.517  0.00  0.00    +0.000 A 
ATOM     12  C   UNL     1      45.774   4.734   9.109  0.00  0.00    +0.000 A 
BRANCH  11  13
ATOM     13  C   UNL     1      46.258   3.155   7.257  0.00  0.00    +0.000 C 
ATOM     14  N   UNL     1      46.781   1.897   7.147  0.00  0.00    +0.000 N 
ATOM     15  O   UNL     1      46.426   3.987   6.374  0.00  0.00    +0.000 OA
ATOM     16  H   UNL     1      46.890   1.286   7.944  0.00  0.00    +0.000 HD
ATOM     17  H   UNL     1      47.377   1.728   6.346  0.00  0.00    +0.000 HD
ENDBRANCH  11  13
ENDBRANCH   5   7
BRANCH   1  18
ATOM     18  C   UNL     1      48.518   8.145  12.650  0.00  0.00    +0.000 C 
ATOM     19  C   UNL     1      49.643   7.798  11.693  0.00  0.00    +0.000 C 
ATOM     20  C   UNL     1      49.162   9.208  11.756  0.00  0.00    +0.000 C 
BRANCH  18  21
ATOM     21  N   UNL     1      48.745   8.322  14.078  0.00  0.00    +0.000 N 
ATOM     22  H   UNL     1      48.684   9.249  14.484  0.00  0.00    +0.000 HD
BRANCH  21  26
ATOM     23  C   UNL     1      48.719   5.622  17.166  0.00  0.00    +0.000 A 
ATOM     24  C   UNL     1      49.102   6.940  17.319  0.00  0.00    +0.000 A 
ATOM     25  N   UNL     1      49.083   7.832  16.298  0.00  0.00    +0.000 NA
ATOM     26  C   UNL     1      48.676   7.379  15.090  0.00  0.00    +0.000 A 
ATOM     27  C   UNL     1      48.293   6.045  14.944  0.00  0.00    +0.000 A 
ATOM     28  N   UNL     1      48.299   5.139  15.966  0.00  0.00    +0.000 NA
BRANCH  23  30
ATOM     29  N   UNL     1      48.752   4.000  19.189  0.00  0.00    +0.000 NA
ATOM     30  C   UNL     1      48.772   4.715  18.277  0.00  0.00    +0.000 C 
ENDBRANCH  23  30
ENDBRANCH  21  26
ENDBRANCH  18  21
ENDBRANCH   1  18
TORSDOF 6
ENDMDL
MODEL 8
REMARK VINA RESULT:    -6.946      2.840      7.889
REMARK INTER + INTRA:         -10.181
REMARK INTER:                  -9.235
REMARK INTRA:                  -0.945
REMARK UNBOUND:                -0.798
REMARK  Name = 
REMARK  6 active torsions:
REMARK  status: ('A' for Active; 'I' for Inactive)
REMARK    1  A    between atoms: C_2  and  C_3
REMARK    2  A    between atoms: C_6  and  N_7
REMARK    3  A    between atoms: N_7  and  C_8
REMARK    4  A    between atoms: C_8  and  C_9
REMARK    5  A    between atoms: C_13  and  C_14
REMARK    6  A    between atoms: C_18  and  C_19
REMARK                            x       y       z     vdW  Elec       q    Type
REMARK                         _______ _______ _______ _____ _____    ______ ____
ROOT
ATOM      1  C   UNL     1      48.527   7.950  14.381  0.00  0.00    +0.000 A 
ATOM      2  C   UNL     1      49.500   8.372  13.460  0.00  0.00    +0.000 A 
ATOM      3  C   UNL     1      49.422   8.013  12.121  0.00  0.00    +0.000 A 
ATOM      4  C   UNL     1      48.344   7.253  11.669  0.00  0.00    +0.000 A 
ATOM      5  C   UNL     1      47.283   6.901  12.522  0.00  0.00    +0.000 A 
ATOM      6  C   UNL     1      47.403   7.272  13.875  0.00  0.00    +0.000 A 
ENDROOT
BRANCH   5   7
ATOM      7  C   UNL     1      46.087   6.181  12.018  0.00  0.00    +0.000 A 
ATOM      8  C   UNL     1      44.974   5.957  12.851  0.00  0.00    +0.000 A 
ATOM      9  C   UNL     1      43.853   5.250  12.409  0.00  0.00    +0.000 A 
ATOM     10  C   UNL     1      43.827   4.716  11.126  0.00  0.00    +0.000 A 
ATOM     11  C   UNL     1      44.922   4.903  10.279  0.00  0.00    +0.000 A 
ATOM     12  C   UNL     1      46.023   5.657  10.713  0.00  0.00    +0.000 A 
BRANCH  11  13
ATOM     13  C   UNL     1      44.966   4.311   8.917  0.00  0.00    +0.000 C 
ATOM     14  N   UNL     1      44.187   3.210   8.691  0.00  0.00    +0.000 N 
ATOM     15  O   UNL     1      45.706   4.749   8.045  0.00  0.00    +0.000 OA
ATOM     16  H   UNL     1      43.777   2.675   9.443  0.00  0.00    +0.000 HD
ATOM     17  H   UNL     1      44.325   2.739   7.805  0.00  0.00    +0.000 HD
ENDBRANCH  11  13
ENDBRANCH   5   7
BRANCH   1  18
ATOM     18  C   UNL     1      48.756   8.111  15.878  0.00  0.00    +0.000 C 
ATOM     19  C   UNL     1      49.858   9.036  16.359  0.00  0.00    +0.000 C 
ATOM     20  C   UNL     1      48.447   9.517  16.397  0.00  0.00    +0.000 C 
BRANCH  18  21
ATOM     21  N   UNL     1      48.245   7.024  16.703  0.00  0.00    +0.000 N 
ATOM     22  H   UNL     1      47.274   7.029  16.993  0.00  0.00    +0.000 HD
BRANCH  21  26
ATOM     23  C   UNL     1      49.982   3.337  17.175  0.00  0.00    +0.000 A 
ATOM     24  C   UNL     1      50.603   4.516  17.538  0.00  0.00    +0.000 A 
ATOM     25  N   UNL     1      50.011   5.728  17.402  0.00  0.00    +0.000 NA
ATOM     26  C   UNL     1      48.764   5.751  16.878  0.00  0.00    +0.000 A 
ATOM     27  C   UNL     1      48.145   4.555  16.511  0.00  0.00    +0.000 A 
ATOM     28  N   UNL     1      48.727   3.327  16.651  0.00  0.00    +0.000 NA
BRANCH  23  30
ATOM     29  N   UNL     1      51.175   1.046  17.395  0.00  0.00    +0.000 NA
ATOM     30  C   UNL     1      50.659   2.081  17.327  0.00  0.00    +0.000 C 
ENDBRANCH  23  30
ENDBRANCH  21  26
ENDBRANCH  18  21
ENDBRANCH   1  18
TORSDOF 6
ENDMDL
MODEL 9
REMARK VINA RESULT:    -6.894      3.070      8.211
REMARK INTER + INTRA:         -10.110
REMARK INTER:                  -9.403
REMARK INTRA:                  -0.707
REMARK UNBOUND:                -0.798
REMARK  Name = 
REMARK  6 active torsions:
REMARK  status: ('A' for Active; 'I' for Inactive)
REMARK    1  A    between atoms: C_2  and  C_3
REMARK    2  A    between atoms: C_6  and  N_7
REMARK    3  A    between atoms: N_7  and  C_8
REMARK    4  A    between atoms: C_8  and  C_9
REMARK    5  A    between atoms: C_13  and  C_14
REMARK    6  A    between atoms: C_18  and  C_19
REMARK                            x       y       z     vdW  Elec       q    Type
REMARK                         _______ _______ _______ _____ _____    ______ ____
ROOT
ATOM      1  C   UNL     1      47.986   7.752  12.763  0.00  0.00    +0.000 A 
ATOM      2  C   UNL     1      47.276   8.931  13.042  0.00  0.00    +0.000 A 
ATOM      3  C   UNL     1      45.899   8.996  12.872  0.00  0.00    +0.000 A 
ATOM      4  C   UNL     1      45.199   7.865  12.454  0.00  0.00    +0.000 A 
ATOM      5  C   UNL     1      45.841   6.628  12.271  0.00  0.00    +0.000 A 
ATOM      6  C   UNL     1      47.239   6.604  12.441  0.00  0.00    +0.000 A 
ENDROOT
BRANCH   5   7
ATOM      7  C   UNL     1      45.081   5.401  11.925  0.00  0.00    +0.000 A 
ATOM      8  C   UNL     1      44.217   4.798  12.860  0.00  0.00    +0.000 A 
ATOM      9  C   UNL     1      43.521   3.622  12.569  0.00  0.00    +0.000 A 
ATOM     10  C   UNL     1      43.695   2.995  11.340  0.00  0.00    +0.000 A 
ATOM     11  C   UNL     1      44.559   3.555  10.397  0.00  0.00    +0.000 A 
ATOM     12  C   UNL     1      45.216   4.763  10.677  0.00  0.00    +0.000 A 
BRANCH  11  13
ATOM     13  C   UNL     1      44.819   2.899   9.089  0.00  0.00    +0.000 C 
ATOM     14  N   UNL     1      44.348   3.530   7.971  0.00  0.00    +0.000 N 
ATOM     15  O   UNL     1      45.380   1.813   9.011  0.00  0.00    +0.000 OA
ATOM     16  H   UNL     1      43.666   4.273   8.018  0.00  0.00    +0.000 HD
ATOM     17  H   UNL     1      44.414   3.012   7.104  0.00  0.00    +0.000 HD
ENDBRANCH  11  13
ENDBRANCH   5   7
BRANCH   1  18
ATOM     18  C   UNL     1      49.507   7.762  12.688  0.00  0.00    +0.000 C 
ATOM     19  C   UNL     1      50.177   7.706  11.328  0.00  0.00    +0.000 C 
ATOM     20  C   UNL     1      50.079   9.020  12.027  0.00  0.00    +0.000 C 
BRANCH  18  21
ATOM     21  N   UNL     1      50.190   7.340  13.903  0.00  0.00    +0.000 N 
ATOM     22  H   UNL     1      51.204   7.349  13.937  0.00  0.00    +0.000 HD
BRANCH  21  26
ATOM     23  C   UNL     1      48.584   6.952  17.658  0.00  0.00    +0.000 A 
ATOM     24  C   UNL     1      48.751   5.887  16.794  0.00  0.00    +0.000 A 
ATOM     25  N   UNL     1      49.307   6.021  15.566  0.00  0.00    +0.000 NA
ATOM     26  C   UNL     1      49.695   7.263  15.194  0.00  0.00    +0.000 A 
ATOM     27  C   UNL     1      49.519   8.333  16.072  0.00  0.00    +0.000 A 
ATOM     28  N   UNL     1      48.969   8.211  17.316  0.00  0.00    +0.000 NA
BRANCH  23  30
ATOM     29  N   UNL     1      47.443   6.651  19.967  0.00  0.00    +0.000 NA
ATOM     30  C   UNL     1      47.976   6.759  18.944  0.00  0.00    +0.000 C 
ENDBRANCH  23  30
ENDBRANCH  21  26
ENDBRANCH  18  21
ENDBRANCH   1  18
TORSDOF 6
ENDMDL
