MODEL 1
REMARK VINA RESULT:    -8.113      0.000      0.000
REMARK INTER + INTRA:         -11.357
REMARK INTER:                 -10.958
REMARK INTRA:                  -0.398
REMARK UNBOUND:                -0.398
REMARK  Name = 
REMARK  7 active torsions:
REMARK  status: ('A' for Active; 'I' for Inactive)
REMARK    1  A    between atoms: C_1  and  C_2
REMARK    2  A    between atoms: C_2  and  N_3
REMARK    3  A    between atoms: C_2  and  C_26
REMARK    4  A    between atoms: C_4  and  C_6
REMARK    5  A    between atoms: C_9  and  C_10
REMARK    6  A    between atoms: C_10  and  N_11
REMARK    7  A    between atoms: C_12  and  C_14
REMARK                            x       y       z     vdW  Elec       q    Type
REMARK                         _______ _______ _______ _____ _____    ______ ____
ROOT
ATOM      1  C   UNL     1      46.784   5.062  13.345  0.00  0.00    +0.000 A 
ATOM      2  C   UNL     1      47.447   6.221  12.952  0.00  0.00    +0.000 A 
ATOM      3  C   UNL     1      48.323   6.846  13.845  0.00  0.00    +0.000 A 
ATOM      4  C   UNL     1      48.508   6.299  15.115  0.00  0.00    +0.000 A 
ATOM      5  N   UNL     1      47.903   5.146  15.496  0.00  0.00    +0.000 NA
ATOM      6  C   UNL     1      47.049   4.564  14.615  0.00  0.00    +0.000 A 
ENDROOT
BRANCH   1   8
ATOM      7  N   UNL     1      45.164   5.182  11.519  0.00  0.00    +0.000 N 
ATOM      8  C   UNL     1      45.738   4.420  12.515  0.00  0.00    +0.000 C 
ATOM      9  O   UNL     1      45.412   3.263  12.737  0.00  0.00    +0.000 OA
ATOM     10  H   UNL     1      45.518   6.102  11.298  0.00  0.00    +0.000 HD
BRANCH   7  12
ATOM     11  C   UNL     1      43.044   3.928  11.561  0.00  0.00    +0.000 C 
ATOM     12  C   UNL     1      44.076   4.662  10.705  0.00  0.00    +0.000 C 
BRANCH  12  13
ATOM     13  C   UNL     1      44.614   3.723   9.663  0.00  0.00    +0.000 A 
ATOM     14  N   UNL     1      45.205   4.050   8.527  0.00  0.00    +0.000 NA
ATOM     15  C   UNL     1      45.702   2.884   8.013  0.00  0.00    +0.000 A 
ATOM     16  C   UNL     1      45.372   1.819   8.816  0.00  0.00    +0.000 A 
ATOM     17  N   UNL     1      44.652   2.361   9.849  0.00  0.00    +0.000 N 
ATOM     18  H   UNL     1      44.255   1.865  10.637  0.00  0.00    +0.000 HD
ENDBRANCH  12  13
ENDBRANCH   7  12
ENDBRANCH   1   8
BRANCH   4  19
ATOM     19  C   UNL     1      49.357   7.012  16.146  0.00  0.00    +0.000 C 
BRANCH  19  20
ATOM     20  N   UNL     1      50.405   6.183  16.688  0.00  0.00    +0.000 N 
ATOM     21  C   UNL     1      50.285   5.520  17.875  0.00  0.00    +0.000 C 
ATOM     22  O   UNL     1      49.278   5.606  18.582  0.00  0.00    +0.000 OA
ATOM     23  H   UNL     1      51.334   6.359  16.317  0.00  0.00    +0.000 HD
BRANCH  21  24
ATOM     24  C   UNL     1      51.404   4.640  18.229  0.00  0.00    +0.000 A 
ATOM     25  C   UNL     1      52.496   5.140  18.933  0.00  0.00    +0.000 A 
ATOM     26  S   UNL     1      53.673   3.956  19.285  0.00  0.00    +0.000 S 
ATOM     27  C   UNL     1      52.789   2.749  18.475  0.00  0.00    +0.000 A 
ATOM     28  N   UNL     1      53.264   1.476  18.368  0.00  0.00    +0.000 NA
ATOM     29  C   UNL     1      52.505   0.679  17.693  0.00  0.00    +0.000 A 
ATOM     30  N   UNL     1      51.307   1.032  17.124  0.00  0.00    +0.000 N 
ATOM     31  C   UNL     1      50.760   2.281  17.270  0.00  0.00    +0.000 A 
ATOM     32  O   UNL     1      49.634   2.532  16.850  0.00  0.00    +0.000 OA
ATOM     33  C   UNL     1      51.593   3.231  17.975  0.00  0.00    +0.000 A 
ATOM     34  H   UNL     1      50.744   0.353  16.635  0.00  0.00    +0.000 HD
ENDBRANCH  21  24
ENDBRANCH  19  20
ENDBRANCH   4  19
TORSDOF 6
ENDMDL
MODEL 2
REMARK VINA RESULT:    -7.887      3.207      9.900
REMARK INTER + INTRA:         -11.052
REMARK INTER:                 -10.252
REMARK INTRA:                  -0.800
REMARK UNBOUND:                -0.398
REMARK  Name = 
REMARK  7 active torsions:
REMARK  status: ('A' for Active; 'I' for Inactive)
REMARK    1  A    between atoms: C_1  and  C_2
REMARK    2  A    between atoms: C_2  and  N_3
REMARK    3  A    between atoms: C_2  and  C_26
REMARK    4  A    between atoms: C_4  and  C_6
REMARK    5  A    between atoms: C_9  and  C_10
REMARK    6  A    between atoms: C_10  and  N_11
REMARK    7  A    between atoms: C_12  and  C_14
REMARK                            x       y       z     vdW  Elec       q    Type
REMARK                         _______ _______ _______ _____ _____    ______ ____
ROOT
ATOM      1  C   UNL     1      51.282   2.821  17.664  0.00  0.00    +0.000 A 
ATOM      2  C   UNL     1      50.541   1.843  17.005  0.00  0.00    +0.000 A 
ATOM      3  C   UNL     1      49.193   2.083  16.720  0.00  0.00    +0.000 A 
ATOM      4  C   UNL     1      48.617   3.292  17.107  0.00  0.00    +0.000 A 
ATOM      5  N   UNL     1      49.339   4.271  17.710  0.00  0.00    +0.000 NA
ATOM      6  C   UNL     1      50.643   4.011  17.985  0.00  0.00    +0.000 A 
ENDROOT
BRANCH   1   8
ATOM      7  N   UNL     1      53.359   1.534  17.571  0.00  0.00    +0.000 N 
ATOM      8  C   UNL     1      52.671   2.592  18.127  0.00  0.00    +0.000 C 
ATOM      9  O   UNL     1      53.155   3.325  18.978  0.00  0.00    +0.000 OA
ATOM     10  H   UNL     1      52.968   1.005  16.804  0.00  0.00    +0.000 HD
BRANCH   7  12
ATOM     11  C   UNL     1      55.697   1.221  16.862  0.00  0.00    +0.000 C 
ATOM     12  C   UNL     1      54.699   1.186  18.019  0.00  0.00    +0.000 C 
BRANCH  12  13
ATOM     13  C   UNL     1      54.698  -0.184  18.634  0.00  0.00    +0.000 A 
ATOM     14  N   UNL     1      55.635  -0.711  19.402  0.00  0.00    +0.000 NA
ATOM     15  C   UNL     1      55.111  -1.879  19.885  0.00  0.00    +0.000 A 
ATOM     16  C   UNL     1      53.856  -2.099  19.369  0.00  0.00    +0.000 A 
ATOM     17  N   UNL     1      53.615  -1.027  18.549  0.00  0.00    +0.000 N 
ATOM     18  H   UNL     1      52.777  -0.853  18.009  0.00  0.00    +0.000 HD
ENDBRANCH  12  13
ENDBRANCH   7  12
ENDBRANCH   1   8
BRANCH   4  19
ATOM     19  C   UNL     1      47.135   3.537  16.918  0.00  0.00    +0.000 C 
BRANCH  19  20
ATOM     20  N   UNL     1      46.848   4.489  15.875  0.00  0.00    +0.000 N 
ATOM     21  C   UNL     1      46.874   4.165  14.549  0.00  0.00    +0.000 C 
ATOM     22  O   UNL     1      47.170   3.037  14.149  0.00  0.00    +0.000 OA
ATOM     23  H   UNL     1      46.934   5.465  16.142  0.00  0.00    +0.000 HD
BRANCH  21  24
ATOM     24  C   UNL     1      46.458   5.227  13.626  0.00  0.00    +0.000 A 
ATOM     25  C   UNL     1      47.327   6.268  13.313  0.00  0.00    +0.000 A 
ATOM     26  S   UNL     1      46.677   7.379  12.194  0.00  0.00    +0.000 S 
ATOM     27  C   UNL     1      45.202   6.536  12.121  0.00  0.00    +0.000 A 
ATOM     28  N   UNL     1      44.169   6.985  11.355  0.00  0.00    +0.000 NA
ATOM     29  C   UNL     1      43.098   6.265  11.428  0.00  0.00    +0.000 A 
ATOM     30  N   UNL     1      42.969   5.130  12.188  0.00  0.00    +0.000 N 
ATOM     31  C   UNL     1      44.006   4.605  12.915  0.00  0.00    +0.000 A 
ATOM     32  O   UNL     1      43.895   3.526  13.490  0.00  0.00    +0.000 OA
ATOM     33  C   UNL     1      45.216   5.400  12.910  0.00  0.00    +0.000 A 
ATOM     34  H   UNL     1      42.115   4.593  12.178  0.00  0.00    +0.000 HD
ENDBRANCH  21  24
ENDBRANCH  19  20
ENDBRANCH   4  19
TORSDOF 6
ENDMDL
MODEL 3
REMARK VINA RESULT:    -7.840      2.821      3.431
REMARK INTER + INTRA:         -10.989
REMARK INTER:                  -9.915
REMARK INTRA:                  -1.074
REMARK UNBOUND:                -0.398
REMARK  Name = 
REMARK  7 active torsions:
REMARK  status: ('A' for Active; 'I' for Inactive)
REMARK    1  A    between atoms: C_1  and  C_2
REMARK    2  A    between atoms: C_2  and  N_3
REMARK    3  A    between atoms: C_2  and  C_26
REMARK    4  A    between atoms: C_4  and  C_6
REMARK    5  A    between atoms: C_9  and  C_10
REMARK    6  A    between atoms: C_10  and  N_11
REMARK    7  A    between atoms: C_12  and  C_14
REMARK                            x       y       z     vdW  Elec       q    Type
REMARK                         _______ _______ _______ _____ _____    ______ ____
ROOT
ATOM      1  C   UNL     1      45.367   6.321  11.367  0.00  0.00    +0.000 A 
ATOM      2  C   UNL     1      44.826   7.560  11.701  0.00  0.00    +0.000 A 
ATOM      3  C   UNL     1      45.534   8.408  12.557  0.00  0.00    +0.000 A 
ATOM      4  C   UNL     1      46.764   7.992  13.067  0.00  0.00    +0.000 A 
ATOM      5  N   UNL     1      47.323   6.807  12.715  0.00  0.00    +0.000 NA
ATOM      6  C   UNL     1      46.612   5.997  11.890  0.00  0.00    +0.000 A 
ENDROOT
BRANCH   1   8
ATOM      7  N   UNL     1      45.358   4.375   9.888  0.00  0.00    +0.000 N 
ATOM      8  C   UNL     1      44.620   5.310  10.583  0.00  0.00    +0.000 C 
ATOM      9  O   UNL     1      43.398   5.337  10.565  0.00  0.00    +0.000 OA
ATOM     10  H   UNL     1      46.361   4.318   9.997  0.00  0.00    +0.000 HD
BRANCH   7  12
ATOM     11  C   UNL     1      44.245   2.177   9.833  0.00  0.00    +0.000 C 
ATOM     12  C   UNL     1      44.714   3.391   9.031  0.00  0.00    +0.000 C 
BRANCH  12  13
ATOM     13  C   UNL     1      45.664   2.941   7.958  0.00  0.00    +0.000 A 
ATOM     14  N   UNL     1      46.065   3.635   6.908  0.00  0.00    +0.000 NA
ATOM     15  C   UNL     1      47.070   2.904   6.336  0.00  0.00    +0.000 A 
ATOM     16  C   UNL     1      47.257   1.723   7.012  0.00  0.00    +0.000 A 
ATOM     17  N   UNL     1      46.335   1.741   8.026  0.00  0.00    +0.000 N 
ATOM     18  H   UNL     1      46.194   1.030   8.731  0.00  0.00    +0.000 HD
ENDBRANCH  12  13
ENDBRANCH   7  12
ENDBRANCH   1   8
BRANCH   4  19
ATOM     19  C   UNL     1      47.502   8.834  14.086  0.00  0.00    +0.000 C 
BRANCH  19  20
ATOM     20  N   UNL     1      47.855   8.101  15.276  0.00  0.00    +0.000 N 
ATOM     21  C   UNL     1      49.148   7.904  15.668  0.00  0.00    +0.000 C 
ATOM     22  O   UNL     1      50.108   8.321  15.015  0.00  0.00    +0.000 OA
ATOM     23  H   UNL     1      47.136   7.479  15.633  0.00  0.00    +0.000 HD
BRANCH  21  24
ATOM     24  C   UNL     1      49.327   7.224  16.955  0.00  0.00    +0.000 A 
ATOM     25  C   UNL     1      49.932   7.883  18.021  0.00  0.00    +0.000 A 
ATOM     26  S   UNL     1      50.012   6.941  19.441  0.00  0.00    +0.000 S 
ATOM     27  C   UNL     1      49.285   5.610  18.672  0.00  0.00    +0.000 A 
ATOM     28  N   UNL     1      49.087   4.434  19.331  0.00  0.00    +0.000 NA
ATOM     29  C   UNL     1      48.561   3.500  18.610  0.00  0.00    +0.000 A 
ATOM     30  N   UNL     1      48.202   3.636  17.292  0.00  0.00    +0.000 N 
ATOM     31  C   UNL     1      48.317   4.823  16.615  0.00  0.00    +0.000 A 
ATOM     32  O   UNL     1      47.880   4.945  15.474  0.00  0.00    +0.000 OA
ATOM     33  C   UNL     1      48.949   5.890  17.360  0.00  0.00    +0.000 A 
ATOM     34  H   UNL     1      47.765   2.877  16.792  0.00  0.00    +0.000 HD
ENDBRANCH  21  24
ENDBRANCH  19  20
ENDBRANCH   4  19
TORSDOF 6
ENDMDL
MODEL 4
REMARK VINA RESULT:    -7.329      3.838      4.854
REMARK INTER + INTRA:         -10.299
REMARK INTER:                  -9.374
REMARK INTRA:                  -0.925
REMARK UNBOUND:                -0.398
REMARK  Name = 
REMARK  7 active torsions:
REMARK  status: ('A' for Active; 'I' for Inactive)
REMARK    1  A    between atoms: C_1  and  C_2
REMARK    2  A    between atoms: C_2  and  N_3
REMARK    3  A    between atoms: C_2  and  C_26
REMARK    4  A    between atoms: C_4  and  C_6
REMARK    5  A    between atoms: C_9  and  C_10
REMARK    6  A    between atoms: C_10  and  N_11
REMARK    7  A    between atoms: C_12  and  C_14
REMARK                            x       y       z     vdW  Elec       q    Type
REMARK                         _______ _______ _______ _____ _____    ______ ____
ROOT
ATOM      1  C   UNL     1      45.364   6.000  11.584  0.00  0.00    +0.000 A 
ATOM      2  C   UNL     1      46.336   5.561  12.480  0.00  0.00    +0.000 A 
ATOM      3  C   UNL     1      47.039   6.500  13.241  0.00  0.00    +0.000 A 
ATOM      4  C   UNL     1      46.758   7.858  13.081  0.00  0.00    +0.000 A 
ATOM      5  N   UNL     1      45.783   8.295  12.245  0.00  0.00    +0.000 NA
ATOM      6  C   UNL     1      45.122   7.365  11.510  0.00  0.00    +0.000 A 
ENDROOT
BRANCH   1   8
ATOM      7  N   UNL     1      45.444   4.126  10.017  0.00  0.00    +0.000 N 
ATOM      8  C   UNL     1      44.676   5.085  10.643  0.00  0.00    +0.000 C 
ATOM      9  O   UNL     1      43.476   5.209  10.444  0.00  0.00    +0.000 OA
ATOM     10  H   UNL     1      46.411   3.986  10.270  0.00  0.00    +0.000 HD
BRANCH   7  12
ATOM     11  C   UNL     1      44.220   2.015   9.674  0.00  0.00    +0.000 C 
ATOM     12  C   UNL     1      44.870   3.234   9.020  0.00  0.00    +0.000 C 
BRANCH  12  13
ATOM     13  C   UNL     1      45.934   2.777   8.064  0.00  0.00    +0.000 A 
ATOM     14  N   UNL     1      46.502   1.585   8.017  0.00  0.00    +0.000 NA
ATOM     15  C   UNL     1      47.248   1.569   6.871  0.00  0.00    +0.000 A 
ATOM     16  C   UNL     1      47.179   2.782   6.229  0.00  0.00    +0.000 A 
ATOM     17  N   UNL     1      46.363   3.555   7.014  0.00  0.00    +0.000 N 
ATOM     18  H   UNL     1      46.082   4.511   6.839  0.00  0.00    +0.000 HD
ENDBRANCH  12  13
ENDBRANCH   7  12
ENDBRANCH   1   8
BRANCH   4  19
ATOM     19  C   UNL     1      47.579   8.905  13.802  0.00  0.00    +0.000 C 
BRANCH  19  20
ATOM     20  N   UNL     1      47.467   8.822  15.238  0.00  0.00    +0.000 N 
ATOM     21  C   UNL     1      48.335   9.448  16.085  0.00  0.00    +0.000 C 
ATOM     22  O   UNL     1      49.294  10.110  15.681  0.00  0.00    +0.000 OA
ATOM     23  H   UNL     1      46.921   8.040  15.586  0.00  0.00    +0.000 HD
BRANCH  21  24
ATOM     24  C   UNL     1      48.018   9.343  17.513  0.00  0.00    +0.000 A 
ATOM     25  C   UNL     1      47.654  10.473  18.239  0.00  0.00    +0.000 A 
ATOM     26  S   UNL     1      47.285  10.141  19.871  0.00  0.00    +0.000 S 
ATOM     27  C   UNL     1      47.640   8.489  19.678  0.00  0.00    +0.000 A 
ATOM     28  N   UNL     1      47.560   7.621  20.725  0.00  0.00    +0.000 NA
ATOM     29  C   UNL     1      47.897   6.407  20.439  0.00  0.00    +0.000 A 
ATOM     30  N   UNL     1      48.293   5.976  19.199  0.00  0.00    +0.000 N 
ATOM     31  C   UNL     1      48.316   6.800  18.103  0.00  0.00    +0.000 A 
ATOM     32  O   UNL     1      48.562   6.359  16.984  0.00  0.00    +0.000 OA
ATOM     33  C   UNL     1      47.998   8.185  18.376  0.00  0.00    +0.000 A 
ATOM     34  H   UNL     1      48.512   5.005  19.031  0.00  0.00    +0.000 HD
ENDBRANCH  21  24
ENDBRANCH  19  20
ENDBRANCH   4  19
TORSDOF 6
ENDMDL
MODEL 5
REMARK VINA RESULT:    -7.173      3.008      9.220
REMARK INTER + INTRA:         -10.087
REMARK INTER:                  -8.990
REMARK INTRA:                  -1.097
REMARK UNBOUND:                -0.398
REMARK  Name = 
REMARK  7 active torsions:
REMARK  status: ('A' for Active; 'I' for Inactive)
REMARK    1  A    between atoms: C_1  and  C_2
REMARK    2  A    between atoms: C_2  and  N_3
REMARK    3  A    between atoms: C_2  and  C_26
REMARK    4  A    between atoms: C_4  and  C_6
REMARK    5  A    between atoms: C_9  and  C_10
REMARK    6  A    between atoms: C_10  and  N_11
REMARK    7  A    between atoms: C_12  and  C_14
REMARK                            x       y       z     vdW  Elec       q    Type
REMARK                         _______ _______ _______ _____ _____    ______ ____
ROOT
ATOM      1  C   UNL     1      49.724   5.447  16.902  0.00  0.00    +0.000 A 
ATOM      2  C   UNL     1      50.323   6.600  16.403  0.00  0.00    +0.000 A 
ATOM      3  C   UNL     1      49.763   7.236  15.290  0.00  0.00    +0.000 A 
ATOM      4  C   UNL     1      48.620   6.697  14.699  0.00  0.00    +0.000 A 
ATOM      5  N   UNL     1      48.001   5.600  15.202  0.00  0.00    +0.000 NA
ATOM      6  C   UNL     1      48.569   4.995  16.276  0.00  0.00    +0.000 A 
ENDROOT
BRANCH   1   8
ATOM      7  N   UNL     1      51.708   4.602  18.054  0.00  0.00    +0.000 N 
ATOM      8  C   UNL     1      50.331   4.637  17.985  0.00  0.00    +0.000 C 
ATOM      9  O   UNL     1      49.611   4.028  18.763  0.00  0.00    +0.000 OA
ATOM     10  H   UNL     1      52.274   5.189  17.458  0.00  0.00    +0.000 HD
BRANCH   7  12
ATOM     11  C   UNL     1      53.522   4.543  19.720  0.00  0.00    +0.000 C 
ATOM     12  C   UNL     1      52.392   3.774  19.035  0.00  0.00    +0.000 C 
BRANCH  12  13
ATOM     13  C   UNL     1      52.956   2.549  18.372  0.00  0.00    +0.000 A 
ATOM     14  N   UNL     1      54.200   2.365  17.969  0.00  0.00    +0.000 NA
ATOM     15  C   UNL     1      54.290   1.044  17.622  0.00  0.00    +0.000 A 
ATOM     16  C   UNL     1      53.075   0.420  17.766  0.00  0.00    +0.000 A 
ATOM     17  N   UNL     1      52.223   1.395  18.216  0.00  0.00    +0.000 N 
ATOM     18  H   UNL     1      51.243   1.287  18.440  0.00  0.00    +0.000 HD
ENDBRANCH  12  13
ENDBRANCH   7  12
ENDBRANCH   1   8
BRANCH   4  19
ATOM     19  C   UNL     1      48.056   7.292  13.426  0.00  0.00    +0.000 C 
BRANCH  19  20
ATOM     20  N   UNL     1      47.278   6.352  12.658  0.00  0.00    +0.000 N 
ATOM     21  C   UNL     1      46.307   6.737  11.780  0.00  0.00    +0.000 C 
ATOM     22  O   UNL     1      46.009   7.920  11.600  0.00  0.00    +0.000 OA
ATOM     23  H   UNL     1      47.262   5.404  13.022  0.00  0.00    +0.000 HD
BRANCH  21  24
ATOM     24  C   UNL     1      45.682   5.658  11.008  0.00  0.00    +0.000 A 
ATOM     25  C   UNL     1      45.794   5.630   9.620  0.00  0.00    +0.000 A 
ATOM     26  S   UNL     1      45.036   4.278   8.908  0.00  0.00    +0.000 S 
ATOM     27  C   UNL     1      44.497   3.708  10.417  0.00  0.00    +0.000 A 
ATOM     28  N   UNL     1      43.739   2.580  10.518  0.00  0.00    +0.000 NA
ATOM     29  C   UNL     1      43.370   2.291  11.721  0.00  0.00    +0.000 A 
ATOM     30  N   UNL     1      43.699   3.018  12.837  0.00  0.00    +0.000 N 
ATOM     31  C   UNL     1      44.520   4.116  12.788  0.00  0.00    +0.000 A 
ATOM     32  O   UNL     1      44.891   4.675  13.816  0.00  0.00    +0.000 OA
ATOM     33  C   UNL     1      44.921   4.516  11.457  0.00  0.00    +0.000 A 
ATOM     34  H   UNL     1      43.406   2.721  13.756  0.00  0.00    +0.000 HD
ENDBRANCH  21  24
ENDBRANCH  19  20
ENDBRANCH   4  19
TORSDOF 6
ENDMDL
MODEL 6
REMARK VINA RESULT:    -7.083      5.616      9.022
REMARK INTER + INTRA:          -9.966
REMARK INTER:                  -8.974
REMARK INTRA:                  -0.992
REMARK UNBOUND:                -0.398
REMARK  Name = 
REMARK  7 active torsions:
REMARK  status: ('A' for Active; 'I' for Inactive)
REMARK    1  A    between atoms: C_1  and  C_2
REMARK    2  A    between atoms: C_2  and  N_3
REMARK    3  A    between atoms: C_2  and  C_26
REMARK    4  A    between atoms: C_4  and  C_6
REMARK    5  A    between atoms: C_9  and  C_10
REMARK    6  A    between atoms: C_10  and  N_11
REMARK    7  A    between atoms: C_12  and  C_14
REMARK                            x       y       z     vdW  Elec       q    Type
REMARK                         _______ _______ _______ _____ _____    ______ ____
ROOT
ATOM      1  C   UNL     1      50.329   8.344  11.478  0.00  0.00    +0.000 A 
ATOM      2  C   UNL     1      49.423   9.390  11.320  0.00  0.00    +0.000 A 
ATOM      3  C   UNL     1      48.149   9.283  11.888  0.00  0.00    +0.000 A 
ATOM      4  C   UNL     1      47.810   8.128  12.593  0.00  0.00    +0.000 A 
ATOM      5  N   UNL     1      48.698   7.122  12.792  0.00  0.00    +0.000 NA
ATOM      6  C   UNL     1      49.924   7.244  12.223  0.00  0.00    +0.000 A 
ENDROOT
BRANCH   1   8
ATOM      7  N   UNL     1      51.898   7.252   9.955  0.00  0.00    +0.000 N 
ATOM      8  C   UNL     1      51.643   8.317  10.793  0.00  0.00    +0.000 C 
ATOM      9  O   UNL     1      52.450   9.213  10.993  0.00  0.00    +0.000 OA
ATOM     10  H   UNL     1      51.179   6.578   9.736  0.00  0.00    +0.000 HD
BRANCH   7  12
ATOM     11  C   UNL     1      53.049   6.384   7.957  0.00  0.00    +0.000 C 
ATOM     12  C   UNL     1      53.189   7.102   9.300  0.00  0.00    +0.000 C 
BRANCH  12  13
ATOM     13  C   UNL     1      54.128   6.329  10.181  0.00  0.00    +0.000 A 
ATOM     14  N   UNL     1      55.052   6.823  10.986  0.00  0.00    +0.000 NA
ATOM     15  C   UNL     1      55.508   5.767  11.727  0.00  0.00    +0.000 A 
ATOM     16  C   UNL     1      54.895   4.601  11.340  0.00  0.00    +0.000 A 
ATOM     17  N   UNL     1      54.038   4.964  10.332  0.00  0.00    +0.000 N 
ATOM     18  H   UNL     1      53.414   4.356   9.818  0.00  0.00    +0.000 HD
ENDBRANCH  12  13
ENDBRANCH   7  12
ENDBRANCH   1   8
BRANCH   4  19
ATOM     19  C   UNL     1      46.404   7.931  13.119  0.00  0.00    +0.000 C 
BRANCH  19  20
ATOM     20  N   UNL     1      45.845   6.648  12.772  0.00  0.00    +0.000 N 
ATOM     21  C   UNL     1      44.868   6.497  11.830  0.00  0.00    +0.000 C 
ATOM     22  O   UNL     1      44.376   7.454  11.227  0.00  0.00    +0.000 OA
ATOM     23  H   UNL     1      45.977   5.916  13.463  0.00  0.00    +0.000 HD
BRANCH  21  24
ATOM     24  C   UNL     1      44.485   5.114  11.527  0.00  0.00    +0.000 A 
ATOM     25  C   UNL     1      43.685   4.395  12.411  0.00  0.00    +0.000 A 
ATOM     26  S   UNL     1      43.315   2.823  11.864  0.00  0.00    +0.000 S 
ATOM     27  C   UNL     1      44.242   3.030  10.453  0.00  0.00    +0.000 A 
ATOM     28  N   UNL     1      44.381   2.024   9.544  0.00  0.00    +0.000 NA
ATOM     29  C   UNL     1      45.145   2.311   8.544  0.00  0.00    +0.000 A 
ATOM     30  N   UNL     1      45.775   3.516   8.359  0.00  0.00    +0.000 N 
ATOM     31  C   UNL     1      45.603   4.577   9.211  0.00  0.00    +0.000 A 
ATOM     32  O   UNL     1      46.085   5.677   8.958  0.00  0.00    +0.000 OA
ATOM     33  C   UNL     1      44.796   4.295  10.379  0.00  0.00    +0.000 A 
ATOM     34  H   UNL     1      46.334   3.690   7.538  0.00  0.00    +0.000 HD
ENDBRANCH  21  24
ENDBRANCH  19  20
ENDBRANCH   4  19
TORSDOF 6
ENDMDL
MODEL 7
REMARK VINA RESULT:    -6.996      2.138      3.226
REMARK INTER + INTRA:          -9.848
REMARK INTER:                  -9.080
REMARK INTRA:                  -0.768
REMARK UNBOUND:                -0.398
REMARK  Name = 
REMARK  7 active torsions:
REMARK  status: ('A' for Active; 'I' for Inactive)
REMARK    1  A    between atoms: C_1  and  C_2
REMARK    2  A    between atoms: C_2  and  N_3
REMARK    3  A    between atoms: C_2  and  C_26
REMARK    4  A    between atoms: C_4  and  C_6
REMARK    5  A    between atoms: C_9  and  C_10
REMARK    6  A    between atoms: C_10  and  N_11
REMARK    7  A    between atoms: C_12  and  C_14
REMARK                            x       y       z     vdW  Elec       q    Type
REMARK                         _______ _______ _______ _____ _____    ______ ____
ROOT
ATOM      1  C   UNL     1      47.571   5.346  14.704  0.00  0.00    +0.000 A 
ATOM      2  C   UNL     1      46.867   4.224  15.133  0.00  0.00    +0.000 A 
ATOM      3  C   UNL     1      47.189   3.643  16.364  0.00  0.00    +0.000 A 
ATOM      4  C   UNL     1      48.213   4.195  17.133  0.00  0.00    +0.000 A 
ATOM      5  N   UNL     1      48.877   5.314  16.747  0.00  0.00    +0.000 NA
ATOM      6  C   UNL     1      48.554   5.853  15.544  0.00  0.00    +0.000 A 
ENDROOT
BRANCH   1   8
ATOM      7  N   UNL     1      46.156   5.782  12.759  0.00  0.00    +0.000 N 
ATOM      8  C   UNL     1      47.390   5.935  13.356  0.00  0.00    +0.000 C 
ATOM      9  O   UNL     1      48.320   6.517  12.818  0.00  0.00    +0.000 OA
ATOM     10  H   UNL     1      45.379   5.379  13.264  0.00  0.00    +0.000 HD
BRANCH   7  12
ATOM     11  C   UNL     1      44.900   7.408  11.399  0.00  0.00    +0.000 C 
ATOM     12  C   UNL     1      45.909   6.259  11.406  0.00  0.00    +0.000 C 
BRANCH  12  13
ATOM     13  C   UNL     1      45.392   5.139  10.550  0.00  0.00    +0.000 A 
ATOM     14  N   UNL     1      44.842   4.011  10.963  0.00  0.00    +0.000 NA
ATOM     15  C   UNL     1      44.347   3.402   9.842  0.00  0.00    +0.000 A 
ATOM     16  C   UNL     1      44.638   4.139   8.720  0.00  0.00    +0.000 A 
ATOM     17  N   UNL     1      45.332   5.229   9.179  0.00  0.00    +0.000 N 
ATOM     18  H   UNL     1      45.698   5.992   8.624  0.00  0.00    +0.000 HD
ENDBRANCH  12  13
ENDBRANCH   7  12
ENDBRANCH   1   8
BRANCH   4  19
ATOM     19  C   UNL     1      48.664   3.525  18.413  0.00  0.00    +0.000 C 
BRANCH  19  20
ATOM     20  N   UNL     1      50.057   3.152  18.395  0.00  0.00    +0.000 N 
ATOM     21  C   UNL     1      50.579   2.280  17.484  0.00  0.00    +0.000 C 
ATOM     22  O   UNL     1      49.888   1.728  16.625  0.00  0.00    +0.000 OA
ATOM     23  H   UNL     1      50.560   3.313  19.263  0.00  0.00    +0.000 HD
BRANCH  21  24
ATOM     24  C   UNL     1      52.032   2.089  17.545  0.00  0.00    +0.000 A 
ATOM     25  C   UNL     1      52.573   0.807  17.580  0.00  0.00    +0.000 A 
ATOM     26  S   UNL     1      54.278   0.792  17.608  0.00  0.00    +0.000 S 
ATOM     27  C   UNL     1      54.353   2.491  17.618  0.00  0.00    +0.000 A 
ATOM     28  N   UNL     1      55.547   3.146  17.676  0.00  0.00    +0.000 NA
ATOM     29  C   UNL     1      55.448   4.433  17.717  0.00  0.00    +0.000 A 
ATOM     30  N   UNL     1      54.266   5.129  17.692  0.00  0.00    +0.000 N 
ATOM     31  C   UNL     1      53.048   4.511  17.560  0.00  0.00    +0.000 A 
ATOM     32  O   UNL     1      52.018   5.165  17.423  0.00  0.00    +0.000 OA
ATOM     33  C   UNL     1      53.096   3.065  17.562  0.00  0.00    +0.000 A 
ATOM     34  H   UNL     1      54.256   6.137  17.694  0.00  0.00    +0.000 HD
ENDBRANCH  21  24
ENDBRANCH  19  20
ENDBRANCH   4  19
TORSDOF 6
ENDMDL
MODEL 8
REMARK VINA RESULT:    -6.818      3.420      9.188
REMARK INTER + INTRA:          -9.608
REMARK INTER:                  -8.716
REMARK INTRA:                  -0.891
REMARK UNBOUND:                -0.398
REMARK  Name = 
REMARK  7 active torsions:
REMARK  status: ('A' for Active; 'I' for Inactive)
REMARK    1  A    between atoms: C_1  and  C_2
REMARK    2  A    between atoms: C_2  and  N_3
REMARK    3  A    between atoms: C_2  and  C_26
REMARK    4  A    between atoms: C_4  and  C_6
REMARK    5  A    between atoms: C_9  and  C_10
REMARK    6  A    between atoms: C_10  and  N_11
REMARK    7  A    between atoms: C_12  and  C_14
REMARK                            x       y       z     vdW  Elec       q    Type
REMARK                         _______ _______ _______ _____ _____    ______ ____
ROOT
ATOM      1  C   UNL     1      50.254   7.184  15.580  0.00  0.00    +0.000 A 
ATOM      2  C   UNL     1      50.867   8.042  14.670  0.00  0.00    +0.000 A 
ATOM      3  C   UNL     1      50.195   8.383  13.492  0.00  0.00    +0.000 A 
ATOM      4  C   UNL     1      48.929   7.850  13.249  0.00  0.00    +0.000 A 
ATOM      5  N   UNL     1      48.303   7.049  14.147  0.00  0.00    +0.000 NA
ATOM      6  C   UNL     1      48.979   6.724  15.278  0.00  0.00    +0.000 A 
ENDROOT
BRANCH   1   8
ATOM      7  N   UNL     1      50.846   5.312  17.037  0.00  0.00    +0.000 N 
ATOM      8  C   UNL     1      50.952   6.663  16.779  0.00  0.00    +0.000 C 
ATOM      9  O   UNL     1      51.579   7.429  17.496  0.00  0.00    +0.000 OA
ATOM     10  H   UNL     1      50.401   4.690  16.378  0.00  0.00    +0.000 HD
BRANCH   7  12
ATOM     11  C   UNL     1      51.778   3.252  18.015  0.00  0.00    +0.000 C 
ATOM     12  C   UNL     1      51.433   4.725  18.232  0.00  0.00    +0.000 C 
BRANCH  12  13
ATOM     13  C   UNL     1      50.481   4.847  19.388  0.00  0.00    +0.000 A 
ATOM     14  N   UNL     1      50.464   5.797  20.307  0.00  0.00    +0.000 NA
ATOM     15  C   UNL     1      49.312   5.606  21.021  0.00  0.00    +0.000 A 
ATOM     16  C   UNL     1      48.638   4.498  20.569  0.00  0.00    +0.000 A 
ATOM     17  N   UNL     1      49.407   4.003  19.548  0.00  0.00    +0.000 N 
ATOM     18  H   UNL     1      49.208   3.192  18.977  0.00  0.00    +0.000 HD
ENDBRANCH  12  13
ENDBRANCH   7  12
ENDBRANCH   1   8
BRANCH   4  19
ATOM     19  C   UNL     1      48.224   8.105  11.933  0.00  0.00    +0.000 C 
BRANCH  19  20
ATOM     20  N   UNL     1      47.503   6.956  11.446  0.00  0.00    +0.000 N 
ATOM     21  C   UNL     1      46.140   6.905  11.393  0.00  0.00    +0.000 C 
ATOM     22  O   UNL     1      45.427   7.832  11.784  0.00  0.00    +0.000 OA
ATOM     23  H   UNL     1      48.026   6.085  11.440  0.00  0.00    +0.000 HD
BRANCH  21  24
ATOM     24  C   UNL     1      45.571   5.702  10.777  0.00  0.00    +0.000 A 
ATOM     25  C   UNL     1      45.740   5.460   9.416  0.00  0.00    +0.000 A 
ATOM     26  S   UNL     1      45.042   3.993   8.897  0.00  0.00    +0.000 S 
ATOM     27  C   UNL     1      44.453   3.651  10.456  0.00  0.00    +0.000 A 
ATOM     28  N   UNL     1      43.716   2.532  10.704  0.00  0.00    +0.000 NA
ATOM     29  C   UNL     1      43.304   2.424  11.923  0.00  0.00    +0.000 A 
ATOM     30  N   UNL     1      43.571   3.325  12.923  0.00  0.00    +0.000 N 
ATOM     31  C   UNL     1      44.369   4.424  12.733  0.00  0.00    +0.000 A 
ATOM     32  O   UNL     1      44.685   5.147  13.673  0.00  0.00    +0.000 OA
ATOM     33  C   UNL     1      44.817   4.623  11.371  0.00  0.00    +0.000 A 
ATOM     34  H   UNL     1      43.247   3.167  13.865  0.00  0.00    +0.000 HD
ENDBRANCH  21  24
ENDBRANCH  19  20
ENDBRANCH   4  19
TORSDOF 6
ENDMDL
MODEL 9
REMARK VINA RESULT:    -6.806      2.286      3.322
REMARK INTER + INTRA:          -9.592
REMARK INTER:                  -8.685
REMARK INTRA:                  -0.907
REMARK UNBOUND:                -0.398
REMARK  Name = 
REMARK  7 active torsions:
REMARK  status: ('A' for Active; 'I' for Inactive)
REMARK    1  A    between atoms: C_1  and  C_2
REMARK    2  A    between atoms: C_2  and  N_3
REMARK    3  A    between atoms: C_2  and  C_26
REMARK    4  A    between atoms: C_4  and  C_6
REMARK    5  A    between atoms: C_9  and  C_10
REMARK    6  A    between atoms: C_10  and  N_11
REMARK    7  A    between atoms: C_12  and  C_14
REMARK                            x       y       z     vdW  Elec       q    Type
REMARK                         _______ _______ _______ _____ _____    ______ ____
ROOT
ATOM      1  C   UNL     1      45.587   5.447  11.579  0.00  0.00    +0.000 A 
ATOM      2  C   UNL     1      45.979   4.886  12.791  0.00  0.00    +0.000 A 
ATOM      3  C   UNL     1      46.758   5.640  13.675  0.00  0.00    +0.000 A 
ATOM      4  C   UNL     1      47.134   6.935  13.318  0.00  0.00    +0.000 A 
ATOM      5  N   UNL     1      46.723   7.509  12.160  0.00  0.00    +0.000 NA
ATOM      6  C   UNL     1      45.975   6.754  11.315  0.00  0.00    +0.000 A 
ENDROOT
BRANCH   1   8
ATOM      7  N   UNL     1      45.642   3.818   9.756  0.00  0.00    +0.000 N 
ATOM      8  C   UNL     1      44.883   4.670  10.531  0.00  0.00    +0.000 C 
ATOM      9  O   UNL     1      43.679   4.810  10.379  0.00  0.00    +0.000 OA
ATOM     10  H   UNL     1      46.616   3.653   9.965  0.00  0.00    +0.000 HD
BRANCH   7  12
ATOM     11  C   UNL     1      44.355   1.807   9.152  0.00  0.00    +0.000 C 
ATOM     12  C   UNL     1      45.051   3.074   8.654  0.00  0.00    +0.000 C 
BRANCH  12  13
ATOM     13  C   UNL     1      46.110   2.700   7.658  0.00  0.00    +0.000 A 
ATOM     14  N   UNL     1      46.859   1.611   7.663  0.00  0.00    +0.000 NA
ATOM     15  C   UNL     1      47.522   1.605   6.466  0.00  0.00    +0.000 A 
ATOM     16  C   UNL     1      47.216   2.728   5.736  0.00  0.00    +0.000 A 
ATOM     17  N   UNL     1      46.339   3.435   6.517  0.00  0.00    +0.000 N 
ATOM     18  H   UNL     1      45.897   4.315   6.288  0.00  0.00    +0.000 HD
ENDBRANCH  12  13
ENDBRANCH   7  12
ENDBRANCH   1   8
BRANCH   4  19
ATOM     19  C   UNL     1      48.072   7.735  14.197  0.00  0.00    +0.000 C 
BRANCH  19  20
ATOM     20  N   UNL     1      48.947   6.908  14.991  0.00  0.00    +0.000 N 
ATOM     21  C   UNL     1      49.063   7.039  16.344  0.00  0.00    +0.000 C 
ATOM     22  O   UNL     1      48.445   7.895  16.982  0.00  0.00    +0.000 OA
ATOM     23  H   UNL     1      49.693   6.447  14.477  0.00  0.00    +0.000 HD
BRANCH  21  24
ATOM     24  C   UNL     1      49.920   6.052  17.009  0.00  0.00    +0.000 A 
ATOM     25  C   UNL     1      49.370   5.113  17.878  0.00  0.00    +0.000 A 
ATOM     26  S   UNL     1      50.520   4.028  18.518  0.00  0.00    +0.000 S 
ATOM     27  C   UNL     1      51.794   4.797  17.695  0.00  0.00    +0.000 A 
ATOM     28  N   UNL     1      53.083   4.379  17.838  0.00  0.00    +0.000 NA
ATOM     29  C   UNL     1      53.948   5.082  17.184  0.00  0.00    +0.000 A 
ATOM     30  N   UNL     1      53.643   6.158  16.390  0.00  0.00    +0.000 N 
ATOM     31  C   UNL     1      52.354   6.565  16.162  0.00  0.00    +0.000 A 
ATOM     32  O   UNL     1      52.105   7.457  15.355  0.00  0.00    +0.000 OA
ATOM     33  C   UNL     1      51.346   5.845  16.911  0.00  0.00    +0.000 A 
ATOM     34  H   UNL     1      54.362   6.647  15.879  0.00  0.00    +0.000 HD
ENDBRANCH  21  24
ENDBRANCH  19  20
ENDBRANCH   4  19
TORSDOF 6
ENDMDL
