MODEL 1
REMARK VINA RESULT:    -8.257      0.000      0.000
REMARK INTER + INTRA:         -13.697
REMARK INTER:                 -12.842
REMARK INTRA:                  -0.855
REMARK UNBOUND:                -0.855
REMARK  Name = 
REMARK  11 active torsions:
REMARK  status: ('A' for Active; 'I' for Inactive)
REMARK    1  A    between atoms: C_1  and  C_2
REMARK    2  A    between atoms: C_2  and  N_3
REMARK    3  A    between atoms: C_2  and  C_22
REMARK    4  A    between atoms: N_3  and  C_4
REMARK    5  A    between atoms: C_4  and  C_5
REMARK    6  A    between atoms: C_8  and  C_9
REMARK    7  A    between atoms: C_9  and  N_10
REMARK    8  A    between atoms: N_10  and  CA_11
REMARK    9  A    between atoms: CA_11  and  C_12
REMARK   10  A    between atoms: CA_11  and  C_14
REMARK   11  A    between atoms: C_12  and  O_13
REMARK                            x       y       z     vdW  Elec       q    Type
REMARK                         _______ _______ _______ _____ _____    ______ ____
ROOT
ATOM      1  C   UNL     1      47.602   6.245  13.568  0.00  0.00    +0.000 A 
ATOM      2  C   UNL     1      46.590   5.289  13.704  0.00  0.00    +0.000 A 
ATOM      3  C   UNL     1      45.684   5.059  12.666  0.00  0.00    +0.000 A 
ATOM      4  C   UNL     1      45.769   5.785  11.469  0.00  0.00    +0.000 A 
ATOM      5  C   UNL     1      46.792   6.729  11.326  0.00  0.00    +0.000 A 
ATOM      6  C   UNL     1      47.703   6.955  12.363  0.00  0.00    +0.000 A 
ENDROOT
BRANCH   1   7
ATOM      7  C   UNL     1      48.540   6.531  14.715  0.00  0.00    +0.000 C 
BRANCH   7   8
ATOM      8  N   UNL     1      48.610   5.435  15.688  0.00  0.00    +0.000 NA
ATOM      9  H   UNL     1      49.410   4.837  15.469  0.00  0.00    +0.000 HD
BRANCH   8  11
ATOM     10  C   UNL     1      48.896   7.482  17.175  0.00  0.00    +0.000 C 
ATOM     11  C   UNL     1      48.743   5.951  17.052  0.00  0.00    +0.000 C 
BRANCH  11  12
ATOM     12  C   UNL     1      49.903   5.267  17.748  0.00  0.00    +0.000 A 
ATOM     13  C   UNL     1      50.916   5.944  18.413  0.00  0.00    +0.000 A 
ATOM     14  S   UNL     1      52.296   4.973  18.680  0.00  0.00    +0.000 S 
ATOM     15  C   UNL     1      51.544   3.612  17.985  0.00  0.00    +0.000 A 
ATOM     16  N   UNL     1      52.224   2.457  17.747  0.00  0.00    +0.000 NA
ATOM     17  C   UNL     1      51.495   1.508  17.259  0.00  0.00    +0.000 A 
ATOM     18  N   UNL     1      50.142   1.588  17.040  0.00  0.00    +0.000 N 
ATOM     19  C   UNL     1      49.410   2.730  17.277  0.00  0.00    +0.000 A 
ATOM     20  O   UNL     1      48.192   2.761  17.135  0.00  0.00    +0.000 OA
ATOM     21  C   UNL     1      50.215   3.859  17.706  0.00  0.00    +0.000 A 
ATOM     22  H   UNL     1      49.618   0.781  16.734  0.00  0.00    +0.000 HD
ENDBRANCH  11  12
ENDBRANCH   8  11
ENDBRANCH   7   8
ENDBRANCH   1   7
BRANCH   4  23
ATOM     23  C   UNL     1      44.818   5.492  10.325  0.00  0.00    +0.000 C 
BRANCH  23  24
ATOM     24  N   UNL     1      45.537   5.093   9.098  0.00  0.00    +0.000 NA
ATOM     25  H   UNL     1      46.513   4.960   9.362  0.00  0.00    +0.000 HD
BRANCH  24  26
ATOM     26  CA  UNL     1      45.006   3.798   8.579  0.00  0.00    +0.000 C 
BRANCH  26  27
ATOM     27  C   UNL     1      46.075   2.914   7.947  0.00  0.00    +0.000 A 
ATOM     28  C   UNL     1      47.055   3.436   7.117  0.00  0.00    +0.000 A 
ATOM     29  C   UNL     1      47.932   2.537   6.557  0.00  0.00    +0.000 A 
ATOM     30  N   UNL     1      47.874   1.211   6.770  0.00  0.00    +0.000 NA
ATOM     31  C   UNL     1      46.884   0.801   7.574  0.00  0.00    +0.000 A 
ATOM     32  N   UNL     1      45.975   1.584   8.180  0.00  0.00    +0.000 NA
ENDBRANCH  26  27
BRANCH  26  33
ATOM     33  C   UNL     1      44.254   3.058   9.711  0.00  0.00    +0.000 C 
BRANCH  33  34
ATOM     34  O   UNL     1      45.146   2.431  10.636  0.00  0.00    +0.000 OA
ATOM     35  H   UNL     1      45.925   3.019  10.685  0.00  0.00    +0.000 HD
ENDBRANCH  33  34
ENDBRANCH  26  33
ENDBRANCH  24  26
ENDBRANCH  23  24
ENDBRANCH   4  23
TORSDOF 10
ENDMDL
MODEL 2
REMARK VINA RESULT:    -7.928      1.510      1.986
REMARK INTER + INTRA:         -13.186
REMARK INTER:                 -11.685
REMARK INTRA:                  -1.501
REMARK UNBOUND:                -0.855
REMARK  Name = 
REMARK  11 active torsions:
REMARK  status: ('A' for Active; 'I' for Inactive)
REMARK    1  A    between atoms: C_1  and  C_2
REMARK    2  A    between atoms: C_2  and  N_3
REMARK    3  A    between atoms: C_2  and  C_22
REMARK    4  A    between atoms: N_3  and  C_4
REMARK    5  A    between atoms: C_4  and  C_5
REMARK    6  A    between atoms: C_8  and  C_9
REMARK    7  A    between atoms: C_9  and  N_10
REMARK    8  A    between atoms: N_10  and  CA_11
REMARK    9  A    between atoms: CA_11  and  C_12
REMARK   10  A    between atoms: CA_11  and  C_14
REMARK   11  A    between atoms: C_12  and  O_13
REMARK                            x       y       z     vdW  Elec       q    Type
REMARK                         _______ _______ _______ _____ _____    ______ ____
ROOT
ATOM      1  C   UNL     1      47.894   6.809  14.043  0.00  0.00    +0.000 A 
ATOM      2  C   UNL     1      47.142   7.819  13.434  0.00  0.00    +0.000 A 
ATOM      3  C   UNL     1      45.917   7.528  12.829  0.00  0.00    +0.000 A 
ATOM      4  C   UNL     1      45.418   6.217  12.818  0.00  0.00    +0.000 A 
ATOM      5  C   UNL     1      46.162   5.209  13.443  0.00  0.00    +0.000 A 
ATOM      6  C   UNL     1      47.386   5.502  14.053  0.00  0.00    +0.000 A 
ENDROOT
BRANCH   1   7
ATOM      7  C   UNL     1      49.244   7.119  14.642  0.00  0.00    +0.000 C 
BRANCH   7   8
ATOM      8  N   UNL     1      49.165   7.995  15.816  0.00  0.00    +0.000 NA
ATOM      9  H   UNL     1      48.572   8.801  15.598  0.00  0.00    +0.000 HD
BRANCH   8  11
ATOM     10  C   UNL     1      48.290   8.153  18.202  0.00  0.00    +0.000 C 
ATOM     11  C   UNL     1      48.616   7.281  16.970  0.00  0.00    +0.000 C 
BRANCH  11  12
ATOM     12  C   UNL     1      49.556   6.162  17.374  0.00  0.00    +0.000 A 
ATOM     13  C   UNL     1      50.906   6.343  17.643  0.00  0.00    +0.000 A 
ATOM     14  S   UNL     1      51.789   4.880  17.607  0.00  0.00    +0.000 S 
ATOM     15  C   UNL     1      50.379   3.969  17.310  0.00  0.00    +0.000 A 
ATOM     16  N   UNL     1      50.429   2.642  17.014  0.00  0.00    +0.000 NA
ATOM     17  C   UNL     1      49.269   2.092  16.863  0.00  0.00    +0.000 A 
ATOM     18  N   UNL     1      48.067   2.733  17.034  0.00  0.00    +0.000 N 
ATOM     19  C   UNL     1      47.967   4.071  17.344  0.00  0.00    +0.000 A 
ATOM     20  O   UNL     1      46.885   4.608  17.556  0.00  0.00    +0.000 OA
ATOM     21  C   UNL     1      49.246   4.753  17.399  0.00  0.00    +0.000 A 
ATOM     22  H   UNL     1      47.197   2.224  16.981  0.00  0.00    +0.000 HD
ENDBRANCH  11  12
ENDBRANCH   8  11
ENDBRANCH   7   8
ENDBRANCH   1   7
BRANCH   4  23
ATOM     23  C   UNL     1      44.062   5.917  12.209  0.00  0.00    +0.000 C 
BRANCH  23  24
ATOM     24  N   UNL     1      44.145   5.725  10.747  0.00  0.00    +0.000 NA
ATOM     25  H   UNL     1      45.121   5.865  10.489  0.00  0.00    +0.000 HD
BRANCH  24  26
ATOM     26  CA  UNL     1      43.754   4.331  10.381  0.00  0.00    +0.000 C 
BRANCH  26  27
ATOM     27  C   UNL     1      44.730   3.660   9.421  0.00  0.00    +0.000 A 
ATOM     28  C   UNL     1      45.412   4.382   8.453  0.00  0.00    +0.000 A 
ATOM     29  C   UNL     1      46.222   3.663   7.605  0.00  0.00    +0.000 A 
ATOM     30  N   UNL     1      46.368   2.329   7.670  0.00  0.00    +0.000 NA
ATOM     31  C   UNL     1      45.656   1.718   8.628  0.00  0.00    +0.000 A 
ATOM     32  N   UNL     1      44.841   2.315   9.514  0.00  0.00    +0.000 NA
ENDBRANCH  26  27
BRANCH  26  33
ATOM     33  C   UNL     1      43.559   3.495  11.669  0.00  0.00    +0.000 C 
BRANCH  33  34
ATOM     34  O   UNL     1      42.775   2.321  11.440  0.00  0.00    +0.000 OA
ATOM     35  H   UNL     1      41.963   2.633  10.994  0.00  0.00    +0.000 HD
ENDBRANCH  33  34
ENDBRANCH  26  33
ENDBRANCH  24  26
ENDBRANCH  23  24
ENDBRANCH   4  23
TORSDOF 10
ENDMDL
MODEL 3
REMARK VINA RESULT:    -7.662      1.883      2.564
REMARK INTER + INTRA:         -12.772
REMARK INTER:                 -11.650
REMARK INTRA:                  -1.122
REMARK UNBOUND:                -0.855
REMARK  Name = 
REMARK  11 active torsions:
REMARK  status: ('A' for Active; 'I' for Inactive)
REMARK    1  A    between atoms: C_1  and  C_2
REMARK    2  A    between atoms: C_2  and  N_3
REMARK    3  A    between atoms: C_2  and  C_22
REMARK    4  A    between atoms: N_3  and  C_4
REMARK    5  A    between atoms: C_4  and  C_5
REMARK    6  A    between atoms: C_8  and  C_9
REMARK    7  A    between atoms: C_9  and  N_10
REMARK    8  A    between atoms: N_10  and  CA_11
REMARK    9  A    between atoms: CA_11  and  C_12
REMARK   10  A    between atoms: CA_11  and  C_14
REMARK   11  A    between atoms: C_12  and  O_13
REMARK                            x       y       z     vdW  Elec       q    Type
REMARK                         _______ _______ _______ _____ _____    ______ ____
ROOT
ATOM      1  C   UNL     1      47.013   8.148  12.937  0.00  0.00    +0.000 A 
ATOM      2  C   UNL     1      47.584   7.063  12.263  0.00  0.00    +0.000 A 
ATOM      3  C   UNL     1      46.805   6.246  11.440  0.00  0.00    +0.000 A 
ATOM      4  C   UNL     1      45.435   6.495  11.277  0.00  0.00    +0.000 A 
ATOM      5  C   UNL     1      44.866   7.591  11.938  0.00  0.00    +0.000 A 
ATOM      6  C   UNL     1      45.649   8.412  12.757  0.00  0.00    +0.000 A 
ENDROOT
BRANCH   1   7
ATOM      7  C   UNL     1      47.848   8.990  13.870  0.00  0.00    +0.000 C 
BRANCH   7   8
ATOM      8  N   UNL     1      47.487   8.814  15.282  0.00  0.00    +0.000 NA
ATOM      9  H   UNL     1      47.131   7.865  15.425  0.00  0.00    +0.000 HD
BRANCH   8  11
ATOM     10  C   UNL     1      50.021   8.736  15.525  0.00  0.00    +0.000 C 
ATOM     11  C   UNL     1      48.643   9.040  16.152  0.00  0.00    +0.000 C 
BRANCH  11  12
ATOM     12  C   UNL     1      48.482   8.248  17.435  0.00  0.00    +0.000 A 
ATOM     13  C   UNL     1      48.285   8.826  18.682  0.00  0.00    +0.000 A 
ATOM     14  S   UNL     1      48.607   7.747  19.967  0.00  0.00    +0.000 S 
ATOM     15  C   UNL     1      48.938   6.470  18.889  0.00  0.00    +0.000 A 
ATOM     16  N   UNL     1      49.436   5.277  19.317  0.00  0.00    +0.000 NA
ATOM     17  C   UNL     1      49.586   4.402  18.378  0.00  0.00    +0.000 A 
ATOM     18  N   UNL     1      49.234   4.590  17.064  0.00  0.00    +0.000 N 
ATOM     19  C   UNL     1      48.717   5.774  16.588  0.00  0.00    +0.000 A 
ATOM     20  O   UNL     1      48.350   5.899  15.424  0.00  0.00    +0.000 OA
ATOM     21  C   UNL     1      48.650   6.824  17.586  0.00  0.00    +0.000 A 
ATOM     22  H   UNL     1      49.302   3.835  16.397  0.00  0.00    +0.000 HD
ENDBRANCH  11  12
ENDBRANCH   8  11
ENDBRANCH   7   8
ENDBRANCH   1   7
BRANCH   4  23
ATOM     23  C   UNL     1      44.605   5.639  10.340  0.00  0.00    +0.000 C 
BRANCH  23  24
ATOM     24  N   UNL     1      45.394   5.165   9.184  0.00  0.00    +0.000 NA
ATOM     25  H   UNL     1      46.352   5.049   9.512  0.00  0.00    +0.000 HD
BRANCH  24  26
ATOM     26  CA  UNL     1      44.889   3.840   8.717  0.00  0.00    +0.000 C 
BRANCH  26  27
ATOM     27  C   UNL     1      45.967   2.974   8.073  0.00  0.00    +0.000 A 
ATOM     28  C   UNL     1      46.914   3.509   7.213  0.00  0.00    +0.000 A 
ATOM     29  C   UNL     1      47.801   2.625   6.646  0.00  0.00    +0.000 A 
ATOM     30  N   UNL     1      47.782   1.301   6.878  0.00  0.00    +0.000 NA
ATOM     31  C   UNL     1      46.820   0.877   7.709  0.00  0.00    +0.000 A 
ATOM     32  N   UNL     1      45.906   1.646   8.325  0.00  0.00    +0.000 NA
ENDBRANCH  26  27
BRANCH  26  33
ATOM     33  C   UNL     1      44.199   3.107   9.892  0.00  0.00    +0.000 C 
BRANCH  33  34
ATOM     34  O   UNL     1      45.140   2.604  10.845  0.00  0.00    +0.000 OA
ATOM     35  H   UNL     1      46.007   2.959  10.567  0.00  0.00    +0.000 HD
ENDBRANCH  33  34
ENDBRANCH  26  33
ENDBRANCH  24  26
ENDBRANCH  23  24
ENDBRANCH   4  23
TORSDOF 10
ENDMDL
MODEL 4
REMARK VINA RESULT:    -7.503      1.850      2.607
REMARK INTER + INTRA:         -12.525
REMARK INTER:                 -11.095
REMARK INTRA:                  -1.430
REMARK UNBOUND:                -0.855
REMARK  Name = 
REMARK  11 active torsions:
REMARK  status: ('A' for Active; 'I' for Inactive)
REMARK    1  A    between atoms: C_1  and  C_2
REMARK    2  A    between atoms: C_2  and  N_3
REMARK    3  A    between atoms: C_2  and  C_22
REMARK    4  A    between atoms: N_3  and  C_4
REMARK    5  A    between atoms: C_4  and  C_5
REMARK    6  A    between atoms: C_8  and  C_9
REMARK    7  A    between atoms: C_9  and  N_10
REMARK    8  A    between atoms: N_10  and  CA_11
REMARK    9  A    between atoms: CA_11  and  C_12
REMARK   10  A    between atoms: CA_11  and  C_14
REMARK   11  A    between atoms: C_12  and  O_13
REMARK                            x       y       z     vdW  Elec       q    Type
REMARK                         _______ _______ _______ _____ _____    ______ ____
ROOT
ATOM      1  C   UNL     1      49.137   7.429  13.958  0.00  0.00    +0.000 A 
ATOM      2  C   UNL     1      48.173   6.513  14.390  0.00  0.00    +0.000 A 
ATOM      3  C   UNL     1      47.129   6.127  13.547  0.00  0.00    +0.000 A 
ATOM      4  C   UNL     1      47.025   6.654  12.251  0.00  0.00    +0.000 A 
ATOM      5  C   UNL     1      47.999   7.557  11.812  0.00  0.00    +0.000 A 
ATOM      6  C   UNL     1      49.048   7.939  12.655  0.00  0.00    +0.000 A 
ENDROOT
BRANCH   1   7
ATOM      7  C   UNL     1      50.228   7.887  14.894  0.00  0.00    +0.000 C 
BRANCH   7   8
ATOM      8  N   UNL     1      51.131   6.804  15.299  0.00  0.00    +0.000 NA
ATOM      9  H   UNL     1      52.046   6.943  14.861  0.00  0.00    +0.000 HD
BRANCH   8  11
ATOM     10  C   UNL     1      52.693   7.111  17.286  0.00  0.00    +0.000 C 
ATOM     11  C   UNL     1      51.286   6.764  16.754  0.00  0.00    +0.000 C 
BRANCH  11  12
ATOM     12  C   UNL     1      50.866   5.404  17.278  0.00  0.00    +0.000 A 
ATOM     13  C   UNL     1      51.731   4.326  17.416  0.00  0.00    +0.000 A 
ATOM     14  S   UNL     1      50.910   2.836  17.569  0.00  0.00    +0.000 S 
ATOM     15  C   UNL     1      49.389   3.604  17.533  0.00  0.00    +0.000 A 
ATOM     16  N   UNL     1      48.228   2.897  17.467  0.00  0.00    +0.000 NA
ATOM     17  C   UNL     1      47.164   3.630  17.494  0.00  0.00    +0.000 A 
ATOM     18  N   UNL     1      47.153   4.996  17.637  0.00  0.00    +0.000 N 
ATOM     19  C   UNL     1      48.301   5.751  17.719  0.00  0.00    +0.000 A 
ATOM     20  O   UNL     1      48.268   6.962  17.911  0.00  0.00    +0.000 OA
ATOM     21  C   UNL     1      49.519   4.978  17.565  0.00  0.00    +0.000 A 
ATOM     22  H   UNL     1      46.283   5.499  17.734  0.00  0.00    +0.000 HD
ENDBRANCH  11  12
ENDBRANCH   8  11
ENDBRANCH   7   8
ENDBRANCH   1   7
BRANCH   4  23
ATOM     23  C   UNL     1      45.921   6.189  11.320  0.00  0.00    +0.000 C 
BRANCH  23  24
ATOM     24  N   UNL     1      45.378   4.875  11.722  0.00  0.00    +0.000 NA
ATOM     25  H   UNL     1      44.857   5.027  12.585  0.00  0.00    +0.000 HD
BRANCH  24  26
ATOM     26  CA  UNL     1      44.437   4.361  10.684  0.00  0.00    +0.000 C 
BRANCH  26  27
ATOM     27  C   UNL     1      45.137   3.641   9.536  0.00  0.00    +0.000 A 
ATOM     28  C   UNL     1      45.643   4.331   8.445  0.00  0.00    +0.000 A 
ATOM     29  C   UNL     1      46.201   3.574   7.442  0.00  0.00    +0.000 A 
ATOM     30  N   UNL     1      46.266   2.232   7.473  0.00  0.00    +0.000 NA
ATOM     31  C   UNL     1      45.736   1.655   8.560  0.00  0.00    +0.000 A 
ATOM     32  N   UNL     1      45.172   2.290   9.602  0.00  0.00    +0.000 NA
ENDBRANCH  26  27
BRANCH  26  33
ATOM     33  C   UNL     1      43.372   3.458  11.354  0.00  0.00    +0.000 C 
BRANCH  33  34
ATOM     34  O   UNL     1      43.946   2.556  12.304  0.00  0.00    +0.000 OA
ATOM     35  H   UNL     1      43.504   1.698  12.148  0.00  0.00    +0.000 HD
ENDBRANCH  33  34
ENDBRANCH  26  33
ENDBRANCH  24  26
ENDBRANCH  23  24
ENDBRANCH   4  23
TORSDOF 10
ENDMDL
MODEL 5
REMARK VINA RESULT:    -7.478      2.479      3.408
REMARK INTER + INTRA:         -12.486
REMARK INTER:                 -10.493
REMARK INTRA:                  -1.993
REMARK UNBOUND:                -0.855
REMARK  Name = 
REMARK  11 active torsions:
REMARK  status: ('A' for Active; 'I' for Inactive)
REMARK    1  A    between atoms: C_1  and  C_2
REMARK    2  A    between atoms: C_2  and  N_3
REMARK    3  A    between atoms: C_2  and  C_22
REMARK    4  A    between atoms: N_3  and  C_4
REMARK    5  A    between atoms: C_4  and  C_5
REMARK    6  A    between atoms: C_8  and  C_9
REMARK    7  A    between atoms: C_9  and  N_10
REMARK    8  A    between atoms: N_10  and  CA_11
REMARK    9  A    between atoms: CA_11  and  C_12
REMARK   10  A    between atoms: CA_11  and  C_14
REMARK   11  A    between atoms: C_12  and  O_13
REMARK                            x       y       z     vdW  Elec       q    Type
REMARK                         _______ _______ _______ _____ _____    ______ ____
ROOT
ATOM      1  C   UNL     1      48.247   7.807  12.209  0.00  0.00    +0.000 A 
ATOM      2  C   UNL     1      48.175   6.441  12.501  0.00  0.00    +0.000 A 
ATOM      3  C   UNL     1      46.943   5.827  12.739  0.00  0.00    +0.000 A 
ATOM      4  C   UNL     1      45.754   6.570  12.693  0.00  0.00    +0.000 A 
ATOM      5  C   UNL     1      45.824   7.933  12.383  0.00  0.00    +0.000 A 
ATOM      6  C   UNL     1      47.058   8.546  12.139  0.00  0.00    +0.000 A 
ENDROOT
BRANCH   1   7
ATOM      7  C   UNL     1      49.585   8.475  12.011  0.00  0.00    +0.000 C 
BRANCH   7   8
ATOM      8  N   UNL     1      50.661   7.850  12.790  0.00  0.00    +0.000 NA
ATOM      9  H   UNL     1      51.471   7.692  12.184  0.00  0.00    +0.000 HD
BRANCH   8  11
ATOM     10  C   UNL     1      52.251   9.634  13.668  0.00  0.00    +0.000 C 
ATOM     11  C   UNL     1      51.052   8.696  13.920  0.00  0.00    +0.000 C 
BRANCH  11  12
ATOM     12  C   UNL     1      51.329   7.832  15.135  0.00  0.00    +0.000 A 
ATOM     13  C   UNL     1      52.603   7.492  15.569  0.00  0.00    +0.000 A 
ATOM     14  S   UNL     1      52.603   6.162  16.641  0.00  0.00    +0.000 S 
ATOM     15  C   UNL     1      50.902   6.062  16.609  0.00  0.00    +0.000 A 
ATOM     16  N   UNL     1      50.230   5.033  17.194  0.00  0.00    +0.000 NA
ATOM     17  C   UNL     1      48.943   5.134  17.118  0.00  0.00    +0.000 A 
ATOM     18  N   UNL     1      48.269   6.192  16.562  0.00  0.00    +0.000 N 
ATOM     19  C   UNL     1      48.905   7.259  15.969  0.00  0.00    +0.000 A 
ATOM     20  O   UNL     1      48.285   8.225  15.535  0.00  0.00    +0.000 OA
ATOM     21  C   UNL     1      50.349   7.124  15.921  0.00  0.00    +0.000 A 
ATOM     22  H   UNL     1      47.262   6.246  16.609  0.00  0.00    +0.000 HD
ENDBRANCH  11  12
ENDBRANCH   8  11
ENDBRANCH   7   8
ENDBRANCH   1   7
BRANCH   4  23
ATOM     23  C   UNL     1      44.415   5.888  12.897  0.00  0.00    +0.000 C 
BRANCH  23  24
ATOM     24  N   UNL     1      43.701   5.682  11.620  0.00  0.00    +0.000 NA
ATOM     25  H   UNL     1      44.272   6.113  10.894  0.00  0.00    +0.000 HD
BRANCH  24  26
ATOM     26  CA  UNL     1      43.576   4.224  11.323  0.00  0.00    +0.000 C 
BRANCH  26  27
ATOM     27  C   UNL     1      44.440   3.770  10.151  0.00  0.00    +0.000 A 
ATOM     28  C   UNL     1      45.153   4.673   9.378  0.00  0.00    +0.000 A 
ATOM     29  C   UNL     1      45.851   4.155   8.312  0.00  0.00    +0.000 A 
ATOM     30  N   UNL     1      45.863   2.849   7.995  0.00  0.00    +0.000 NA
ATOM     31  C   UNL     1      45.132   2.058   8.791  0.00  0.00    +0.000 A 
ATOM     32  N   UNL     1      44.417   2.448   9.861  0.00  0.00    +0.000 NA
ENDBRANCH  26  27
BRANCH  26  33
ATOM     33  C   UNL     1      43.880   3.408  12.602  0.00  0.00    +0.000 C 
BRANCH  33  34
ATOM     34  O   UNL     1      43.471   2.043  12.484  0.00  0.00    +0.000 OA
ATOM     35  H   UNL     1      42.704   2.052  11.879  0.00  0.00    +0.000 HD
ENDBRANCH  33  34
ENDBRANCH  26  33
ENDBRANCH  24  26
ENDBRANCH  23  24
ENDBRANCH   4  23
TORSDOF 10
ENDMDL
MODEL 6
REMARK VINA RESULT:    -7.447      2.094      2.597
REMARK INTER + INTRA:         -12.438
REMARK INTER:                 -10.848
REMARK INTRA:                  -1.590
REMARK UNBOUND:                -0.855
REMARK  Name = 
REMARK  11 active torsions:
REMARK  status: ('A' for Active; 'I' for Inactive)
REMARK    1  A    between atoms: C_1  and  C_2
REMARK    2  A    between atoms: C_2  and  N_3
REMARK    3  A    between atoms: C_2  and  C_22
REMARK    4  A    between atoms: N_3  and  C_4
REMARK    5  A    between atoms: C_4  and  C_5
REMARK    6  A    between atoms: C_8  and  C_9
REMARK    7  A    between atoms: C_9  and  N_10
REMARK    8  A    between atoms: N_10  and  CA_11
REMARK    9  A    between atoms: CA_11  and  C_12
REMARK   10  A    between atoms: CA_11  and  C_14
REMARK   11  A    between atoms: C_12  and  O_13
REMARK                            x       y       z     vdW  Elec       q    Type
REMARK                         _______ _______ _______ _____ _____    ______ ____
ROOT
ATOM      1  C   UNL     1      47.727   7.625  12.994  0.00  0.00    +0.000 A 
ATOM      2  C   UNL     1      47.670   6.257  12.707  0.00  0.00    +0.000 A 
ATOM      3  C   UNL     1      46.451   5.643  12.410  0.00  0.00    +0.000 A 
ATOM      4  C   UNL     1      45.261   6.385  12.399  0.00  0.00    +0.000 A 
ATOM      5  C   UNL     1      45.320   7.757  12.669  0.00  0.00    +0.000 A 
ATOM      6  C   UNL     1      46.542   8.373  12.960  0.00  0.00    +0.000 A 
ENDROOT
BRANCH   1   7
ATOM      7  C   UNL     1      49.038   8.270  13.372  0.00  0.00    +0.000 C 
BRANCH   7   8
ATOM      8  N   UNL     1      49.729   7.575  14.464  0.00  0.00    +0.000 NA
ATOM      9  H   UNL     1      50.591   8.076  14.693  0.00  0.00    +0.000 HD
BRANCH   8  11
ATOM     10  C   UNL     1      49.117   8.579  16.722  0.00  0.00    +0.000 C 
ATOM     11  C   UNL     1      48.880   7.490  15.653  0.00  0.00    +0.000 C 
BRANCH  11  12
ATOM     12  C   UNL     1      49.019   6.119  16.286  0.00  0.00    +0.000 A 
ATOM     13  C   UNL     1      47.958   5.246  16.484  0.00  0.00    +0.000 A 
ATOM     14  S   UNL     1      48.317   4.015  17.613  0.00  0.00    +0.000 S 
ATOM     15  C   UNL     1      49.915   4.575  17.802  0.00  0.00    +0.000 A 
ATOM     16  N   UNL     1      50.748   4.066  18.751  0.00  0.00    +0.000 NA
ATOM     17  C   UNL     1      51.939   4.568  18.730  0.00  0.00    +0.000 A 
ATOM     18  N   UNL     1      52.389   5.488  17.814  0.00  0.00    +0.000 N 
ATOM     19  C   UNL     1      51.586   6.021  16.831  0.00  0.00    +0.000 A 
ATOM     20  O   UNL     1      52.025   6.793  15.985  0.00  0.00    +0.000 OA
ATOM     21  C   UNL     1      50.207   5.578  16.900  0.00  0.00    +0.000 A 
ATOM     22  H   UNL     1      53.356   5.777  17.804  0.00  0.00    +0.000 HD
ENDBRANCH  11  12
ENDBRANCH   8  11
ENDBRANCH   7   8
ENDBRANCH   1   7
BRANCH   4  23
ATOM     23  C   UNL     1      43.949   5.724  12.022  0.00  0.00    +0.000 C 
BRANCH  23  24
ATOM     24  N   UNL     1      43.857   5.470  10.570  0.00  0.00    +0.000 NA
ATOM     25  H   UNL     1      44.727   5.805  10.159  0.00  0.00    +0.000 HD
BRANCH  24  26
ATOM     26  CA  UNL     1      43.739   4.006  10.303  0.00  0.00    +0.000 C 
BRANCH  26  27
ATOM     27  C   UNL     1      44.799   3.479   9.341  0.00  0.00    +0.000 A 
ATOM     28  C   UNL     1      45.464   4.317   8.460  0.00  0.00    +0.000 A 
ATOM     29  C   UNL     1      46.357   3.723   7.598  0.00  0.00    +0.000 A 
ATOM     30  N   UNL     1      46.596   2.400   7.573  0.00  0.00    +0.000 NA
ATOM     31  C   UNL     1      45.894   1.671   8.450  0.00  0.00    +0.000 A 
ATOM     32  N   UNL     1      45.003   2.141   9.340  0.00  0.00    +0.000 NA
ENDBRANCH  26  27
BRANCH  26  33
ATOM     33  C   UNL     1      43.756   3.234  11.644  0.00  0.00    +0.000 C 
BRANCH  33  34
ATOM     34  O   UNL     1      42.923   2.072  11.612  0.00  0.00    +0.000 OA
ATOM     35  H   UNL     1      42.630   1.987  10.683  0.00  0.00    +0.000 HD
ENDBRANCH  33  34
ENDBRANCH  26  33
ENDBRANCH  24  26
ENDBRANCH  23  24
ENDBRANCH   4  23
TORSDOF 10
ENDMDL
MODEL 7
REMARK VINA RESULT:    -7.168      3.446      8.524
REMARK INTER + INTRA:         -12.004
REMARK INTER:                 -10.184
REMARK INTRA:                  -1.820
REMARK UNBOUND:                -0.855
REMARK  Name = 
REMARK  11 active torsions:
REMARK  status: ('A' for Active; 'I' for Inactive)
REMARK    1  A    between atoms: C_1  and  C_2
REMARK    2  A    between atoms: C_2  and  N_3
REMARK    3  A    between atoms: C_2  and  C_22
REMARK    4  A    between atoms: N_3  and  C_4
REMARK    5  A    between atoms: C_4  and  C_5
REMARK    6  A    between atoms: C_8  and  C_9
REMARK    7  A    between atoms: C_9  and  N_10
REMARK    8  A    between atoms: N_10  and  CA_11
REMARK    9  A    between atoms: CA_11  and  C_12
REMARK   10  A    between atoms: CA_11  and  C_14
REMARK   11  A    between atoms: C_12  and  O_13
REMARK                            x       y       z     vdW  Elec       q    Type
REMARK                         _______ _______ _______ _____ _____    ______ ____
ROOT
ATOM      1  C   UNL     1      48.864   7.723  14.351  0.00  0.00    +0.000 A 
ATOM      2  C   UNL     1      50.118   7.183  14.655  0.00  0.00    +0.000 A 
ATOM      3  C   UNL     1      50.565   7.122  15.977  0.00  0.00    +0.000 A 
ATOM      4  C   UNL     1      49.766   7.604  17.024  0.00  0.00    +0.000 A 
ATOM      5  C   UNL     1      48.504   8.128  16.722  0.00  0.00    +0.000 A 
ATOM      6  C   UNL     1      48.055   8.183  15.398  0.00  0.00    +0.000 A 
ENDROOT
BRANCH   1   7
ATOM      7  C   UNL     1      48.413   7.840  12.916  0.00  0.00    +0.000 C 
BRANCH   7   8
ATOM      8  N   UNL     1      47.701   6.650  12.437  0.00  0.00    +0.000 NA
ATOM      9  H   UNL     1      47.385   6.098  13.239  0.00  0.00    +0.000 HD
BRANCH   8  11
ATOM     10  C   UNL     1      45.404   7.744  12.354  0.00  0.00    +0.000 C 
ATOM     11  C   UNL     1      46.549   7.021  11.613  0.00  0.00    +0.000 C 
BRANCH  11  12
ATOM     12  C   UNL     1      46.004   5.793  10.910  0.00  0.00    +0.000 A 
ATOM     13  C   UNL     1      45.983   5.636   9.531  0.00  0.00    +0.000 A 
ATOM     14  S   UNL     1      44.912   4.406   9.022  0.00  0.00    +0.000 S 
ATOM     15  C   UNL     1      44.515   4.007  10.631  0.00  0.00    +0.000 A 
ATOM     16  N   UNL     1      43.521   3.126  10.929  0.00  0.00    +0.000 NA
ATOM     17  C   UNL     1      43.380   2.901  12.194  0.00  0.00    +0.000 A 
ATOM     18  N   UNL     1      44.174   3.430  13.181  0.00  0.00    +0.000 N 
ATOM     19  C   UNL     1      45.197   4.316  12.926  0.00  0.00    +0.000 A 
ATOM     20  O   UNL     1      45.935   4.728  13.815  0.00  0.00    +0.000 OA
ATOM     21  C   UNL     1      45.307   4.693  11.529  0.00  0.00    +0.000 A 
ATOM     22  H   UNL     1      44.061   3.148  14.143  0.00  0.00    +0.000 HD
ENDBRANCH  11  12
ENDBRANCH   8  11
ENDBRANCH   7   8
ENDBRANCH   1   7
BRANCH   4  23
ATOM     23  C   UNL     1      50.233   7.484  18.463  0.00  0.00    +0.000 C 
BRANCH  23  24
ATOM     24  N   UNL     1      50.424   6.075  18.865  0.00  0.00    +0.000 NA
ATOM     25  H   UNL     1      50.758   6.089  19.828  0.00  0.00    +0.000 HD
BRANCH  24  26
ATOM     26  CA  UNL     1      49.126   5.340  18.823  0.00  0.00    +0.000 C 
BRANCH  26  27
ATOM     27  C   UNL     1      49.128   4.161  17.856  0.00  0.00    +0.000 A 
ATOM     28  C   UNL     1      48.068   3.924  16.995  0.00  0.00    +0.000 A 
ATOM     29  C   UNL     1      48.153   2.798  16.209  0.00  0.00    +0.000 A 
ATOM     30  N   UNL     1      49.187   1.941  16.248  0.00  0.00    +0.000 NA
ATOM     31  C   UNL     1      50.154   2.246  17.124  0.00  0.00    +0.000 A 
ATOM     32  N   UNL     1      50.183   3.317  17.935  0.00  0.00    +0.000 NA
ENDBRANCH  26  27
BRANCH  26  33
ATOM     33  C   UNL     1      48.737   4.899  20.255  0.00  0.00    +0.000 C 
BRANCH  33  34
ATOM     34  O   UNL     1      48.506   3.491  20.345  0.00  0.00    +0.000 OA
ATOM     35  H   UNL     1      47.971   3.366  21.154  0.00  0.00    +0.000 HD
ENDBRANCH  33  34
ENDBRANCH  26  33
ENDBRANCH  24  26
ENDBRANCH  23  24
ENDBRANCH   4  23
TORSDOF 10
ENDMDL
MODEL 8
REMARK VINA RESULT:    -7.095      2.877      8.761
REMARK INTER + INTRA:         -11.891
REMARK INTER:                 -10.706
REMARK INTRA:                  -1.185
REMARK UNBOUND:                -0.855
REMARK  Name = 
REMARK  11 active torsions:
REMARK  status: ('A' for Active; 'I' for Inactive)
REMARK    1  A    between atoms: C_1  and  C_2
REMARK    2  A    between atoms: C_2  and  N_3
REMARK    3  A    between atoms: C_2  and  C_22
REMARK    4  A    between atoms: N_3  and  C_4
REMARK    5  A    between atoms: C_4  and  C_5
REMARK    6  A    between atoms: C_8  and  C_9
REMARK    7  A    between atoms: C_9  and  N_10
REMARK    8  A    between atoms: N_10  and  CA_11
REMARK    9  A    between atoms: CA_11  and  C_12
REMARK   10  A    between atoms: CA_11  and  C_14
REMARK   11  A    between atoms: C_12  and  O_13
REMARK                            x       y       z     vdW  Elec       q    Type
REMARK                         _______ _______ _______ _____ _____    ______ ____
ROOT
ATOM      1  C   UNL     1      49.162   7.161  14.200  0.00  0.00    +0.000 A 
ATOM      2  C   UNL     1      50.503   7.381  14.534  0.00  0.00    +0.000 A 
ATOM      3  C   UNL     1      50.904   7.431  15.871  0.00  0.00    +0.000 A 
ATOM      4  C   UNL     1      49.970   7.265  16.904  0.00  0.00    +0.000 A 
ATOM      5  C   UNL     1      48.632   7.027  16.570  0.00  0.00    +0.000 A 
ATOM      6  C   UNL     1      48.232   6.972  15.231  0.00  0.00    +0.000 A 
ENDROOT
BRANCH   1   7
ATOM      7  C   UNL     1      48.725   7.167  12.756  0.00  0.00    +0.000 C 
BRANCH   7   8
ATOM      8  N   UNL     1      47.644   6.216  12.477  0.00  0.00    +0.000 NA
ATOM      9  H   UNL     1      47.256   5.875  13.361  0.00  0.00    +0.000 HD
BRANCH   8  11
ATOM     10  C   UNL     1      46.230   8.294  12.073  0.00  0.00    +0.000 C 
ATOM     11  C   UNL     1      46.583   6.842  11.686  0.00  0.00    +0.000 C 
BRANCH  11  12
ATOM     12  C   UNL     1      45.333   5.985  11.734  0.00  0.00    +0.000 A 
ATOM     13  C   UNL     1      44.448   5.966  12.804  0.00  0.00    +0.000 A 
ATOM     14  S   UNL     1      43.423   4.599  12.789  0.00  0.00    +0.000 S 
ATOM     15  C   UNL     1      44.085   4.047  11.319  0.00  0.00    +0.000 A 
ATOM     16  N   UNL     1      43.769   2.828  10.800  0.00  0.00    +0.000 NA
ATOM     17  C   UNL     1      44.321   2.584   9.657  0.00  0.00    +0.000 A 
ATOM     18  N   UNL     1      45.113   3.465   8.961  0.00  0.00    +0.000 N 
ATOM     19  C   UNL     1      45.450   4.711   9.441  0.00  0.00    +0.000 A 
ATOM     20  O   UNL     1      46.105   5.506   8.775  0.00  0.00    +0.000 OA
ATOM     21  C   UNL     1      44.953   4.974  10.778  0.00  0.00    +0.000 A 
ATOM     22  H   UNL     1      45.445   3.241   8.035  0.00  0.00    +0.000 HD
ENDBRANCH  11  12
ENDBRANCH   8  11
ENDBRANCH   7   8
ENDBRANCH   1   7
BRANCH   4  23
ATOM     23  C   UNL     1      50.421   7.265  18.353  0.00  0.00    +0.000 C 
BRANCH  23  24
ATOM     24  N   UNL     1      50.731   5.903  18.833  0.00  0.00    +0.000 NA
ATOM     25  H   UNL     1      51.114   6.005  19.772  0.00  0.00    +0.000 HD
BRANCH  24  26
ATOM     26  CA  UNL     1      49.487   5.082  18.914  0.00  0.00    +0.000 C 
BRANCH  26  27
ATOM     27  C   UNL     1      49.516   3.849  18.018  0.00  0.00    +0.000 A 
ATOM     28  C   UNL     1      50.685   3.140  17.792  0.00  0.00    +0.000 A 
ATOM     29  C   UNL     1      50.605   2.079  16.920  0.00  0.00    +0.000 A 
ATOM     30  N   UNL     1      49.473   1.719  16.290  0.00  0.00    +0.000 NA
ATOM     31  C   UNL     1      48.400   2.475  16.560  0.00  0.00    +0.000 A 
ATOM     32  N   UNL     1      48.358   3.526  17.396  0.00  0.00    +0.000 NA
ENDBRANCH  26  27
BRANCH  26  33
ATOM     33  C   UNL     1      49.212   4.705  20.390  0.00  0.00    +0.000 C 
BRANCH  33  34
ATOM     34  O   UNL     1      48.420   3.521  20.509  0.00  0.00    +0.000 OA
ATOM     35  H   UNL     1      48.926   2.822  20.050  0.00  0.00    +0.000 HD
ENDBRANCH  33  34
ENDBRANCH  26  33
ENDBRANCH  24  26
ENDBRANCH  23  24
ENDBRANCH   4  23
TORSDOF 10
ENDMDL
MODEL 9
REMARK VINA RESULT:    -6.735      2.954      4.431
REMARK INTER + INTRA:         -11.331
REMARK INTER:                  -9.333
REMARK INTRA:                  -1.998
REMARK UNBOUND:                -0.855
REMARK  Name = 
REMARK  11 active torsions:
REMARK  status: ('A' for Active; 'I' for Inactive)
REMARK    1  A    between atoms: C_1  and  C_2
REMARK    2  A    between atoms: C_2  and  N_3
REMARK    3  A    between atoms: C_2  and  C_22
REMARK    4  A    between atoms: N_3  and  C_4
REMARK    5  A    between atoms: C_4  and  C_5
REMARK    6  A    between atoms: C_8  and  C_9
REMARK    7  A    between atoms: C_9  and  N_10
REMARK    8  A    between atoms: N_10  and  CA_11
REMARK    9  A    between atoms: CA_11  and  C_12
REMARK   10  A    between atoms: CA_11  and  C_14
REMARK   11  A    between atoms: C_12  and  O_13
REMARK                            x       y       z     vdW  Elec       q    Type
REMARK                         _______ _______ _______ _____ _____    ______ ____
ROOT
ATOM      1  C   UNL     1      49.964   7.950  16.329  0.00  0.00    +0.000 A 
ATOM      2  C   UNL     1      48.936   8.896  16.390  0.00  0.00    +0.000 A 
ATOM      3  C   UNL     1      47.950   8.941  15.402  0.00  0.00    +0.000 A 
ATOM      4  C   UNL     1      47.974   8.041  14.327  0.00  0.00    +0.000 A 
ATOM      5  C   UNL     1      48.993   7.082  14.274  0.00  0.00    +0.000 A 
ATOM      6  C   UNL     1      49.977   7.034  15.268  0.00  0.00    +0.000 A 
ENDROOT
BRANCH   1   7
ATOM      7  C   UNL     1      51.058   7.945  17.368  0.00  0.00    +0.000 C 
BRANCH   7   8
ATOM      8  N   UNL     1      51.722   6.643  17.498  0.00  0.00    +0.000 NA
ATOM      9  H   UNL     1      52.733   6.784  17.577  0.00  0.00    +0.000 HD
BRANCH   8  11
ATOM     10  C   UNL     1      52.272   5.699  19.798  0.00  0.00    +0.000 C 
ATOM     11  C   UNL     1      51.236   5.920  18.675  0.00  0.00    +0.000 C 
BRANCH  11  12
ATOM     12  C   UNL     1      50.652   4.586  18.252  0.00  0.00    +0.000 A 
ATOM     13  C   UNL     1      51.387   3.412  18.164  0.00  0.00    +0.000 A 
ATOM     14  S   UNL     1      50.605   2.211  17.233  0.00  0.00    +0.000 S 
ATOM     15  C   UNL     1      49.240   3.203  16.996  0.00  0.00    +0.000 A 
ATOM     16  N   UNL     1      48.234   2.851  16.148  0.00  0.00    +0.000 NA
ATOM     17  C   UNL     1      47.253   3.692  16.119  0.00  0.00    +0.000 A 
ATOM     18  N   UNL     1      47.159   4.819  16.899  0.00  0.00    +0.000 N 
ATOM     19  C   UNL     1      48.145   5.207  17.777  0.00  0.00    +0.000 A 
ATOM     20  O   UNL     1      48.012   6.182  18.510  0.00  0.00    +0.000 OA
ATOM     21  C   UNL     1      49.320   4.358  17.747  0.00  0.00    +0.000 A 
ATOM     22  H   UNL     1      46.326   5.388  16.886  0.00  0.00    +0.000 HD
ENDBRANCH  11  12
ENDBRANCH   8  11
ENDBRANCH   7   8
ENDBRANCH   1   7
BRANCH   4  23
ATOM     23  C   UNL     1      46.871   8.058  13.286  0.00  0.00    +0.000 C 
BRANCH  23  24
ATOM     24  N   UNL     1      46.152   6.769  13.224  0.00  0.00    +0.000 NA
ATOM     25  H   UNL     1      45.371   6.839  13.875  0.00  0.00    +0.000 HD
BRANCH  24  26
ATOM     26  CA  UNL     1      45.608   6.541  11.853  0.00  0.00    +0.000 C 
BRANCH  26  27
ATOM     27  C   UNL     1      44.759   5.280  11.740  0.00  0.00    +0.000 A 
ATOM     28  C   UNL     1      44.345   4.578  12.861  0.00  0.00    +0.000 A 
ATOM     29  C   UNL     1      43.633   3.423  12.638  0.00  0.00    +0.000 A 
ATOM     30  N   UNL     1      43.338   2.957  11.412  0.00  0.00    +0.000 NA
ATOM     31  C   UNL     1      43.794   3.696  10.391  0.00  0.00    +0.000 A 
ATOM     32  N   UNL     1      44.492   4.841  10.488  0.00  0.00    +0.000 NA
ENDBRANCH  26  27
BRANCH  26  33
ATOM     33  C   UNL     1      44.826   7.795  11.393  0.00  0.00    +0.000 C 
BRANCH  33  34
ATOM     34  O   UNL     1      43.439   7.520  11.174  0.00  0.00    +0.000 OA
ATOM     35  H   UNL     1      43.026   8.389  11.000  0.00  0.00    +0.000 HD
ENDBRANCH  33  34
ENDBRANCH  26  33
ENDBRANCH  24  26
ENDBRANCH  23  24
ENDBRANCH   4  23
TORSDOF 10
ENDMDL
