MODEL 1
REMARK VINA RESULT:    -7.762      0.000      0.000
REMARK INTER + INTRA:          -9.155
REMARK INTER:                  -9.350
REMARK INTRA:                   0.195
REMARK UNBOUND:                 0.195
REMARK  Name = 
REMARK  4 active torsions:
REMARK  status: ('A' for Active; 'I' for Inactive)
REMARK    1  A    between atoms: N_1  and  C_2
REMARK    2  A    between atoms: C_2  and  C_3
REMARK    3  A    between atoms: C_6  and  C_7
REMARK    4  A    between atoms: C_7  and  N_8
REMARK                            x       y       z     vdW  Elec       q    Type
REMARK                         _______ _______ _______ _____ _____    ______ ____
ROOT
ATOM      1  C   UNL     1      43.923   2.537  10.468  0.00  0.00    +0.000 C 
ENDROOT
BRANCH   1   2
ATOM      2  N   UNL     1      44.714   3.081   9.374  0.00  0.00    +0.000 N 
ATOM      3  C   UNL     1      44.861   4.425   9.136  0.00  0.00    +0.000 A 
ATOM      4  C   UNL     1      45.815   4.586   8.160  0.00  0.00    +0.000 A 
ATOM      5  C   UNL     1      46.285   3.295   7.801  0.00  0.00    +0.000 A 
ATOM      6  C   UNL     1      47.279   2.840   6.909  0.00  0.00    +0.000 A 
ATOM      7  C   UNL     1      47.510   1.468   6.783  0.00  0.00    +0.000 A 
ATOM      8  C   UNL     1      46.751   0.565   7.513  0.00  0.00    +0.000 A 
ATOM      9  F   UNL     1      46.981  -0.748   7.367  0.00  0.00    +0.000 F 
ATOM     10  C   UNL     1      45.759   0.981   8.402  0.00  0.00    +0.000 A 
ATOM     11  C   UNL     1      45.554   2.362   8.546  0.00  0.00    +0.000 A 
ENDBRANCH   1   2
BRANCH   1  15
ATOM     12  C   UNL     1      44.526   6.038  13.032  0.00  0.00    +0.000 C 
ATOM     13  C   UNL     1      43.085   5.547  12.830  0.00  0.00    +0.000 C 
ATOM     14  C   UNL     1      42.950   4.572  11.663  0.00  0.00    +0.000 C 
ATOM     15  C   UNL     1      43.910   3.374  11.763  0.00  0.00    +0.000 C 
ATOM     16  C   UNL     1      45.352   3.826  12.066  0.00  0.00    +0.000 C 
ATOM     17  C   UNL     1      45.442   4.820  13.223  0.00  0.00    +0.000 C 
BRANCH  12  18
ATOM     18  C   UNL     1      45.032   6.947  11.891  0.00  0.00    +0.000 C 
BRANCH  18  19
ATOM     19  N   UNL     1      43.986   7.835  11.396  0.00  0.00    +0.000 NA
ATOM     20  H   UNL     1      44.254   8.200  10.482  0.00  0.00    +0.000 HD
ATOM     21  H   UNL     1      43.901   8.643  12.012  0.00  0.00    +0.000 HD
ENDBRANCH  18  19
ENDBRANCH  12  18
ENDBRANCH   1  15
TORSDOF 4
ENDMDL
MODEL 2
REMARK VINA RESULT:    -7.339      2.573      3.864
REMARK INTER + INTRA:          -8.646
REMARK INTER:                  -8.202
REMARK INTRA:                  -0.444
REMARK UNBOUND:                 0.195
REMARK  Name = 
REMARK  4 active torsions:
REMARK  status: ('A' for Active; 'I' for Inactive)
REMARK    1  A    between atoms: N_1  and  C_2
REMARK    2  A    between atoms: C_2  and  C_3
REMARK    3  A    between atoms: C_6  and  C_7
REMARK    4  A    between atoms: C_7  and  N_8
REMARK                            x       y       z     vdW  Elec       q    Type
REMARK                         _______ _______ _______ _____ _____    ______ ____
ROOT
ATOM      1  C   UNL     1      44.278   6.378  11.539  0.00  0.00    +0.000 C 
ENDROOT
BRANCH   1   2
ATOM      2  N   UNL     1      44.199   4.950  11.273  0.00  0.00    +0.000 N 
ATOM      3  C   UNL     1      43.422   4.082  11.999  0.00  0.00    +0.000 A 
ATOM      4  C   UNL     1      43.433   2.863  11.364  0.00  0.00    +0.000 A 
ATOM      5  C   UNL     1      44.228   2.993  10.195  0.00  0.00    +0.000 A 
ATOM      6  C   UNL     1      44.558   2.112   9.144  0.00  0.00    +0.000 A 
ATOM      7  C   UNL     1      45.383   2.557   8.109  0.00  0.00    +0.000 A 
ATOM      8  C   UNL     1      45.891   3.848   8.131  0.00  0.00    +0.000 A 
ATOM      9  F   UNL     1      46.691   4.251   7.133  0.00  0.00    +0.000 F 
ATOM     10  C   UNL     1      45.587   4.745   9.156  0.00  0.00    +0.000 A 
ATOM     11  C   UNL     1      44.732   4.299  10.176  0.00  0.00    +0.000 A 
ENDBRANCH   1   2
BRANCH   1  15
ATOM     12  C   UNL     1      48.046   7.669  13.366  0.00  0.00    +0.000 C 
ATOM     13  C   UNL     1      46.846   8.623  13.464  0.00  0.00    +0.000 C 
ATOM     14  C   UNL     1      45.715   8.252  12.509  0.00  0.00    +0.000 C 
ATOM     15  C   UNL     1      45.247   6.795  12.664  0.00  0.00    +0.000 C 
ATOM     16  C   UNL     1      46.437   5.814  12.671  0.00  0.00    +0.000 C 
ATOM     17  C   UNL     1      47.558   6.234  13.619  0.00  0.00    +0.000 C 
BRANCH  12  18
ATOM     18  C   UNL     1      48.807   7.772  12.026  0.00  0.00    +0.000 C 
BRANCH  18  19
ATOM     19  N   UNL     1      50.185   7.306  12.144  0.00  0.00    +0.000 NA
ATOM     20  H   UNL     1      50.289   6.766  13.004  0.00  0.00    +0.000 HD
ATOM     21  H   UNL     1      50.813   8.105  12.231  0.00  0.00    +0.000 HD
ENDBRANCH  18  19
ENDBRANCH  12  18
ENDBRANCH   1  15
TORSDOF 4
ENDMDL
MODEL 3
REMARK VINA RESULT:    -6.694      2.782      4.308
REMARK INTER + INTRA:          -7.869
REMARK INTER:                  -7.429
REMARK INTRA:                  -0.441
REMARK UNBOUND:                 0.195
REMARK  Name = 
REMARK  4 active torsions:
REMARK  status: ('A' for Active; 'I' for Inactive)
REMARK    1  A    between atoms: N_1  and  C_2
REMARK    2  A    between atoms: C_2  and  C_3
REMARK    3  A    between atoms: C_6  and  C_7
REMARK    4  A    between atoms: C_7  and  N_8
REMARK                            x       y       z     vdW  Elec       q    Type
REMARK                         _______ _______ _______ _____ _____    ______ ____
ROOT
ATOM      1  C   UNL     1      44.757   6.535  11.761  0.00  0.00    +0.000 C 
ENDROOT
BRANCH   1   2
ATOM      2  N   UNL     1      44.528   5.112  11.565  0.00  0.00    +0.000 N 
ATOM      3  C   UNL     1      43.831   4.325  12.447  0.00  0.00    +0.000 A 
ATOM      4  C   UNL     1      43.640   3.094  11.864  0.00  0.00    +0.000 A 
ATOM      5  C   UNL     1      44.224   3.135  10.571  0.00  0.00    +0.000 A 
ATOM      6  C   UNL     1      44.297   2.206   9.512  0.00  0.00    +0.000 A 
ATOM      7  C   UNL     1      44.957   2.561   8.333  0.00  0.00    +0.000 A 
ATOM      8  C   UNL     1      45.554   3.809   8.218  0.00  0.00    +0.000 A 
ATOM      9  F   UNL     1      46.192   4.124   7.083  0.00  0.00    +0.000 F 
ATOM     10  C   UNL     1      45.502   4.750   9.247  0.00  0.00    +0.000 A 
ATOM     11  C   UNL     1      44.811   4.397  10.417  0.00  0.00    +0.000 A 
ENDBRANCH   1   2
BRANCH   1  15
ATOM     12  C   UNL     1      48.513   8.196  13.287  0.00  0.00    +0.000 C 
ATOM     13  C   UNL     1      48.512   6.720  12.861  0.00  0.00    +0.000 C 
ATOM     14  C   UNL     1      47.104   6.155  12.691  0.00  0.00    +0.000 C 
ATOM     15  C   UNL     1      46.232   6.985  11.733  0.00  0.00    +0.000 C 
ATOM     16  C   UNL     1      46.290   8.488  12.071  0.00  0.00    +0.000 C 
ATOM     17  C   UNL     1      47.714   9.009  12.259  0.00  0.00    +0.000 C 
BRANCH  12  18
ATOM     18  C   UNL     1      47.979   8.424  14.719  0.00  0.00    +0.000 C 
BRANCH  18  19
ATOM     19  N   UNL     1      48.495   7.434  15.658  0.00  0.00    +0.000 NA
ATOM     20  H   UNL     1      49.106   6.783  15.164  0.00  0.00    +0.000 HD
ATOM     21  H   UNL     1      47.725   6.878  16.029  0.00  0.00    +0.000 HD
ENDBRANCH  18  19
ENDBRANCH  12  18
ENDBRANCH   1  15
TORSDOF 4
ENDMDL
MODEL 4
REMARK VINA RESULT:    -6.496      4.249      7.258
REMARK INTER + INTRA:          -7.630
REMARK INTER:                  -7.094
REMARK INTRA:                  -0.536
REMARK UNBOUND:                 0.195
REMARK  Name = 
REMARK  4 active torsions:
REMARK  status: ('A' for Active; 'I' for Inactive)
REMARK    1  A    between atoms: N_1  and  C_2
REMARK    2  A    between atoms: C_2  and  C_3
REMARK    3  A    between atoms: C_6  and  C_7
REMARK    4  A    between atoms: C_7  and  N_8
REMARK                            x       y       z     vdW  Elec       q    Type
REMARK                         _______ _______ _______ _____ _____    ______ ____
ROOT
ATOM      1  C   UNL     1      47.437   5.501  13.253  0.00  0.00    +0.000 C 
ENDROOT
BRANCH   1   2
ATOM      2  N   UNL     1      48.040   5.919  14.509  0.00  0.00    +0.000 N 
ATOM      3  C   UNL     1      48.648   7.135  14.694  0.00  0.00    +0.000 A 
ATOM      4  C   UNL     1      48.929   7.275  16.032  0.00  0.00    +0.000 A 
ATOM      5  C   UNL     1      48.460   6.111  16.695  0.00  0.00    +0.000 A 
ATOM      6  C   UNL     1      48.424   5.714  18.048  0.00  0.00    +0.000 A 
ATOM      7  C   UNL     1      47.877   4.474  18.385  0.00  0.00    +0.000 A 
ATOM      8  C   UNL     1      47.395   3.633  17.392  0.00  0.00    +0.000 A 
ATOM      9  F   UNL     1      46.886   2.442  17.737  0.00  0.00    +0.000 F 
ATOM     10  C   UNL     1      47.417   3.993  16.044  0.00  0.00    +0.000 A 
ATOM     11  C   UNL     1      47.940   5.254  15.717  0.00  0.00    +0.000 A 
ENDBRANCH   1   2
BRANCH   1  15
ATOM     12  C   UNL     1      43.413   5.333  11.529  0.00  0.00    +0.000 C 
ATOM     13  C   UNL     1      43.576   4.897  12.993  0.00  0.00    +0.000 C 
ATOM     14  C   UNL     1      45.033   4.653  13.379  0.00  0.00    +0.000 C 
ATOM     15  C   UNL     1      45.946   5.853  13.078  0.00  0.00    +0.000 C 
ATOM     16  C   UNL     1      45.736   6.382  11.645  0.00  0.00    +0.000 C 
ATOM     17  C   UNL     1      44.265   6.588  11.288  0.00  0.00    +0.000 C 
BRANCH  12  18
ATOM     18  C   UNL     1      43.756   4.221  10.513  0.00  0.00    +0.000 C 
BRANCH  18  19
ATOM     19  N   UNL     1      43.740   4.713   9.140  0.00  0.00    +0.000 NA
ATOM     20  H   UNL     1      44.587   4.409   8.660  0.00  0.00    +0.000 HD
ATOM     21  H   UNL     1      43.762   5.733   9.139  0.00  0.00    +0.000 HD
ENDBRANCH  18  19
ENDBRANCH  12  18
ENDBRANCH   1  15
TORSDOF 4
ENDMDL
MODEL 5
REMARK VINA RESULT:    -6.359      4.337      6.484
REMARK INTER + INTRA:          -7.465
REMARK INTER:                  -6.984
REMARK INTRA:                  -0.481
REMARK UNBOUND:                 0.195
REMARK  Name = 
REMARK  4 active torsions:
REMARK  status: ('A' for Active; 'I' for Inactive)
REMARK    1  A    between atoms: N_1  and  C_2
REMARK    2  A    between atoms: C_2  and  C_3
REMARK    3  A    between atoms: C_6  and  C_7
REMARK    4  A    between atoms: C_7  and  N_8
REMARK                            x       y       z     vdW  Elec       q    Type
REMARK                         _______ _______ _______ _____ _____    ______ ____
ROOT
ATOM      1  C   UNL     1      47.437   4.904  14.010  0.00  0.00    +0.000 C 
ENDROOT
BRANCH   1   2
ATOM      2  N   UNL     1      46.371   5.702  13.423  0.00  0.00    +0.000 N 
ATOM      3  C   UNL     1      46.460   7.056  13.218  0.00  0.00    +0.000 A 
ATOM      4  C   UNL     1      45.370   7.450  12.478  0.00  0.00    +0.000 A 
ATOM      5  C   UNL     1      44.595   6.292  12.204  0.00  0.00    +0.000 A 
ATOM      6  C   UNL     1      43.418   6.068  11.460  0.00  0.00    +0.000 A 
ATOM      7  C   UNL     1      42.895   4.776  11.375  0.00  0.00    +0.000 A 
ATOM      8  C   UNL     1      43.519   3.728  12.038  0.00  0.00    +0.000 A 
ATOM      9  F   UNL     1      42.993   2.498  11.953  0.00  0.00    +0.000 F 
ATOM     10  C   UNL     1      44.684   3.915  12.783  0.00  0.00    +0.000 A 
ATOM     11  C   UNL     1      45.220   5.211  12.838  0.00  0.00    +0.000 A 
ENDBRANCH   1   2
BRANCH   1  15
ATOM     12  C   UNL     1      48.822   3.851  18.031  0.00  0.00    +0.000 C 
ATOM     13  C   UNL     1      48.441   5.317  17.773  0.00  0.00    +0.000 C 
ATOM     14  C   UNL     1      48.322   5.645  16.287  0.00  0.00    +0.000 C 
ATOM     15  C   UNL     1      47.359   4.707  15.538  0.00  0.00    +0.000 C 
ATOM     16  C   UNL     1      47.650   3.225  15.853  0.00  0.00    +0.000 C 
ATOM     17  C   UNL     1      47.788   2.944  17.348  0.00  0.00    +0.000 C 
BRANCH  12  18
ATOM     18  C   UNL     1      50.258   3.500  17.583  0.00  0.00    +0.000 C 
BRANCH  18  19
ATOM     19  N   UNL     1      50.537   2.074  17.717  0.00  0.00    +0.000 NA
ATOM     20  H   UNL     1      51.140   1.920  18.525  0.00  0.00    +0.000 HD
ATOM     21  H   UNL     1      51.060   1.748  16.904  0.00  0.00    +0.000 HD
ENDBRANCH  18  19
ENDBRANCH  12  18
ENDBRANCH   1  15
TORSDOF 4
ENDMDL
MODEL 6
REMARK VINA RESULT:    -6.283      4.199      6.868
REMARK INTER + INTRA:          -7.374
REMARK INTER:                  -6.945
REMARK INTRA:                  -0.429
REMARK UNBOUND:                 0.195
REMARK  Name = 
REMARK  4 active torsions:
REMARK  status: ('A' for Active; 'I' for Inactive)
REMARK    1  A    between atoms: N_1  and  C_2
REMARK    2  A    between atoms: C_2  and  C_3
REMARK    3  A    between atoms: C_6  and  C_7
REMARK    4  A    between atoms: C_7  and  N_8
REMARK                            x       y       z     vdW  Elec       q    Type
REMARK                         _______ _______ _______ _____ _____    ______ ____
ROOT
ATOM      1  C   UNL     1      46.429   6.195  13.236  0.00  0.00    +0.000 C 
ENDROOT
BRANCH   1   2
ATOM      2  N   UNL     1      47.509   7.083  12.837  0.00  0.00    +0.000 N 
ATOM      3  C   UNL     1      48.799   6.665  12.626  0.00  0.00    +0.000 A 
ATOM      4  C   UNL     1      49.505   7.711  12.078  0.00  0.00    +0.000 A 
ATOM      5  C   UNL     1      48.610   8.802  11.929  0.00  0.00    +0.000 A 
ATOM      6  C   UNL     1      48.744  10.098  11.389  0.00  0.00    +0.000 A 
ATOM      7  C   UNL     1      47.643  10.958  11.385  0.00  0.00    +0.000 A 
ATOM      8  C   UNL     1      46.436  10.544  11.930  0.00  0.00    +0.000 A 
ATOM      9  F   UNL     1      45.395  11.389  11.927  0.00  0.00    +0.000 F 
ATOM     10  C   UNL     1      46.269   9.270  12.474  0.00  0.00    +0.000 A 
ATOM     11  C   UNL     1      47.372   8.402  12.446  0.00  0.00    +0.000 A 
ENDBRANCH   1   2
BRANCH   1  15
ATOM     12  C   UNL     1      43.511   4.289  10.581  0.00  0.00    +0.000 C 
ATOM     13  C   UNL     1      42.973   5.003  11.829  0.00  0.00    +0.000 C 
ATOM     14  C   UNL     1      44.064   5.313  12.851  0.00  0.00    +0.000 C 
ATOM     15  C   UNL     1      45.243   6.102  12.255  0.00  0.00    +0.000 C 
ATOM     16  C   UNL     1      45.745   5.467  10.942  0.00  0.00    +0.000 C 
ATOM     17  C   UNL     1      44.621   5.149   9.958  0.00  0.00    +0.000 C 
BRANCH  12  18
ATOM     18  C   UNL     1      44.006   2.852  10.858  0.00  0.00    +0.000 C 
BRANCH  18  19
ATOM     19  N   UNL     1      43.059   2.097  11.672  0.00  0.00    +0.000 NA
ATOM     20  H   UNL     1      43.499   1.236  11.995  0.00  0.00    +0.000 HD
ATOM     21  H   UNL     1      42.263   1.814  11.101  0.00  0.00    +0.000 HD
ENDBRANCH  18  19
ENDBRANCH  12  18
ENDBRANCH   1  15
TORSDOF 4
ENDMDL
MODEL 7
REMARK VINA RESULT:    -6.257      4.127      6.490
REMARK INTER + INTRA:          -7.343
REMARK INTER:                  -6.964
REMARK INTRA:                  -0.379
REMARK UNBOUND:                 0.195
REMARK  Name = 
REMARK  4 active torsions:
REMARK  status: ('A' for Active; 'I' for Inactive)
REMARK    1  A    between atoms: N_1  and  C_2
REMARK    2  A    between atoms: C_2  and  C_3
REMARK    3  A    between atoms: C_6  and  C_7
REMARK    4  A    between atoms: C_7  and  N_8
REMARK                            x       y       z     vdW  Elec       q    Type
REMARK                         _______ _______ _______ _____ _____    ______ ____
ROOT
ATOM      1  C   UNL     1      46.675   6.699  12.424  0.00  0.00    +0.000 C 
ENDROOT
BRANCH   1   2
ATOM      2  N   UNL     1      47.192   8.029  12.138  0.00  0.00    +0.000 N 
ATOM      3  C   UNL     1      46.491   9.185  12.371  0.00  0.00    +0.000 A 
ATOM      4  C   UNL     1      47.339  10.248  12.172  0.00  0.00    +0.000 A 
ATOM      5  C   UNL     1      48.611   9.725  11.824  0.00  0.00    +0.000 A 
ATOM      6  C   UNL     1      49.863  10.318  11.558  0.00  0.00    +0.000 A 
ATOM      7  C   UNL     1      50.954   9.505  11.240  0.00  0.00    +0.000 A 
ATOM      8  C   UNL     1      50.797   8.129  11.166  0.00  0.00    +0.000 A 
ATOM      9  F   UNL     1      51.854   7.368  10.847  0.00  0.00    +0.000 F 
ATOM     10  C   UNL     1      49.573   7.509  11.421  0.00  0.00    +0.000 A 
ATOM     11  C   UNL     1      48.490   8.331  11.769  0.00  0.00    +0.000 A 
ENDBRANCH   1   2
BRANCH   1  15
ATOM     12  C   UNL     1      43.181   4.283  11.353  0.00  0.00    +0.000 C 
ATOM     13  C   UNL     1      42.988   5.378  12.412  0.00  0.00    +0.000 C 
ATOM     14  C   UNL     1      44.309   5.907  12.964  0.00  0.00    +0.000 C 
ATOM     15  C   UNL     1      45.270   6.395  11.866  0.00  0.00    +0.000 C 
ATOM     16  C   UNL     1      45.410   5.358  10.733  0.00  0.00    +0.000 C 
ATOM     17  C   UNL     1      44.067   4.834  10.226  0.00  0.00    +0.000 C 
BRANCH  12  18
ATOM     18  C   UNL     1      43.756   2.968  11.924  0.00  0.00    +0.000 C 
BRANCH  18  19
ATOM     19  N   UNL     1      42.903   1.823  11.621  0.00  0.00    +0.000 NA
ATOM     20  H   UNL     1      43.430   1.141  11.076  0.00  0.00    +0.000 HD
ATOM     21  H   UNL     1      42.125   2.119  11.033  0.00  0.00    +0.000 HD
ENDBRANCH  18  19
ENDBRANCH  12  18
ENDBRANCH   1  15
TORSDOF 4
ENDMDL
MODEL 8
REMARK VINA RESULT:    -6.154      4.009      7.014
REMARK INTER + INTRA:          -7.218
REMARK INTER:                  -6.660
REMARK INTRA:                  -0.558
REMARK UNBOUND:                 0.195
REMARK  Name = 
REMARK  4 active torsions:
REMARK  status: ('A' for Active; 'I' for Inactive)
REMARK    1  A    between atoms: N_1  and  C_2
REMARK    2  A    between atoms: C_2  and  C_3
REMARK    3  A    between atoms: C_6  and  C_7
REMARK    4  A    between atoms: C_7  and  N_8
REMARK                            x       y       z     vdW  Elec       q    Type
REMARK                         _______ _______ _______ _____ _____    ______ ____
ROOT
ATOM      1  C   UNL     1      46.924   6.431  11.658  0.00  0.00    +0.000 C 
ENDROOT
BRANCH   1   2
ATOM      2  N   UNL     1      47.366   7.542  12.486  0.00  0.00    +0.000 N 
ATOM      3  C   UNL     1      47.149   8.860  12.170  0.00  0.00    +0.000 A 
ATOM      4  C   UNL     1      47.518   9.626  13.250  0.00  0.00    +0.000 A 
ATOM      5  C   UNL     1      47.960   8.745  14.272  0.00  0.00    +0.000 A 
ATOM      6  C   UNL     1      48.403   8.943  15.596  0.00  0.00    +0.000 A 
ATOM      7  C   UNL     1      48.772   7.838  16.368  0.00  0.00    +0.000 A 
ATOM      8  C   UNL     1      48.723   6.563  15.825  0.00  0.00    +0.000 A 
ATOM      9  F   UNL     1      49.094   5.518  16.579  0.00  0.00    +0.000 F 
ATOM     10  C   UNL     1      48.292   6.332  14.518  0.00  0.00    +0.000 A 
ATOM     11  C   UNL     1      47.893   7.444  13.760  0.00  0.00    +0.000 A 
ENDBRANCH   1   2
BRANCH   1  15
ATOM     12  C   UNL     1      43.065   4.361  11.780  0.00  0.00    +0.000 C 
ATOM     13  C   UNL     1      43.280   5.519  12.766  0.00  0.00    +0.000 C 
ATOM     14  C   UNL     1      44.746   5.927  12.889  0.00  0.00    +0.000 C 
ATOM     15  C   UNL     1      45.398   6.255  11.534  0.00  0.00    +0.000 C 
ATOM     16  C   UNL     1      45.116   5.157  10.489  0.00  0.00    +0.000 C 
ATOM     17  C   UNL     1      43.643   4.759  10.414  0.00  0.00    +0.000 C 
BRANCH  12  18
ATOM     18  C   UNL     1      43.655   3.020  12.268  0.00  0.00    +0.000 C 
BRANCH  18  19
ATOM     19  N   UNL     1      42.990   1.875  11.654  0.00  0.00    +0.000 NA
ATOM     20  H   UNL     1      43.617   1.071  11.666  0.00  0.00    +0.000 HD
ATOM     21  H   UNL     1      42.800   2.074  10.672  0.00  0.00    +0.000 HD
ENDBRANCH  18  19
ENDBRANCH  12  18
ENDBRANCH   1  15
TORSDOF 4
ENDMDL
MODEL 9
REMARK VINA RESULT:    -5.940      4.851      6.600
REMARK INTER + INTRA:          -6.961
REMARK INTER:                  -6.934
REMARK INTRA:                  -0.028
REMARK UNBOUND:                 0.195
REMARK  Name = 
REMARK  4 active torsions:
REMARK  status: ('A' for Active; 'I' for Inactive)
REMARK    1  A    between atoms: N_1  and  C_2
REMARK    2  A    between atoms: C_2  and  C_3
REMARK    3  A    between atoms: C_6  and  C_7
REMARK    4  A    between atoms: C_7  and  N_8
REMARK                            x       y       z     vdW  Elec       q    Type
REMARK                         _______ _______ _______ _____ _____    ______ ____
ROOT
ATOM      1  C   UNL     1      46.723   4.451  15.184  0.00  0.00    +0.000 C 
ENDROOT
BRANCH   1   2
ATOM      2  N   UNL     1      46.678   5.208  13.943  0.00  0.00    +0.000 N 
ATOM      3  C   UNL     1      47.640   6.111  13.566  0.00  0.00    +0.000 A 
ATOM      4  C   UNL     1      47.387   6.492  12.270  0.00  0.00    +0.000 A 
ATOM      5  C   UNL     1      46.240   5.782  11.829  0.00  0.00    +0.000 A 
ATOM      6  C   UNL     1      45.551   5.722  10.599  0.00  0.00    +0.000 A 
ATOM      7  C   UNL     1      44.428   4.900  10.482  0.00  0.00    +0.000 A 
ATOM      8  C   UNL     1      43.984   4.168  11.574  0.00  0.00    +0.000 A 
ATOM      9  F   UNL     1      42.896   3.395  11.443  0.00  0.00    +0.000 F 
ATOM     10  C   UNL     1      44.640   4.206  12.805  0.00  0.00    +0.000 A 
ATOM     11  C   UNL     1      45.786   5.010  12.905  0.00  0.00    +0.000 A 
ENDBRANCH   1   2
BRANCH   1  15
ATOM     12  C   UNL     1      49.702   4.357  18.396  0.00  0.00    +0.000 C 
ATOM     13  C   UNL     1      49.476   3.063  17.601  0.00  0.00    +0.000 C 
ATOM     14  C   UNL     1      48.196   3.096  16.768  0.00  0.00    +0.000 C 
ATOM     15  C   UNL     1      48.116   4.314  15.833  0.00  0.00    +0.000 C 
ATOM     16  C   UNL     1      48.437   5.625  16.579  0.00  0.00    +0.000 C 
ATOM     17  C   UNL     1      49.709   5.543  17.420  0.00  0.00    +0.000 C 
BRANCH  12  18
ATOM     18  C   UNL     1      48.674   4.571  19.529  0.00  0.00    +0.000 C 
BRANCH  18  19
ATOM     19  N   UNL     1      48.423   3.344  20.277  0.00  0.00    +0.000 NA
ATOM     20  H   UNL     1      47.730   3.524  21.003  0.00  0.00    +0.000 HD
ATOM     21  H   UNL     1      49.274   3.056  20.760  0.00  0.00    +0.000 HD
ENDBRANCH  18  19
ENDBRANCH  12  18
ENDBRANCH   1  15
TORSDOF 4
ENDMDL
