MODEL 1
REMARK VINA RESULT:    -7.350      0.000      0.000
REMARK INTER + INTRA:         -10.736
REMARK INTER:                  -9.928
REMARK INTRA:                  -0.808
REMARK UNBOUND:                -0.808
REMARK  Name = 
REMARK  7 active torsions:
REMARK  status: ('A' for Active; 'I' for Inactive)
REMARK    1  A    between atoms: C_1  and  S_2
REMARK    2  A    between atoms: S_2  and  C_5
REMARK    3  A    between atoms: N_11  and  C_12
REMARK    4  A    between atoms: C_12  and  C_13
REMARK    5  A    between atoms: C_16  and  O_17
REMARK    6  A    between atoms: O_17  and  C_18
REMARK    7  A    between atoms: C_18  and  C_19
REMARK                            x       y       z     vdW  Elec       q    Type
REMARK                         _______ _______ _______ _____ _____    ______ ____
ROOT
ATOM      1  C   UNL     1      44.680   9.219  11.668  0.00  0.00    +0.000 A 
ATOM      2  C   UNL     1      45.767   9.533  12.473  0.00  0.00    +0.000 A 
ATOM      3  C   UNL     1      46.481   8.483  13.044  0.00  0.00    +0.000 A 
ATOM      4  C   UNL     1      46.055   7.172  12.767  0.00  0.00    +0.000 A 
ATOM      5  C   UNL     1      46.501   5.881  13.151  0.00  0.00    +0.000 A 
ATOM      6  C   UNL     1      45.686   4.959  12.534  0.00  0.00    +0.000 A 
ATOM      7  N   UNL     1      44.754   5.644  11.788  0.00  0.00    +0.000 N 
ATOM      8  C   UNL     1      44.951   7.000  11.928  0.00  0.00    +0.000 A 
ATOM      9  N   UNL     1      44.216   7.977  11.347  0.00  0.00    +0.000 NA
ENDROOT
BRANCH   1  11
ATOM     10  C   UNL     1      44.910  11.478   9.970  0.00  0.00    +0.000 C 
ATOM     11  S   UNL     1      43.757  10.566  10.951  0.00  0.00    +0.000 S 
ATOM     12  O   UNL     1      43.335  11.421  12.048  0.00  0.00    +0.000 OA
ATOM     13  O   UNL     1      42.777   9.981  10.051  0.00  0.00    +0.000 OA
ENDBRANCH   1  11
BRANCH   7  14
ATOM     14  C   UNL     1      43.753   5.011  10.939  0.00  0.00    +0.000 C 
BRANCH  14  15
ATOM     15  C   UNL     1      44.401   4.126   9.906  0.00  0.00    +0.000 A 
ATOM     16  C   UNL     1      44.222   2.738   9.960  0.00  0.00    +0.000 A 
ATOM     17  C   UNL     1      44.908   1.897   9.082  0.00  0.00    +0.000 A 
ATOM     18  C   UNL     1      45.790   2.429   8.143  0.00  0.00    +0.000 A 
ATOM     19  C   UNL     1      45.932   3.813   8.048  0.00  0.00    +0.000 A 
ATOM     20  C   UNL     1      45.242   4.658   8.920  0.00  0.00    +0.000 A 
BRANCH  18  21
ATOM     21  O   UNL     1      46.568   1.704   7.278  0.00  0.00    +0.000 OA
BRANCH  21  22
ATOM     22  C   UNL     1      47.804   2.304   6.889  0.00  0.00    +0.000 C 
BRANCH  22  23
ATOM     23  C   UNL     1      47.838   2.447   5.379  0.00  0.00    +0.000 C 
ATOM     24  F   UNL     1      46.584   2.725   4.931  0.00  0.00    +0.000 F 
ENDBRANCH  22  23
ENDBRANCH  21  22
ENDBRANCH  18  21
ENDBRANCH  14  15
ENDBRANCH   7  14
TORSDOF 6
ENDMDL
MODEL 2
REMARK VINA RESULT:    -7.007      4.045      5.254
REMARK INTER + INTRA:         -10.273
REMARK INTER:                 -10.157
REMARK INTRA:                  -0.116
REMARK UNBOUND:                -0.808
REMARK  Name = 
REMARK  7 active torsions:
REMARK  status: ('A' for Active; 'I' for Inactive)
REMARK    1  A    between atoms: C_1  and  S_2
REMARK    2  A    between atoms: S_2  and  C_5
REMARK    3  A    between atoms: N_11  and  C_12
REMARK    4  A    between atoms: C_12  and  C_13
REMARK    5  A    between atoms: C_16  and  O_17
REMARK    6  A    between atoms: O_17  and  C_18
REMARK    7  A    between atoms: C_18  and  C_19
REMARK                            x       y       z     vdW  Elec       q    Type
REMARK                         _______ _______ _______ _____ _____    ______ ____
ROOT
ATOM      1  C   UNL     1      47.741   4.587  15.629  0.00  0.00    +0.000 A 
ATOM      2  C   UNL     1      48.573   5.683  15.808  0.00  0.00    +0.000 A 
ATOM      3  C   UNL     1      48.427   6.763  14.943  0.00  0.00    +0.000 A 
ATOM      4  C   UNL     1      47.443   6.673  13.942  0.00  0.00    +0.000 A 
ATOM      5  C   UNL     1      47.005   7.531  12.900  0.00  0.00    +0.000 A 
ATOM      6  C   UNL     1      45.971   6.899  12.248  0.00  0.00    +0.000 A 
ATOM      7  N   UNL     1      45.765   5.680  12.853  0.00  0.00    +0.000 N 
ATOM      8  C   UNL     1      46.664   5.514  13.883  0.00  0.00    +0.000 A 
ATOM      9  N   UNL     1      46.761   4.432  14.691  0.00  0.00    +0.000 NA
ENDROOT
BRANCH   1  11
ATOM     10  C   UNL     1      49.051   3.737  17.995  0.00  0.00    +0.000 C 
ATOM     11  S   UNL     1      47.943   3.197  16.729  0.00  0.00    +0.000 S 
ATOM     12  O   UNL     1      48.609   2.152  15.972  0.00  0.00    +0.000 OA
ATOM     13  O   UNL     1      46.651   2.952  17.348  0.00  0.00    +0.000 OA
ENDBRANCH   1  11
BRANCH   7  14
ATOM     14  C   UNL     1      44.711   4.744  12.482  0.00  0.00    +0.000 C 
BRANCH  14  15
ATOM     15  C   UNL     1      44.865   4.294  11.053  0.00  0.00    +0.000 A 
ATOM     16  C   UNL     1      44.588   2.967  10.702  0.00  0.00    +0.000 A 
ATOM     17  C   UNL     1      44.837   2.505   9.408  0.00  0.00    +0.000 A 
ATOM     18  C   UNL     1      45.375   3.360   8.448  0.00  0.00    +0.000 A 
ATOM     19  C   UNL     1      45.603   4.697   8.775  0.00  0.00    +0.000 A 
ATOM     20  C   UNL     1      45.349   5.164  10.067  0.00  0.00    +0.000 A 
BRANCH  18  21
ATOM     21  O   UNL     1      45.724   3.006   7.170  0.00  0.00    +0.000 OA
BRANCH  21  22
ATOM     22  C   UNL     1      47.102   3.165   6.828  0.00  0.00    +0.000 C 
BRANCH  22  23
ATOM     23  C   UNL     1      47.689   1.811   6.475  0.00  0.00    +0.000 C 
ATOM     24  F   UNL     1      47.596   0.992   7.557  0.00  0.00    +0.000 F 
ENDBRANCH  22  23
ENDBRANCH  21  22
ENDBRANCH  18  21
ENDBRANCH  14  15
ENDBRANCH   7  14
TORSDOF 6
ENDMDL
MODEL 3
REMARK VINA RESULT:    -6.397      5.007      7.340
REMARK INTER + INTRA:          -9.449
REMARK INTER:                  -8.544
REMARK INTRA:                  -0.904
REMARK UNBOUND:                -0.808
REMARK  Name = 
REMARK  7 active torsions:
REMARK  status: ('A' for Active; 'I' for Inactive)
REMARK    1  A    between atoms: C_1  and  S_2
REMARK    2  A    between atoms: S_2  and  C_5
REMARK    3  A    between atoms: N_11  and  C_12
REMARK    4  A    between atoms: C_12  and  C_13
REMARK    5  A    between atoms: C_16  and  O_17
REMARK    6  A    between atoms: O_17  and  C_18
REMARK    7  A    between atoms: C_18  and  C_19
REMARK                            x       y       z     vdW  Elec       q    Type
REMARK                         _______ _______ _______ _____ _____    ______ ____
ROOT
ATOM      1  C   UNL     1      48.181   5.075  16.571  0.00  0.00    +0.000 A 
ATOM      2  C   UNL     1      48.172   5.664  17.828  0.00  0.00    +0.000 A 
ATOM      3  C   UNL     1      48.482   7.018  17.916  0.00  0.00    +0.000 A 
ATOM      4  C   UNL     1      48.784   7.702  16.726  0.00  0.00    +0.000 A 
ATOM      5  C   UNL     1      49.143   9.038  16.411  0.00  0.00    +0.000 A 
ATOM      6  C   UNL     1      49.294   9.117  15.045  0.00  0.00    +0.000 A 
ATOM      7  N   UNL     1      49.043   7.873  14.514  0.00  0.00    +0.000 N 
ATOM      8  C   UNL     1      48.744   6.987  15.525  0.00  0.00    +0.000 A 
ATOM      9  N   UNL     1      48.454   5.673  15.375  0.00  0.00    +0.000 NA
ENDROOT
BRANCH   1  11
ATOM     10  C   UNL     1      49.197   2.489  17.138  0.00  0.00    +0.000 C 
ATOM     11  S   UNL     1      47.800   3.336  16.462  0.00  0.00    +0.000 S 
ATOM     12  O   UNL     1      47.723   3.007  15.049  0.00  0.00    +0.000 OA
ATOM     13  O   UNL     1      46.668   3.091  17.341  0.00  0.00    +0.000 OA
ENDBRANCH   1  11
BRANCH   7  14
ATOM     14  C   UNL     1      49.043   7.571  13.088  0.00  0.00    +0.000 C 
BRANCH  14  15
ATOM     15  C   UNL     1      47.638   7.496  12.551  0.00  0.00    +0.000 A 
ATOM     16  C   UNL     1      46.683   8.439  12.952  0.00  0.00    +0.000 A 
ATOM     17  C   UNL     1      45.349   8.316  12.555  0.00  0.00    +0.000 A 
ATOM     18  C   UNL     1      44.948   7.243  11.761  0.00  0.00    +0.000 A 
ATOM     19  C   UNL     1      45.903   6.331  11.315  0.00  0.00    +0.000 A 
ATOM     20  C   UNL     1      47.239   6.454  11.703  0.00  0.00    +0.000 A 
BRANCH  18  21
ATOM     21  O   UNL     1      43.662   6.979  11.367  0.00  0.00    +0.000 OA
BRANCH  21  22
ATOM     22  C   UNL     1      43.270   5.607  11.379  0.00  0.00    +0.000 C 
BRANCH  22  23
ATOM     23  C   UNL     1      42.877   5.210  12.790  0.00  0.00    +0.000 C 
ATOM     24  F   UNL     1      43.880   4.472  13.339  0.00  0.00    +0.000 F 
ENDBRANCH  22  23
ENDBRANCH  21  22
ENDBRANCH  18  21
ENDBRANCH  14  15
ENDBRANCH   7  14
TORSDOF 6
ENDMDL
MODEL 4
REMARK VINA RESULT:    -6.137      6.257      8.254
REMARK INTER + INTRA:          -9.097
REMARK INTER:                  -8.904
REMARK INTRA:                  -0.193
REMARK UNBOUND:                -0.808
REMARK  Name = 
REMARK  7 active torsions:
REMARK  status: ('A' for Active; 'I' for Inactive)
REMARK    1  A    between atoms: C_1  and  S_2
REMARK    2  A    between atoms: S_2  and  C_5
REMARK    3  A    between atoms: N_11  and  C_12
REMARK    4  A    between atoms: C_12  and  C_13
REMARK    5  A    between atoms: C_16  and  O_17
REMARK    6  A    between atoms: O_17  and  C_18
REMARK    7  A    between atoms: C_18  and  C_19
REMARK                            x       y       z     vdW  Elec       q    Type
REMARK                         _______ _______ _______ _____ _____    ______ ____
ROOT
ATOM      1  C   UNL     1      45.150   4.597  12.371  0.00  0.00    +0.000 A 
ATOM      2  C   UNL     1      45.635   5.574  11.511  0.00  0.00    +0.000 A 
ATOM      3  C   UNL     1      46.703   6.353  11.945  0.00  0.00    +0.000 A 
ATOM      4  C   UNL     1      47.222   6.100  13.227  0.00  0.00    +0.000 A 
ATOM      5  C   UNL     1      48.268   6.663  14.004  0.00  0.00    +0.000 A 
ATOM      6  C   UNL     1      48.322   5.971  15.192  0.00  0.00    +0.000 A 
ATOM      7  N   UNL     1      47.341   5.006  15.170  0.00  0.00    +0.000 N 
ATOM      8  C   UNL     1      46.645   5.076  13.983  0.00  0.00    +0.000 A 
ATOM      9  N   UNL     1      45.607   4.289  13.619  0.00  0.00    +0.000 NA
ENDROOT
BRANCH   1  11
ATOM     10  C   UNL     1      44.271   2.890  10.285  0.00  0.00    +0.000 C 
ATOM     11  S   UNL     1      43.770   3.611  11.819  0.00  0.00    +0.000 S 
ATOM     12  O   UNL     1      42.678   4.529  11.542  0.00  0.00    +0.000 OA
ATOM     13  O   UNL     1      43.604   2.533  12.780  0.00  0.00    +0.000 OA
ENDBRANCH   1  11
BRANCH   7  14
ATOM     14  C   UNL     1      47.124   4.029  16.229  0.00  0.00    +0.000 C 
BRANCH  14  15
ATOM     15  C   UNL     1      48.433   3.536  16.788  0.00  0.00    +0.000 A 
ATOM     16  C   UNL     1      49.224   4.385  17.572  0.00  0.00    +0.000 A 
ATOM     17  C   UNL     1      50.492   3.985  18.000  0.00  0.00    +0.000 A 
ATOM     18  C   UNL     1      50.991   2.733  17.642  0.00  0.00    +0.000 A 
ATOM     19  C   UNL     1      50.188   1.862  16.907  0.00  0.00    +0.000 A 
ATOM     20  C   UNL     1      48.917   2.257  16.483  0.00  0.00    +0.000 A 
BRANCH  18  21
ATOM     21  O   UNL     1      52.241   2.258  17.942  0.00  0.00    +0.000 OA
BRANCH  21  22
ATOM     22  C   UNL     1      52.488   0.889  17.620  0.00  0.00    +0.000 C 
BRANCH  22  23
ATOM     23  C   UNL     1      53.923   0.736  17.151  0.00  0.00    +0.000 C 
ATOM     24  F   UNL     1      54.593   1.895  17.387  0.00  0.00    +0.000 F 
ENDBRANCH  22  23
ENDBRANCH  21  22
ENDBRANCH  18  21
ENDBRANCH  14  15
ENDBRANCH   7  14
TORSDOF 6
ENDMDL
MODEL 5
REMARK VINA RESULT:    -6.078      3.949      7.288
REMARK INTER + INTRA:          -9.017
REMARK INTER:                  -8.043
REMARK INTRA:                  -0.975
REMARK UNBOUND:                -0.808
REMARK  Name = 
REMARK  7 active torsions:
REMARK  status: ('A' for Active; 'I' for Inactive)
REMARK    1  A    between atoms: C_1  and  S_2
REMARK    2  A    between atoms: S_2  and  C_5
REMARK    3  A    between atoms: N_11  and  C_12
REMARK    4  A    between atoms: C_12  and  C_13
REMARK    5  A    between atoms: C_16  and  O_17
REMARK    6  A    between atoms: O_17  and  C_18
REMARK    7  A    between atoms: C_18  and  C_19
REMARK                            x       y       z     vdW  Elec       q    Type
REMARK                         _______ _______ _______ _____ _____    ______ ____
ROOT
ATOM      1  C   UNL     1      45.107   3.518   9.189  0.00  0.00    +0.000 A 
ATOM      2  C   UNL     1      44.450   2.409   9.704  0.00  0.00    +0.000 A 
ATOM      3  C   UNL     1      43.814   2.540  10.934  0.00  0.00    +0.000 A 
ATOM      4  C   UNL     1      43.877   3.789  11.576  0.00  0.00    +0.000 A 
ATOM      5  C   UNL     1      43.378   4.302  12.801  0.00  0.00    +0.000 A 
ATOM      6  C   UNL     1      43.744   5.627  12.878  0.00  0.00    +0.000 A 
ATOM      7  N   UNL     1      44.456   5.940  11.741  0.00  0.00    +0.000 N 
ATOM      8  C   UNL     1      44.562   4.826  10.938  0.00  0.00    +0.000 A 
ATOM      9  N   UNL     1      45.202   4.760   9.747  0.00  0.00    +0.000 NA
ENDROOT
BRANCH   1  11
ATOM     10  C   UNL     1      46.858   1.838   7.722  0.00  0.00    +0.000 C 
ATOM     11  S   UNL     1      45.936   3.343   7.619  0.00  0.00    +0.000 S 
ATOM     12  O   UNL     1      46.885   4.439   7.518  0.00  0.00    +0.000 OA
ATOM     13  O   UNL     1      44.906   3.161   6.610  0.00  0.00    +0.000 OA
ENDBRANCH   1  11
BRANCH   7  14
ATOM     14  C   UNL     1      44.962   7.269  11.428  0.00  0.00    +0.000 C 
BRANCH  14  15
ATOM     15  C   UNL     1      46.219   7.567  12.203  0.00  0.00    +0.000 A 
ATOM     16  C   UNL     1      47.361   6.780  12.015  0.00  0.00    +0.000 A 
ATOM     17  C   UNL     1      48.495   6.968  12.809  0.00  0.00    +0.000 A 
ATOM     18  C   UNL     1      48.500   7.939  13.808  0.00  0.00    +0.000 A 
ATOM     19  C   UNL     1      47.386   8.763  13.965  0.00  0.00    +0.000 A 
ATOM     20  C   UNL     1      46.252   8.582  13.169  0.00  0.00    +0.000 A 
BRANCH  18  21
ATOM     21  O   UNL     1      49.523   8.170  14.691  0.00  0.00    +0.000 OA
BRANCH  21  22
ATOM     22  C   UNL     1      50.050   7.023  15.358  0.00  0.00    +0.000 C 
BRANCH  22  23
ATOM     23  C   UNL     1      49.131   6.642  16.503  0.00  0.00    +0.000 C 
ATOM     24  F   UNL     1      48.356   5.592  16.120  0.00  0.00    +0.000 F 
ENDBRANCH  22  23
ENDBRANCH  21  22
ENDBRANCH  18  21
ENDBRANCH  14  15
ENDBRANCH   7  14
TORSDOF 6
ENDMDL
MODEL 6
REMARK VINA RESULT:    -5.928      3.070      3.923
REMARK INTER + INTRA:          -8.816
REMARK INTER:                  -8.288
REMARK INTRA:                  -0.528
REMARK UNBOUND:                -0.808
REMARK  Name = 
REMARK  7 active torsions:
REMARK  status: ('A' for Active; 'I' for Inactive)
REMARK    1  A    between atoms: C_1  and  S_2
REMARK    2  A    between atoms: S_2  and  C_5
REMARK    3  A    between atoms: N_11  and  C_12
REMARK    4  A    between atoms: C_12  and  C_13
REMARK    5  A    between atoms: C_16  and  O_17
REMARK    6  A    between atoms: O_17  and  C_18
REMARK    7  A    between atoms: C_18  and  C_19
REMARK                            x       y       z     vdW  Elec       q    Type
REMARK                         _______ _______ _______ _____ _____    ______ ____
ROOT
ATOM      1  C   UNL     1      47.532   7.770  13.636  0.00  0.00    +0.000 A 
ATOM      2  C   UNL     1      47.733   9.131  13.447  0.00  0.00    +0.000 A 
ATOM      3  C   UNL     1      46.827   9.820  12.647  0.00  0.00    +0.000 A 
ATOM      4  C   UNL     1      45.765   9.093  12.082  0.00  0.00    +0.000 A 
ATOM      5  C   UNL     1      44.675   9.422  11.235  0.00  0.00    +0.000 A 
ATOM      6  C   UNL     1      43.941   8.274  11.036  0.00  0.00    +0.000 A 
ATOM      7  N   UNL     1      44.548   7.253  11.731  0.00  0.00    +0.000 N 
ATOM      8  C   UNL     1      45.675   7.727  12.366  0.00  0.00    +0.000 A 
ATOM      9  N   UNL     1      46.524   7.002  13.131  0.00  0.00    +0.000 NA
ENDROOT
BRANCH   1  11
ATOM     10  C   UNL     1      48.764   7.750  16.190  0.00  0.00    +0.000 C 
ATOM     11  S   UNL     1      48.705   6.887  14.648  0.00  0.00    +0.000 S 
ATOM     12  O   UNL     1      50.003   7.027  14.012  0.00  0.00    +0.000 OA
ATOM     13  O   UNL     1      48.144   5.569  14.901  0.00  0.00    +0.000 OA
ENDBRANCH   1  11
BRANCH   7  14
ATOM     14  C   UNL     1      44.030   5.894  11.816  0.00  0.00    +0.000 C 
BRANCH  14  15
ATOM     15  C   UNL     1      44.546   5.046  10.683  0.00  0.00    +0.000 A 
ATOM     16  C   UNL     1      45.594   5.512   9.879  0.00  0.00    +0.000 A 
ATOM     17  C   UNL     1      46.006   4.792   8.756  0.00  0.00    +0.000 A 
ATOM     18  C   UNL     1      45.371   3.599   8.414  0.00  0.00    +0.000 A 
ATOM     19  C   UNL     1      44.363   3.101   9.240  0.00  0.00    +0.000 A 
ATOM     20  C   UNL     1      43.953   3.816  10.368  0.00  0.00    +0.000 A 
BRANCH  18  21
ATOM     21  O   UNL     1      45.639   2.843   7.303  0.00  0.00    +0.000 OA
BRANCH  21  22
ATOM     22  C   UNL     1      46.956   2.296   7.217  0.00  0.00    +0.000 C 
BRANCH  22  23
ATOM     23  C   UNL     1      47.523   2.570   5.838  0.00  0.00    +0.000 C 
ATOM     24  F   UNL     1      46.499   2.826   4.979  0.00  0.00    +0.000 F 
ENDBRANCH  22  23
ENDBRANCH  21  22
ENDBRANCH  18  21
ENDBRANCH  14  15
ENDBRANCH   7  14
TORSDOF 6
ENDMDL
MODEL 7
REMARK VINA RESULT:    -5.804      3.782      7.075
REMARK INTER + INTRA:          -8.648
REMARK INTER:                  -7.715
REMARK INTRA:                  -0.932
REMARK UNBOUND:                -0.808
REMARK  Name = 
REMARK  7 active torsions:
REMARK  status: ('A' for Active; 'I' for Inactive)
REMARK    1  A    between atoms: C_1  and  S_2
REMARK    2  A    between atoms: S_2  and  C_5
REMARK    3  A    between atoms: N_11  and  C_12
REMARK    4  A    between atoms: C_12  and  C_13
REMARK    5  A    between atoms: C_16  and  O_17
REMARK    6  A    between atoms: O_17  and  C_18
REMARK    7  A    between atoms: C_18  and  C_19
REMARK                            x       y       z     vdW  Elec       q    Type
REMARK                         _______ _______ _______ _____ _____    ______ ____
ROOT
ATOM      1  C   UNL     1      45.049   3.495   9.253  0.00  0.00    +0.000 A 
ATOM      2  C   UNL     1      44.417   2.383   9.794  0.00  0.00    +0.000 A 
ATOM      3  C   UNL     1      43.804   2.519  11.035  0.00  0.00    +0.000 A 
ATOM      4  C   UNL     1      43.863   3.776  11.663  0.00  0.00    +0.000 A 
ATOM      5  C   UNL     1      43.383   4.296  12.892  0.00  0.00    +0.000 A 
ATOM      6  C   UNL     1      43.734   5.626  12.946  0.00  0.00    +0.000 A 
ATOM      7  N   UNL     1      44.418   5.936  11.793  0.00  0.00    +0.000 N 
ATOM      8  C   UNL     1      44.523   4.815  10.999  0.00  0.00    +0.000 A 
ATOM      9  N   UNL     1      45.139   4.744   9.796  0.00  0.00    +0.000 NA
ENDROOT
BRANCH   1  11
ATOM     10  C   UNL     1      46.784   1.816   7.767  0.00  0.00    +0.000 C 
ATOM     11  S   UNL     1      45.848   3.313   7.670  0.00  0.00    +0.000 S 
ATOM     12  O   UNL     1      46.786   4.415   7.540  0.00  0.00    +0.000 OA
ATOM     13  O   UNL     1      44.800   3.114   6.682  0.00  0.00    +0.000 OA
ENDBRANCH   1  11
BRANCH   7  14
ATOM     14  C   UNL     1      44.901   7.268  11.454  0.00  0.00    +0.000 C 
BRANCH  14  15
ATOM     15  C   UNL     1      46.207   7.562  12.145  0.00  0.00    +0.000 A 
ATOM     16  C   UNL     1      46.263   8.532  13.154  0.00  0.00    +0.000 A 
ATOM     17  C   UNL     1      47.485   8.899  13.723  0.00  0.00    +0.000 A 
ATOM     18  C   UNL     1      48.669   8.309  13.285  0.00  0.00    +0.000 A 
ATOM     19  C   UNL     1      48.615   7.304  12.319  0.00  0.00    +0.000 A 
ATOM     20  C   UNL     1      47.394   6.930  11.753  0.00  0.00    +0.000 A 
BRANCH  18  21
ATOM     21  O   UNL     1      49.929   8.633  13.716  0.00  0.00    +0.000 OA
BRANCH  21  22
ATOM     22  C   UNL     1      50.881   8.948  12.699  0.00  0.00    +0.000 C 
BRANCH  22  23
ATOM     23  C   UNL     1      50.638  10.363  12.207  0.00  0.00    +0.000 C 
ATOM     24  F   UNL     1      49.859  10.317  11.093  0.00  0.00    +0.000 F 
ENDBRANCH  22  23
ENDBRANCH  21  22
ENDBRANCH  18  21
ENDBRANCH  14  15
ENDBRANCH   7  14
TORSDOF 6
ENDMDL
MODEL 8
REMARK VINA RESULT:    -5.322      5.586      8.594
REMARK INTER + INTRA:          -7.996
REMARK INTER:                  -7.091
REMARK INTRA:                  -0.906
REMARK UNBOUND:                -0.808
REMARK  Name = 
REMARK  7 active torsions:
REMARK  status: ('A' for Active; 'I' for Inactive)
REMARK    1  A    between atoms: C_1  and  S_2
REMARK    2  A    between atoms: S_2  and  C_5
REMARK    3  A    between atoms: N_11  and  C_12
REMARK    4  A    between atoms: C_12  and  C_13
REMARK    5  A    between atoms: C_16  and  O_17
REMARK    6  A    between atoms: O_17  and  C_18
REMARK    7  A    between atoms: C_18  and  C_19
REMARK                            x       y       z     vdW  Elec       q    Type
REMARK                         _______ _______ _______ _____ _____    ______ ____
ROOT
ATOM      1  C   UNL     1      45.281   5.300  12.313  0.00  0.00    +0.000 A 
ATOM      2  C   UNL     1      44.399   6.152  11.662  0.00  0.00    +0.000 A 
ATOM      3  C   UNL     1      44.706   7.509  11.628  0.00  0.00    +0.000 A 
ATOM      4  C   UNL     1      45.891   7.930  12.256  0.00  0.00    +0.000 A 
ATOM      5  C   UNL     1      46.527   9.185  12.438  0.00  0.00    +0.000 A 
ATOM      6  C   UNL     1      47.698   8.962  13.126  0.00  0.00    +0.000 A 
ATOM      7  N   UNL     1      47.798   7.612  13.375  0.00  0.00    +0.000 N 
ATOM      8  C   UNL     1      46.695   6.963  12.865  0.00  0.00    +0.000 A 
ATOM      9  N   UNL     1      46.450   5.633  12.934  0.00  0.00    +0.000 NA
ENDROOT
BRANCH   1  11
ATOM     10  C   UNL     1      44.706   3.051  10.687  0.00  0.00    +0.000 C 
ATOM     11  S   UNL     1      44.877   3.564  12.369  0.00  0.00    +0.000 S 
ATOM     12  O   UNL     1      43.574   3.453  13.002  0.00  0.00    +0.000 OA
ATOM     13  O   UNL     1      46.030   2.875  12.926  0.00  0.00    +0.000 OA
ENDBRANCH   1  11
BRANCH   7  14
ATOM     14  C   UNL     1      48.934   6.978  14.031  0.00  0.00    +0.000 C 
BRANCH  14  15
ATOM     15  C   UNL     1      48.672   6.785  15.501  0.00  0.00    +0.000 A 
ATOM     16  C   UNL     1      48.871   7.846  16.394  0.00  0.00    +0.000 A 
ATOM     17  C   UNL     1      48.746   7.652  17.771  0.00  0.00    +0.000 A 
ATOM     18  C   UNL     1      48.428   6.392  18.277  0.00  0.00    +0.000 A 
ATOM     19  C   UNL     1      48.175   5.345  17.393  0.00  0.00    +0.000 A 
ATOM     20  C   UNL     1      48.293   5.537  16.014  0.00  0.00    +0.000 A 
BRANCH  18  21
ATOM     21  O   UNL     1      48.345   6.065  19.606  0.00  0.00    +0.000 OA
BRANCH  21  22
ATOM     22  C   UNL     1      48.916   4.811  19.982  0.00  0.00    +0.000 C 
BRANCH  22  23
ATOM     23  C   UNL     1      50.362   5.022  20.390  0.00  0.00    +0.000 C 
ATOM     24  F   UNL     1      51.161   4.839  19.304  0.00  0.00    +0.000 F 
ENDBRANCH  22  23
ENDBRANCH  21  22
ENDBRANCH  18  21
ENDBRANCH  14  15
ENDBRANCH   7  14
TORSDOF 6
ENDMDL
MODEL 9
REMARK VINA RESULT:    -5.279      5.061      7.388
REMARK INTER + INTRA:          -7.938
REMARK INTER:                  -7.016
REMARK INTRA:                  -0.922
REMARK UNBOUND:                -0.808
REMARK  Name = 
REMARK  7 active torsions:
REMARK  status: ('A' for Active; 'I' for Inactive)
REMARK    1  A    between atoms: C_1  and  S_2
REMARK    2  A    between atoms: S_2  and  C_5
REMARK    3  A    between atoms: N_11  and  C_12
REMARK    4  A    between atoms: C_12  and  C_13
REMARK    5  A    between atoms: C_16  and  O_17
REMARK    6  A    between atoms: O_17  and  C_18
REMARK    7  A    between atoms: C_18  and  C_19
REMARK                            x       y       z     vdW  Elec       q    Type
REMARK                         _______ _______ _______ _____ _____    ______ ____
ROOT
ATOM      1  C   UNL     1      46.827   4.246  14.445  0.00  0.00    +0.000 A 
ATOM      2  C   UNL     1      46.283   3.278  13.611  0.00  0.00    +0.000 A 
ATOM      3  C   UNL     1      45.689   3.697  12.425  0.00  0.00    +0.000 A 
ATOM      4  C   UNL     1      45.678   5.075  12.147  0.00  0.00    +0.000 A 
ATOM      5  C   UNL     1      45.180   5.869  11.082  0.00  0.00    +0.000 A 
ATOM      6  C   UNL     1      45.493   7.181  11.360  0.00  0.00    +0.000 A 
ATOM      7  N   UNL     1      46.162   7.215  12.562  0.00  0.00    +0.000 N 
ATOM      8  C   UNL     1      46.273   5.940  13.070  0.00  0.00    +0.000 A 
ATOM      9  N   UNL     1      46.862   5.595  14.238  0.00  0.00    +0.000 NA
ENDROOT
BRANCH   1  11
ATOM     10  C   UNL     1      48.490   5.092  16.579  0.00  0.00    +0.000 C 
ATOM     11  S   UNL     1      47.573   3.708  15.973  0.00  0.00    +0.000 S 
ATOM     12  O   UNL     1      48.522   2.661  15.634  0.00  0.00    +0.000 OA
ATOM     13  O   UNL     1      46.491   3.451  16.909  0.00  0.00    +0.000 OA
ENDBRANCH   1  11
BRANCH   7  14
ATOM     14  C   UNL     1      46.712   8.423  13.164  0.00  0.00    +0.000 C 
BRANCH  14  15
ATOM     15  C   UNL     1      48.099   8.702  12.645  0.00  0.00    +0.000 A 
ATOM     16  C   UNL     1      49.193   7.992  13.154  0.00  0.00    +0.000 A 
ATOM     17  C   UNL     1      50.496   8.318  12.770  0.00  0.00    +0.000 A 
ATOM     18  C   UNL     1      50.724   9.366  11.880  0.00  0.00    +0.000 A 
ATOM     19  C   UNL     1      49.637  10.042  11.328  0.00  0.00    +0.000 A 
ATOM     20  C   UNL     1      48.332   9.714  11.705  0.00  0.00    +0.000 A 
BRANCH  18  21
ATOM     21  O   UNL     1      51.954   9.822  11.483  0.00  0.00    +0.000 OA
BRANCH  21  22
ATOM     22  C   UNL     1      52.912   8.822  11.132  0.00  0.00    +0.000 C 
BRANCH  22  23
ATOM     23  C   UNL     1      52.558   8.243   9.776  0.00  0.00    +0.000 C 
ATOM     24  F   UNL     1      52.090   6.976   9.943  0.00  0.00    +0.000 F 
ENDBRANCH  22  23
ENDBRANCH  21  22
ENDBRANCH  18  21
ENDBRANCH  14  15
ENDBRANCH   7  14
TORSDOF 6
ENDMDL
