MODEL 1
REMARK VINA RESULT:    -8.508      0.000      0.000
REMARK INTER + INTRA:         -11.220
REMARK INTER:                 -10.995
REMARK INTRA:                  -0.226
REMARK UNBOUND:                -0.226
REMARK  Name = 
REMARK  5 active torsions:
REMARK  status: ('A' for Active; 'I' for Inactive)
REMARK    1  A    between atoms: C_2  and  C_3
REMARK    2  A    between atoms: C_6  and  C_7
REMARK    3  A    between atoms: C_11  and  C_12
REMARK    4  A    between atoms: C_12  and  N_13
REMARK    5  A    between atoms: C_17  and  C_18
REMARK                            x       y       z     vdW  Elec       q    Type
REMARK                         _______ _______ _______ _____ _____    ______ ____
ROOT
ATOM      1  C   UNL     1      43.978   4.684  11.401  0.00  0.00    +0.000 C 
ATOM      2  C   UNL     1      43.285   5.940  10.894  0.00  0.00    +0.000 C 
ATOM      3  C   UNL     1      42.648   5.139  11.982  0.00  0.00    +0.000 C 
ENDROOT
BRANCH   1   4
ATOM      4  N   UNL     1      44.002   3.489  10.546  0.00  0.00    +0.000 N 
ATOM      5  C   UNL     1      44.912   3.287   9.505  0.00  0.00    +0.000 A 
ATOM      6  C   UNL     1      45.550   4.323   8.825  0.00  0.00    +0.000 A 
ATOM      7  C   UNL     1      46.402   4.036   7.754  0.00  0.00    +0.000 A 
ATOM      8  C   UNL     1      46.608   2.710   7.388  0.00  0.00    +0.000 A 
ATOM      9  C   UNL     1      45.943   1.736   8.119  0.00  0.00    +0.000 A 
ATOM     10  N   UNL     1      45.112   1.999   9.163  0.00  0.00    +0.000 NA
ATOM     11  H   UNL     1      43.743   2.584  10.923  0.00  0.00    +0.000 HD
BRANCH   8  12
ATOM     12  C   UNL     1      47.446   2.296   6.244  0.00  0.00    +0.000 C 
ATOM     13  N   UNL     1      47.283   2.960   5.060  0.00  0.00    +0.000 N 
ATOM     14  O   UNL     1      48.274   1.401   6.354  0.00  0.00    +0.000 OA
ATOM     15  H   UNL     1      46.760   3.818   4.965  0.00  0.00    +0.000 HD
ATOM     16  H   UNL     1      47.911   2.705   4.307  0.00  0.00    +0.000 HD
ENDBRANCH   8  12
ENDBRANCH   1   4
BRANCH   1  21
ATOM     17  C   UNL     1      47.122   6.171  12.664  0.00  0.00    +0.000 A 
ATOM     18  N   UNL     1      47.556   5.362  13.643  0.00  0.00    +0.000 NA
ATOM     19  C   UNL     1      46.781   4.296  13.912  0.00  0.00    +0.000 A 
ATOM     20  C   UNL     1      45.610   4.018  13.246  0.00  0.00    +0.000 A 
ATOM     21  C   UNL     1      45.240   4.895  12.241  0.00  0.00    +0.000 A 
ATOM     22  N   UNL     1      46.002   5.971  11.956  0.00  0.00    +0.000 NA
BRANCH  17  26
ATOM     23  C   UNL     1      49.519   9.514  11.684  0.00  0.00    +0.000 A 
ATOM     24  C   UNL     1      48.155   9.717  11.827  0.00  0.00    +0.000 A 
ATOM     25  C   UNL     1      47.348   8.623  12.139  0.00  0.00    +0.000 A 
ATOM     26  C   UNL     1      47.911   7.353  12.314  0.00  0.00    +0.000 A 
ATOM     27  C   UNL     1      49.297   7.268  12.144  0.00  0.00    +0.000 A 
ATOM     28  N   UNL     1      50.112   8.307  11.832  0.00  0.00    +0.000 NA
BRANCH  23  30
ATOM     29  N   UNL     1      51.079  11.516  11.133  0.00  0.00    +0.000 NA
ATOM     30  C   UNL     1      50.395  10.606  11.371  0.00  0.00    +0.000 C 
ENDBRANCH  23  30
ENDBRANCH  17  26
ENDBRANCH   1  21
TORSDOF 5
ENDMDL
MODEL 2
REMARK VINA RESULT:    -8.404      2.224      4.072
REMARK INTER + INTRA:         -11.087
REMARK INTER:                 -11.307
REMARK INTRA:                   0.220
REMARK UNBOUND:                -0.226
REMARK  Name = 
REMARK  5 active torsions:
REMARK  status: ('A' for Active; 'I' for Inactive)
REMARK    1  A    between atoms: C_2  and  C_3
REMARK    2  A    between atoms: C_6  and  C_7
REMARK    3  A    between atoms: C_11  and  C_12
REMARK    4  A    between atoms: C_12  and  N_13
REMARK    5  A    between atoms: C_17  and  C_18
REMARK                            x       y       z     vdW  Elec       q    Type
REMARK                         _______ _______ _______ _____ _____    ______ ____
ROOT
ATOM      1  C   UNL     1      43.999   4.792  11.580  0.00  0.00    +0.000 C 
ATOM      2  C   UNL     1      42.868   5.748  11.229  0.00  0.00    +0.000 C 
ATOM      3  C   UNL     1      42.820   4.998  12.519  0.00  0.00    +0.000 C 
ENDROOT
BRANCH   1   4
ATOM      4  N   UNL     1      44.107   3.519  10.854  0.00  0.00    +0.000 N 
ATOM      5  C   UNL     1      44.920   3.321   9.735  0.00  0.00    +0.000 A 
ATOM      6  C   UNL     1      45.322   4.346   8.880  0.00  0.00    +0.000 A 
ATOM      7  C   UNL     1      46.088   4.053   7.748  0.00  0.00    +0.000 A 
ATOM      8  C   UNL     1      46.446   2.733   7.495  0.00  0.00    +0.000 A 
ATOM      9  C   UNL     1      46.015   1.771   8.397  0.00  0.00    +0.000 A 
ATOM     10  N   UNL     1      45.270   2.040   9.502  0.00  0.00    +0.000 NA
ATOM     11  H   UNL     1      44.026   2.638  11.349  0.00  0.00    +0.000 HD
BRANCH   8  12
ATOM     12  C   UNL     1      47.209   2.304   6.305  0.00  0.00    +0.000 C 
ATOM     13  N   UNL     1      47.143   3.090   5.187  0.00  0.00    +0.000 N 
ATOM     14  O   UNL     1      47.894   1.291   6.320  0.00  0.00    +0.000 OA
ATOM     15  H   UNL     1      46.754   4.022   5.178  0.00  0.00    +0.000 HD
ATOM     16  H   UNL     1      47.723   2.814   4.404  0.00  0.00    +0.000 HD
ENDBRANCH   8  12
ENDBRANCH   1   4
BRANCH   1  21
ATOM     17  C   UNL     1      47.002   5.708  13.538  0.00  0.00    +0.000 A 
ATOM     18  N   UNL     1      47.711   6.549  12.770  0.00  0.00    +0.000 NA
ATOM     19  C   UNL     1      47.196   6.814  11.557  0.00  0.00    +0.000 A 
ATOM     20  C   UNL     1      46.015   6.277  11.097  0.00  0.00    +0.000 A 
ATOM     21  C   UNL     1      45.338   5.430  11.956  0.00  0.00    +0.000 A 
ATOM     22  N   UNL     1      45.839   5.149  13.177  0.00  0.00    +0.000 NA
BRANCH  17  26
ATOM     23  C   UNL     1      48.537   4.832  17.379  0.00  0.00    +0.000 A 
ATOM     24  C   UNL     1      47.657   3.922  16.813  0.00  0.00    +0.000 A 
ATOM     25  C   UNL     1      47.133   4.200  15.551  0.00  0.00    +0.000 A 
ATOM     26  C   UNL     1      47.499   5.370  14.873  0.00  0.00    +0.000 A 
ATOM     27  C   UNL     1      48.392   6.213  15.543  0.00  0.00    +0.000 A 
ATOM     28  N   UNL     1      48.915   5.979  16.773  0.00  0.00    +0.000 NA
BRANCH  23  30
ATOM     29  N   UNL     1      49.601   4.368  19.703  0.00  0.00    +0.000 NA
ATOM     30  C   UNL     1      49.111   4.590  18.671  0.00  0.00    +0.000 C 
ENDBRANCH  23  30
ENDBRANCH  17  26
ENDBRANCH   1  21
TORSDOF 5
ENDMDL
MODEL 3
REMARK VINA RESULT:    -7.010      2.937      7.181
REMARK INTER + INTRA:          -9.284
REMARK INTER:                  -8.730
REMARK INTRA:                  -0.554
REMARK UNBOUND:                -0.226
REMARK  Name = 
REMARK  5 active torsions:
REMARK  status: ('A' for Active; 'I' for Inactive)
REMARK    1  A    between atoms: C_2  and  C_3
REMARK    2  A    between atoms: C_6  and  C_7
REMARK    3  A    between atoms: C_11  and  C_12
REMARK    4  A    between atoms: C_12  and  N_13
REMARK    5  A    between atoms: C_17  and  C_18
REMARK                            x       y       z     vdW  Elec       q    Type
REMARK                         _______ _______ _______ _____ _____    ______ ____
ROOT
ATOM      1  C   UNL     1      44.533   7.935  11.796  0.00  0.00    +0.000 C 
ATOM      2  C   UNL     1      43.590   9.046  11.355  0.00  0.00    +0.000 C 
ATOM      3  C   UNL     1      44.879   8.846  10.627  0.00  0.00    +0.000 C 
ENDROOT
BRANCH   1   4
ATOM      4  N   UNL     1      45.277   8.090  13.053  0.00  0.00    +0.000 N 
ATOM      5  C   UNL     1      46.670   8.037  13.153  0.00  0.00    +0.000 A 
ATOM      6  C   UNL     1      47.485   7.363  12.245  0.00  0.00    +0.000 A 
ATOM      7  C   UNL     1      48.867   7.309  12.451  0.00  0.00    +0.000 A 
ATOM      8  C   UNL     1      49.411   7.942  13.564  0.00  0.00    +0.000 A 
ATOM      9  C   UNL     1      48.536   8.599  14.415  0.00  0.00    +0.000 A 
ATOM     10  N   UNL     1      47.190   8.660  14.229  0.00  0.00    +0.000 NA
ATOM     11  H   UNL     1      44.929   8.702  13.783  0.00  0.00    +0.000 HD
BRANCH   8  12
ATOM     12  C   UNL     1      50.848   7.906  13.905  0.00  0.00    +0.000 C 
ATOM     13  N   UNL     1      51.749   8.096  12.894  0.00  0.00    +0.000 N 
ATOM     14  O   UNL     1      51.224   7.733  15.057  0.00  0.00    +0.000 OA
ATOM     15  H   UNL     1      51.499   8.428  11.974  0.00  0.00    +0.000 HD
ATOM     16  H   UNL     1      52.726   8.132  13.158  0.00  0.00    +0.000 HD
ENDBRANCH   8  12
ENDBRANCH   1   4
BRANCH   1  21
ATOM     17  C   UNL     1      44.425   4.570  10.262  0.00  0.00    +0.000 A 
ATOM     18  N   UNL     1      43.371   3.941  10.804  0.00  0.00    +0.000 NA
ATOM     19  C   UNL     1      42.677   4.640  11.720  0.00  0.00    +0.000 A 
ATOM     20  C   UNL     1      42.996   5.922  12.102  0.00  0.00    +0.000 A 
ATOM     21  C   UNL     1      44.090   6.503  11.486  0.00  0.00    +0.000 A 
ATOM     22  N   UNL     1      44.801   5.819  10.565  0.00  0.00    +0.000 NA
BRANCH  17  26
ATOM     23  C   UNL     1      46.765   2.680   7.290  0.00  0.00    +0.000 A 
ATOM     24  C   UNL     1      46.075   1.870   8.180  0.00  0.00    +0.000 A 
ATOM     25  C   UNL     1      45.307   2.477   9.174  0.00  0.00    +0.000 A 
ATOM     26  C   UNL     1      45.231   3.873   9.258  0.00  0.00    +0.000 A 
ATOM     27  C   UNL     1      45.969   4.586   8.308  0.00  0.00    +0.000 A 
ATOM     28  N   UNL     1      46.733   4.031   7.333  0.00  0.00    +0.000 NA
BRANCH  23  30
ATOM     29  N   UNL     1      48.241   1.658   5.413  0.00  0.00    +0.000 NA
ATOM     30  C   UNL     1      47.562   2.107   6.245  0.00  0.00    +0.000 C 
ENDBRANCH  23  30
ENDBRANCH  17  26
ENDBRANCH   1  21
TORSDOF 5
ENDMDL
MODEL 4
REMARK VINA RESULT:    -6.882      4.924      8.780
REMARK INTER + INTRA:          -9.119
REMARK INTER:                  -8.944
REMARK INTRA:                  -0.175
REMARK UNBOUND:                -0.226
REMARK  Name = 
REMARK  5 active torsions:
REMARK  status: ('A' for Active; 'I' for Inactive)
REMARK    1  A    between atoms: C_2  and  C_3
REMARK    2  A    between atoms: C_6  and  C_7
REMARK    3  A    between atoms: C_11  and  C_12
REMARK    4  A    between atoms: C_12  and  N_13
REMARK    5  A    between atoms: C_17  and  C_18
REMARK                            x       y       z     vdW  Elec       q    Type
REMARK                         _______ _______ _______ _____ _____    ______ ____
ROOT
ATOM      1  C   UNL     1      49.292   6.893  17.440  0.00  0.00    +0.000 C 
ATOM      2  C   UNL     1      47.968   6.707  18.167  0.00  0.00    +0.000 C 
ATOM      3  C   UNL     1      48.626   8.048  18.173  0.00  0.00    +0.000 C 
ENDROOT
BRANCH   1   4
ATOM      4  N   UNL     1      50.508   6.302  18.013  0.00  0.00    +0.000 N 
ATOM      5  C   UNL     1      50.888   4.967  17.844  0.00  0.00    +0.000 A 
ATOM      6  C   UNL     1      49.989   3.938  17.572  0.00  0.00    +0.000 A 
ATOM      7  C   UNL     1      50.444   2.619  17.476  0.00  0.00    +0.000 A 
ATOM      8  C   UNL     1      51.799   2.356  17.647  0.00  0.00    +0.000 A 
ATOM      9  C   UNL     1      52.630   3.435  17.906  0.00  0.00    +0.000 A 
ATOM     10  N   UNL     1      52.204   4.722  18.002  0.00  0.00    +0.000 NA
ATOM     11  H   UNL     1      51.349   6.860  18.121  0.00  0.00    +0.000 HD
BRANCH   8  12
ATOM     12  C   UNL     1      52.380   0.998  17.616  0.00  0.00    +0.000 C 
ATOM     13  N   UNL     1      51.674  -0.013  18.208  0.00  0.00    +0.000 N 
ATOM     14  O   UNL     1      53.449   0.776  17.062  0.00  0.00    +0.000 OA
ATOM     15  H   UNL     1      50.714   0.074  18.507  0.00  0.00    +0.000 HD
ATOM     16  H   UNL     1      52.058  -0.946  18.121  0.00  0.00    +0.000 HD
ENDBRANCH   8  12
ENDBRANCH   1   4
BRANCH   1  21
ATOM     17  C   UNL     1      48.152   6.176  13.994  0.00  0.00    +0.000 A 
ATOM     18  N   UNL     1      49.045   6.750  13.173  0.00  0.00    +0.000 NA
ATOM     19  C   UNL     1      50.051   7.414  13.770  0.00  0.00    +0.000 A 
ATOM     20  C   UNL     1      50.191   7.516  15.135  0.00  0.00    +0.000 A 
ATOM     21  C   UNL     1      49.236   6.884  15.910  0.00  0.00    +0.000 A 
ATOM     22  N   UNL     1      48.216   6.215  15.331  0.00  0.00    +0.000 NA
BRANCH  17  26
ATOM     23  C   UNL     1      44.959   3.922  12.379  0.00  0.00    +0.000 A 
ATOM     24  C   UNL     1      45.096   5.238  11.963  0.00  0.00    +0.000 A 
ATOM     25  C   UNL     1      46.137   5.999  12.494  0.00  0.00    +0.000 A 
ATOM     26  C   UNL     1      47.027   5.437  13.418  0.00  0.00    +0.000 A 
ATOM     27  C   UNL     1      46.790   4.103  13.764  0.00  0.00    +0.000 A 
ATOM     28  N   UNL     1      45.784   3.335  13.275  0.00  0.00    +0.000 NA
BRANCH  23  30
ATOM     29  N   UNL     1      43.085   2.392  11.434  0.00  0.00    +0.000 NA
ATOM     30  C   UNL     1      43.911   3.094  11.858  0.00  0.00    +0.000 C 
ENDBRANCH  23  30
ENDBRANCH  17  26
ENDBRANCH   1  21
TORSDOF 5
ENDMDL
MODEL 5
REMARK VINA RESULT:    -6.628      5.694      8.882
REMARK INTER + INTRA:          -8.791
REMARK INTER:                  -8.279
REMARK INTRA:                  -0.512
REMARK UNBOUND:                -0.226
REMARK  Name = 
REMARK  5 active torsions:
REMARK  status: ('A' for Active; 'I' for Inactive)
REMARK    1  A    between atoms: C_2  and  C_3
REMARK    2  A    between atoms: C_6  and  C_7
REMARK    3  A    between atoms: C_11  and  C_12
REMARK    4  A    between atoms: C_12  and  N_13
REMARK    5  A    between atoms: C_17  and  C_18
REMARK                            x       y       z     vdW  Elec       q    Type
REMARK                         _______ _______ _______ _____ _____    ______ ____
ROOT
ATOM      1  C   UNL     1      48.662   3.562  17.456  0.00  0.00    +0.000 C 
ATOM      2  C   UNL     1      47.398   3.203  18.224  0.00  0.00    +0.000 C 
ATOM      3  C   UNL     1      48.549   3.815  18.952  0.00  0.00    +0.000 C 
ENDROOT
BRANCH   1   4
ATOM      4  N   UNL     1      49.542   2.482  16.989  0.00  0.00    +0.000 N 
ATOM      5  C   UNL     1      50.872   2.325  17.390  0.00  0.00    +0.000 A 
ATOM      6  C   UNL     1      51.671   3.372  17.844  0.00  0.00    +0.000 A 
ATOM      7  C   UNL     1      53.011   3.140  18.168  0.00  0.00    +0.000 A 
ATOM      8  C   UNL     1      53.526   1.855  18.039  0.00  0.00    +0.000 A 
ATOM      9  C   UNL     1      52.666   0.865  17.589  0.00  0.00    +0.000 A 
ATOM     10  N   UNL     1      51.361   1.074  17.269  0.00  0.00    +0.000 NA
ATOM     11  H   UNL     1      49.162   1.565  16.780  0.00  0.00    +0.000 HD
BRANCH   8  12
ATOM     12  C   UNL     1      54.937   1.507  18.306  0.00  0.00    +0.000 C 
ATOM     13  N   UNL     1      55.541   0.606  17.473  0.00  0.00    +0.000 N 
ATOM     14  O   UNL     1      55.555   2.021  19.229  0.00  0.00    +0.000 OA
ATOM     15  H   UNL     1      55.146   0.299  16.596  0.00  0.00    +0.000 HD
ATOM     16  H   UNL     1      56.525   0.430  17.633  0.00  0.00    +0.000 HD
ENDBRANCH   8  12
ENDBRANCH   1   4
BRANCH   1  21
ATOM     17  C   UNL     1      47.728   5.652  14.550  0.00  0.00    +0.000 A 
ATOM     18  N   UNL     1      48.352   6.829  14.715  0.00  0.00    +0.000 NA
ATOM     19  C   UNL     1      49.093   6.950  15.830  0.00  0.00    +0.000 A 
ATOM     20  C   UNL     1      49.231   5.951  16.765  0.00  0.00    +0.000 A 
ATOM     21  C   UNL     1      48.567   4.764  16.513  0.00  0.00    +0.000 A 
ATOM     22  N   UNL     1      47.815   4.622  15.402  0.00  0.00    +0.000 NA
BRANCH  17  26
ATOM     23  C   UNL     1      45.319   4.919  11.153  0.00  0.00    +0.000 A 
ATOM     24  C   UNL     1      46.066   6.087  11.175  0.00  0.00    +0.000 A 
ATOM     25  C   UNL     1      46.859   6.350  12.292  0.00  0.00    +0.000 A 
ATOM     26  C   UNL     1      46.901   5.445  13.360  0.00  0.00    +0.000 A 
ATOM     27  C   UNL     1      46.104   4.303  13.228  0.00  0.00    +0.000 A 
ATOM     28  N   UNL     1      45.316   4.018  12.161  0.00  0.00    +0.000 NA
BRANCH  23  30
ATOM     29  N   UNL     1      43.821   4.374   9.103  0.00  0.00    +0.000 NA
ATOM     30  C   UNL     1      44.494   4.597  10.025  0.00  0.00    +0.000 C 
ENDBRANCH  23  30
ENDBRANCH  17  26
ENDBRANCH   1  21
TORSDOF 5
ENDMDL
MODEL 6
REMARK VINA RESULT:    -6.357      1.864      2.614
REMARK INTER + INTRA:          -8.441
REMARK INTER:                  -8.013
REMARK INTRA:                  -0.428
REMARK UNBOUND:                -0.226
REMARK  Name = 
REMARK  5 active torsions:
REMARK  status: ('A' for Active; 'I' for Inactive)
REMARK    1  A    between atoms: C_2  and  C_3
REMARK    2  A    between atoms: C_6  and  C_7
REMARK    3  A    between atoms: C_11  and  C_12
REMARK    4  A    between atoms: C_12  and  N_13
REMARK    5  A    between atoms: C_17  and  C_18
REMARK                            x       y       z     vdW  Elec       q    Type
REMARK                         _______ _______ _______ _____ _____    ______ ____
ROOT
ATOM      1  C   UNL     1      43.922   5.327  11.590  0.00  0.00    +0.000 C 
ATOM      2  C   UNL     1      42.998   5.012  12.758  0.00  0.00    +0.000 C 
ATOM      3  C   UNL     1      44.350   4.380  12.701  0.00  0.00    +0.000 C 
ENDROOT
BRANCH   1   4
ATOM      4  N   UNL     1      43.614   4.767  10.267  0.00  0.00    +0.000 N 
ATOM      5  C   UNL     1      44.579   4.386   9.332  0.00  0.00    +0.000 A 
ATOM      6  C   UNL     1      45.867   4.918   9.290  0.00  0.00    +0.000 A 
ATOM      7  C   UNL     1      46.754   4.526   8.283  0.00  0.00    +0.000 A 
ATOM      8  C   UNL     1      46.336   3.597   7.336  0.00  0.00    +0.000 A 
ATOM      9  C   UNL     1      45.043   3.108   7.450  0.00  0.00    +0.000 A 
ATOM     10  N   UNL     1      44.169   3.479   8.423  0.00  0.00    +0.000 NA
ATOM     11  H   UNL     1      42.796   4.181  10.136  0.00  0.00    +0.000 HD
BRANCH   8  12
ATOM     12  C   UNL     1      47.171   3.150   6.202  0.00  0.00    +0.000 C 
ATOM     13  N   UNL     1      48.427   2.686   6.478  0.00  0.00    +0.000 N 
ATOM     14  O   UNL     1      46.749   3.174   5.053  0.00  0.00    +0.000 OA
ATOM     15  H   UNL     1      48.753   2.467   7.408  0.00  0.00    +0.000 HD
ATOM     16  H   UNL     1      48.959   2.324   5.696  0.00  0.00    +0.000 HD
ENDBRANCH   8  12
ENDBRANCH   1   4
BRANCH   1  21
ATOM     17  C   UNL     1      46.357   8.081  12.005  0.00  0.00    +0.000 A 
ATOM     18  N   UNL     1      45.730   9.202  11.615  0.00  0.00    +0.000 NA
ATOM     19  C   UNL     1      44.466   9.048  11.183  0.00  0.00    +0.000 A 
ATOM     20  C   UNL     1      43.820   7.834  11.132  0.00  0.00    +0.000 A 
ATOM     21  C   UNL     1      44.533   6.730  11.565  0.00  0.00    +0.000 A 
ATOM     22  N   UNL     1      45.803   6.861  12.000  0.00  0.00    +0.000 NA
BRANCH  17  26
ATOM     23  C   UNL     1      50.297   8.293  13.525  0.00  0.00    +0.000 A 
ATOM     24  C   UNL     1      50.055   8.850  12.279  0.00  0.00    +0.000 A 
ATOM     25  C   UNL     1      48.764   8.780  11.757  0.00  0.00    +0.000 A 
ATOM     26  C   UNL     1      47.737   8.168  12.486  0.00  0.00    +0.000 A 
ATOM     27  C   UNL     1      48.099   7.639  13.730  0.00  0.00    +0.000 A 
ATOM     28  N   UNL     1      49.345   7.682  14.266  0.00  0.00    +0.000 NA
BRANCH  23  30
ATOM     29  N   UNL     1      52.650   8.389  14.621  0.00  0.00    +0.000 NA
ATOM     30  C   UNL     1      51.605   8.346  14.111  0.00  0.00    +0.000 C 
ENDBRANCH  23  30
ENDBRANCH  17  26
ENDBRANCH   1  21
TORSDOF 5
ENDMDL
MODEL 7
REMARK VINA RESULT:    -6.260      4.154      6.456
REMARK INTER + INTRA:          -8.316
REMARK INTER:                  -8.013
REMARK INTRA:                  -0.303
REMARK UNBOUND:                -0.226
REMARK  Name = 
REMARK  5 active torsions:
REMARK  status: ('A' for Active; 'I' for Inactive)
REMARK    1  A    between atoms: C_2  and  C_3
REMARK    2  A    between atoms: C_6  and  C_7
REMARK    3  A    between atoms: C_11  and  C_12
REMARK    4  A    between atoms: C_12  and  N_13
REMARK    5  A    between atoms: C_17  and  C_18
REMARK                            x       y       z     vdW  Elec       q    Type
REMARK                         _______ _______ _______ _____ _____    ______ ____
ROOT
ATOM      1  C   UNL     1      45.921   4.440  12.938  0.00  0.00    +0.000 C 
ATOM      2  C   UNL     1      45.071   3.830  11.832  0.00  0.00    +0.000 C 
ATOM      3  C   UNL     1      44.461   4.081  13.172  0.00  0.00    +0.000 C 
ENDROOT
BRANCH   1   4
ATOM      4  N   UNL     1      46.959   3.617  13.573  0.00  0.00    +0.000 N 
ATOM      5  C   UNL     1      47.345   3.736  14.911  0.00  0.00    +0.000 A 
ATOM      6  C   UNL     1      47.198   4.905  15.656  0.00  0.00    +0.000 A 
ATOM      7  C   UNL     1      47.667   4.958  16.973  0.00  0.00    +0.000 A 
ATOM      8  C   UNL     1      48.269   3.832  17.524  0.00  0.00    +0.000 A 
ATOM      9  C   UNL     1      48.370   2.706  16.722  0.00  0.00    +0.000 A 
ATOM     10  N   UNL     1      47.920   2.638  15.440  0.00  0.00    +0.000 NA
ATOM     11  H   UNL     1      47.097   2.654  13.287  0.00  0.00    +0.000 HD
BRANCH   8  12
ATOM     12  C   UNL     1      48.842   3.793  18.885  0.00  0.00    +0.000 C 
ATOM     13  N   UNL     1      48.281   2.936  19.791  0.00  0.00    +0.000 N 
ATOM     14  O   UNL     1      49.801   4.490  19.191  0.00  0.00    +0.000 OA
ATOM     15  H   UNL     1      47.624   2.211  19.544  0.00  0.00    +0.000 HD
ATOM     16  H   UNL     1      48.729   2.877  20.697  0.00  0.00    +0.000 HD
ENDBRANCH   8  12
ENDBRANCH   1   4
BRANCH   1  21
ATOM     17  C   UNL     1      47.934   7.513  12.502  0.00  0.00    +0.000 A 
ATOM     18  N   UNL     1      47.070   8.539  12.537  0.00  0.00    +0.000 NA
ATOM     19  C   UNL     1      45.775   8.212  12.692  0.00  0.00    +0.000 A 
ATOM     20  C   UNL     1      45.325   6.918  12.814  0.00  0.00    +0.000 A 
ATOM     21  C   UNL     1      46.282   5.919  12.781  0.00  0.00    +0.000 A 
ATOM     22  N   UNL     1      47.587   6.225  12.624  0.00  0.00    +0.000 NA
BRANCH  17  26
ATOM     23  C   UNL     1      52.059   8.374  12.146  0.00  0.00    +0.000 A 
ATOM     24  C   UNL     1      51.383   7.966  11.005  0.00  0.00    +0.000 A 
ATOM     25  C   UNL     1      50.025   7.668  11.107  0.00  0.00    +0.000 A 
ATOM     26  C   UNL     1      49.362   7.790  12.335  0.00  0.00    +0.000 A 
ATOM     27  C   UNL     1      50.145   8.208  13.416  0.00  0.00    +0.000 A 
ATOM     28  N   UNL     1      51.469   8.499  13.356  0.00  0.00    +0.000 NA
BRANCH  23  30
ATOM     29  N   UNL     1      54.595   8.931  12.067  0.00  0.00    +0.000 NA
ATOM     30  C   UNL     1      53.454   8.701  12.094  0.00  0.00    +0.000 C 
ENDBRANCH  23  30
ENDBRANCH  17  26
ENDBRANCH   1  21
TORSDOF 5
ENDMDL
MODEL 8
REMARK VINA RESULT:    -6.196      3.891      8.452
REMARK INTER + INTRA:          -8.232
REMARK INTER:                  -8.014
REMARK INTRA:                  -0.219
REMARK UNBOUND:                -0.226
REMARK  Name = 
REMARK  5 active torsions:
REMARK  status: ('A' for Active; 'I' for Inactive)
REMARK    1  A    between atoms: C_2  and  C_3
REMARK    2  A    between atoms: C_6  and  C_7
REMARK    3  A    between atoms: C_11  and  C_12
REMARK    4  A    between atoms: C_12  and  N_13
REMARK    5  A    between atoms: C_17  and  C_18
REMARK                            x       y       z     vdW  Elec       q    Type
REMARK                         _______ _______ _______ _____ _____    ______ ____
ROOT
ATOM      1  C   UNL     1      50.323   8.636  15.365  0.00  0.00    +0.000 C 
ATOM      2  C   UNL     1      49.599   9.741  16.122  0.00  0.00    +0.000 C 
ATOM      3  C   UNL     1      50.986   9.981  15.623  0.00  0.00    +0.000 C 
ENDROOT
BRANCH   1   4
ATOM      4  N   UNL     1      50.801   7.461  16.106  0.00  0.00    +0.000 N 
ATOM      5  C   UNL     1      49.970   6.449  16.594  0.00  0.00    +0.000 A 
ATOM      6  C   UNL     1      48.622   6.635  16.895  0.00  0.00    +0.000 A 
ATOM      7  C   UNL     1      47.875   5.585  17.437  0.00  0.00    +0.000 A 
ATOM      8  C   UNL     1      48.492   4.359  17.660  0.00  0.00    +0.000 A 
ATOM      9  C   UNL     1      49.834   4.251  17.327  0.00  0.00    +0.000 A 
ATOM     10  N   UNL     1      50.574   5.262  16.800  0.00  0.00    +0.000 NA
ATOM     11  H   UNL     1      51.706   7.055  15.895  0.00  0.00    +0.000 HD
BRANCH   8  12
ATOM     12  C   UNL     1      47.813   3.199  18.273  0.00  0.00    +0.000 C 
ATOM     13  N   UNL     1      48.216   2.807  19.520  0.00  0.00    +0.000 N 
ATOM     14  O   UNL     1      46.905   2.616  17.696  0.00  0.00    +0.000 OA
ATOM     15  H   UNL     1      48.819   3.359  20.114  0.00  0.00    +0.000 HD
ATOM     16  H   UNL     1      47.696   2.052  19.949  0.00  0.00    +0.000 HD
ENDBRANCH   8  12
ENDBRANCH   1   4
BRANCH   1  21
ATOM     17  C   UNL     1      48.356   7.173  12.594  0.00  0.00    +0.000 A 
ATOM     18  N   UNL     1      48.861   7.686  11.461  0.00  0.00    +0.000 NA
ATOM     19  C   UNL     1      49.873   8.558  11.610  0.00  0.00    +0.000 A 
ATOM     20  C   UNL     1      50.389   8.925  12.831  0.00  0.00    +0.000 A 
ATOM     21  C   UNL     1      49.822   8.340  13.950  0.00  0.00    +0.000 A 
ATOM     22  N   UNL     1      48.803   7.464  13.823  0.00  0.00    +0.000 NA
BRANCH  17  26
ATOM     23  C   UNL     1      45.222   4.337  12.465  0.00  0.00    +0.000 A 
ATOM     24  C   UNL     1      45.325   5.234  11.412  0.00  0.00    +0.000 A 
ATOM     25  C   UNL     1      46.347   6.183  11.444  0.00  0.00    +0.000 A 
ATOM     26  C   UNL     1      47.251   6.217  12.513  0.00  0.00    +0.000 A 
ATOM     27  C   UNL     1      47.048   5.265  13.518  0.00  0.00    +0.000 A 
ATOM     28  N   UNL     1      46.062   4.333  13.525  0.00  0.00    +0.000 NA
BRANCH  23  30
ATOM     29  N   UNL     1      43.382   2.505  12.515  0.00  0.00    +0.000 NA
ATOM     30  C   UNL     1      44.195   3.336  12.478  0.00  0.00    +0.000 C 
ENDBRANCH  23  30
ENDBRANCH  17  26
ENDBRANCH   1  21
TORSDOF 5
ENDMDL
MODEL 9
REMARK VINA RESULT:    -6.182      4.436      7.439
REMARK INTER + INTRA:          -8.215
REMARK INTER:                  -8.012
REMARK INTRA:                  -0.203
REMARK UNBOUND:                -0.226
REMARK  Name = 
REMARK  5 active torsions:
REMARK  status: ('A' for Active; 'I' for Inactive)
REMARK    1  A    between atoms: C_2  and  C_3
REMARK    2  A    between atoms: C_6  and  C_7
REMARK    3  A    between atoms: C_11  and  C_12
REMARK    4  A    between atoms: C_12  and  N_13
REMARK    5  A    between atoms: C_17  and  C_18
REMARK                            x       y       z     vdW  Elec       q    Type
REMARK                         _______ _______ _______ _____ _____    ______ ____
ROOT
ATOM      1  C   UNL     1      49.158   8.300  13.765  0.00  0.00    +0.000 C 
ATOM      2  C   UNL     1      50.403   7.920  12.976  0.00  0.00    +0.000 C 
ATOM      3  C   UNL     1      50.168   9.351  13.332  0.00  0.00    +0.000 C 
ENDROOT
BRANCH   1   4
ATOM      4  N   UNL     1      47.851   8.260  13.095  0.00  0.00    +0.000 N 
ATOM      5  C   UNL     1      46.988   7.162  13.122  0.00  0.00    +0.000 A 
ATOM      6  C   UNL     1      47.413   5.850  13.324  0.00  0.00    +0.000 A 
ATOM      7  C   UNL     1      46.490   4.800  13.277  0.00  0.00    +0.000 A 
ATOM      8  C   UNL     1      45.151   5.086  13.034  0.00  0.00    +0.000 A 
ATOM      9  C   UNL     1      44.806   6.417  12.851  0.00  0.00    +0.000 A 
ATOM     10  N   UNL     1      45.690   7.449  12.894  0.00  0.00    +0.000 NA
ATOM     11  H   UNL     1      47.292   9.102  13.012  0.00  0.00    +0.000 HD
BRANCH   8  12
ATOM     12  C   UNL     1      44.101   4.053  12.914  0.00  0.00    +0.000 C 
ATOM     13  N   UNL     1      44.482   2.799  12.525  0.00  0.00    +0.000 N 
ATOM     14  O   UNL     1      42.931   4.302  13.172  0.00  0.00    +0.000 OA
ATOM     15  H   UNL     1      45.442   2.491  12.485  0.00  0.00    +0.000 HD
ATOM     16  H   UNL     1      43.759   2.090  12.510  0.00  0.00    +0.000 HD
ENDBRANCH   8  12
ENDBRANCH   1   4
BRANCH   1  21
ATOM     17  C   UNL     1      49.636   6.291  16.835  0.00  0.00    +0.000 A 
ATOM     18  N   UNL     1      49.111   7.007  17.841  0.00  0.00    +0.000 NA
ATOM     19  C   UNL     1      48.596   8.203  17.504  0.00  0.00    +0.000 A 
ATOM     20  C   UNL     1      48.586   8.694  16.219  0.00  0.00    +0.000 A 
ATOM     21  C   UNL     1      49.134   7.887  15.239  0.00  0.00    +0.000 A 
ATOM     22  N   UNL     1      49.659   6.685  15.555  0.00  0.00    +0.000 NA
BRANCH  17  26
ATOM     23  C   UNL     1      51.446   2.556  17.647  0.00  0.00    +0.000 A 
ATOM     24  C   UNL     1      50.079   2.574  17.411  0.00  0.00    +0.000 A 
ATOM     25  C   UNL     1      49.464   3.799  17.152  0.00  0.00    +0.000 A 
ATOM     26  C   UNL     1      50.218   4.979  17.123  0.00  0.00    +0.000 A 
ATOM     27  C   UNL     1      51.586   4.839  17.377  0.00  0.00    +0.000 A 
ATOM     28  N   UNL     1      52.217   3.667  17.641  0.00  0.00    +0.000 NA
BRANCH  23  30
ATOM     29  N   UNL     1      52.706   0.341  18.149  0.00  0.00    +0.000 NA
ATOM     30  C   UNL     1      52.128   1.323  17.911  0.00  0.00    +0.000 C 
ENDBRANCH  23  30
ENDBRANCH  17  26
ENDBRANCH   1  21
TORSDOF 5
ENDMDL
