MODEL 1
REMARK VINA RESULT:    -8.765      0.000      0.000
REMARK INTER + INTRA:         -12.080
REMARK INTER:                 -11.840
REMARK INTRA:                  -0.240
REMARK UNBOUND:                -0.240
REMARK  Name = 
REMARK  7 active torsions:
REMARK  status: ('A' for Active; 'I' for Inactive)
REMARK    1  A    between atoms: C_1  and  O_2
REMARK    2  A    between atoms: O_2  and  C_3
REMARK    3  A    between atoms: C_6  and  C_7
REMARK    4  A    between atoms: C_7  and  N_8
REMARK    5  A    between atoms: C_11  and  C_12
REMARK    6  A    between atoms: C_12  and  N_13
REMARK    7  A    between atoms: C_14  and  C_16
REMARK                            x       y       z     vdW  Elec       q    Type
REMARK                         _______ _______ _______ _____ _____    ______ ____
ROOT
ATOM      1  C   UNL     1      46.048   4.779  14.081  0.00  0.00    +0.000 C 
ENDROOT
BRANCH   1   5
ATOM      2  N   UNL     1      44.413   4.974  10.730  0.00  0.00    +0.000 NA
ATOM      3  C   UNL     1      43.679   5.084  12.001  0.00  0.00    +0.000 C 
ATOM      4  C   UNL     1      44.236   6.183  12.907  0.00  0.00    +0.000 C 
ATOM      5  C   UNL     1      45.732   6.003  13.196  0.00  0.00    +0.000 C 
ATOM      6  C   UNL     1      46.459   5.911  11.849  0.00  0.00    +0.000 C 
ATOM      7  C   UNL     1      45.866   4.836  10.932  0.00  0.00    +0.000 C 
BRANCH   2   8
ATOM      8  C   UNL     1      43.926   3.832   9.927  0.00  0.00    +0.000 C 
BRANCH   8  12
ATOM      9  C   UNL     1      46.851   2.055   7.401  0.00  0.00    +0.000 A 
ATOM     10  C   UNL     1      46.597   3.409   7.239  0.00  0.00    +0.000 A 
ATOM     11  C   UNL     1      45.632   4.005   8.051  0.00  0.00    +0.000 A 
ATOM     12  C   UNL     1      44.953   3.235   8.998  0.00  0.00    +0.000 A 
ATOM     13  C   UNL     1      45.289   1.885   9.078  0.00  0.00    +0.000 A 
ATOM     14  N   UNL     1      46.213   1.277   8.304  0.00  0.00    +0.000 NA
BRANCH   9  16
ATOM     15  C   UNL     1      48.009   2.261   5.385  0.00  0.00    +0.000 C 
ATOM     16  O   UNL     1      47.809   1.506   6.575  0.00  0.00    +0.000 OA
ENDBRANCH   9  16
ENDBRANCH   8  12
ENDBRANCH   2   8
ENDBRANCH   1   5
BRANCH   1  17
ATOM     17  N   UNL     1      47.201   4.974  14.934  0.00  0.00    +0.000 N 
ATOM     18  C   UNL     1      47.343   4.347  16.148  0.00  0.00    +0.000 C 
ATOM     19  O   UNL     1      46.516   3.545  16.572  0.00  0.00    +0.000 OA
ATOM     20  H   UNL     1      47.828   5.737  14.700  0.00  0.00    +0.000 HD
BRANCH  18  21
ATOM     21  C   UNL     1      48.574   4.642  16.895  0.00  0.00    +0.000 A 
ATOM     22  C   UNL     1      48.764   5.907  17.432  0.00  0.00    +0.000 A 
ATOM     23  S   UNL     1      50.217   6.067  18.312  0.00  0.00    +0.000 S 
ATOM     24  C   UNL     1      50.671   4.466  17.958  0.00  0.00    +0.000 A 
ATOM     25  N   UNL     1      51.851   3.959  18.406  0.00  0.00    +0.000 NA
ATOM     26  C   UNL     1      52.091   2.749  18.026  0.00  0.00    +0.000 A 
ATOM     27  N   UNL     1      51.253   1.998  17.242  0.00  0.00    +0.000 N 
ATOM     28  C   UNL     1      50.026   2.447  16.813  0.00  0.00    +0.000 A 
ATOM     29  O   UNL     1      49.261   1.716  16.192  0.00  0.00    +0.000 OA
ATOM     30  C   UNL     1      49.720   3.813  17.193  0.00  0.00    +0.000 A 
ATOM     31  H   UNL     1      51.495   1.049  16.994  0.00  0.00    +0.000 HD
ENDBRANCH  18  21
ENDBRANCH   1  17
TORSDOF 6
ENDMDL
MODEL 2
REMARK VINA RESULT:    -8.409      1.655      2.108
REMARK INTER + INTRA:         -11.599
REMARK INTER:                 -11.421
REMARK INTRA:                  -0.177
REMARK UNBOUND:                -0.240
REMARK  Name = 
REMARK  7 active torsions:
REMARK  status: ('A' for Active; 'I' for Inactive)
REMARK    1  A    between atoms: C_1  and  O_2
REMARK    2  A    between atoms: O_2  and  C_3
REMARK    3  A    between atoms: C_6  and  C_7
REMARK    4  A    between atoms: C_7  and  N_8
REMARK    5  A    between atoms: C_11  and  C_12
REMARK    6  A    between atoms: C_12  and  N_13
REMARK    7  A    between atoms: C_14  and  C_16
REMARK                            x       y       z     vdW  Elec       q    Type
REMARK                         _______ _______ _______ _____ _____    ______ ____
ROOT
ATOM      1  C   UNL     1      46.423   4.740  13.575  0.00  0.00    +0.000 C 
ENDROOT
BRANCH   1   5
ATOM      2  N   UNL     1      44.151   4.962  10.621  0.00  0.00    +0.000 NA
ATOM      3  C   UNL     1      43.674   4.798  12.004  0.00  0.00    +0.000 C 
ATOM      4  C   UNL     1      44.206   5.884  12.941  0.00  0.00    +0.000 C 
ATOM      5  C   UNL     1      45.737   5.965  12.936  0.00  0.00    +0.000 C 
ATOM      6  C   UNL     1      46.190   6.153  11.482  0.00  0.00    +0.000 C 
ATOM      7  C   UNL     1      45.618   5.084  10.545  0.00  0.00    +0.000 C 
BRANCH   2   8
ATOM      8  C   UNL     1      43.715   3.836   9.767  0.00  0.00    +0.000 C 
BRANCH   8  12
ATOM      9  C   UNL     1      46.827   2.027   7.501  0.00  0.00    +0.000 A 
ATOM     10  C   UNL     1      46.528   3.356   7.239  0.00  0.00    +0.000 A 
ATOM     11  C   UNL     1      45.503   3.962   7.965  0.00  0.00    +0.000 A 
ATOM     12  C   UNL     1      44.808   3.225   8.928  0.00  0.00    +0.000 A 
ATOM     13  C   UNL     1      45.193   1.898   9.112  0.00  0.00    +0.000 A 
ATOM     14  N   UNL     1      46.177   1.282   8.423  0.00  0.00    +0.000 NA
BRANCH   9  16
ATOM     15  C   UNL     1      48.073   2.152   5.532  0.00  0.00    +0.000 C 
ATOM     16  O   UNL     1      47.845   1.468   6.759  0.00  0.00    +0.000 OA
ENDBRANCH   9  16
ENDBRANCH   8  12
ENDBRANCH   2   8
ENDBRANCH   1   5
BRANCH   1  17
ATOM     17  N   UNL     1      47.048   5.035  14.848  0.00  0.00    +0.000 N 
ATOM     18  C   UNL     1      47.686   4.081  15.603  0.00  0.00    +0.000 C 
ATOM     19  O   UNL     1      47.803   2.918  15.225  0.00  0.00    +0.000 OA
ATOM     20  H   UNL     1      46.844   5.936  15.267  0.00  0.00    +0.000 HD
BRANCH  18  21
ATOM     21  C   UNL     1      48.278   4.537  16.868  0.00  0.00    +0.000 A 
ATOM     22  C   UNL     1      47.924   3.913  18.055  0.00  0.00    +0.000 A 
ATOM     23  S   UNL     1      48.738   4.527  19.422  0.00  0.00    +0.000 S 
ATOM     24  C   UNL     1      49.552   5.689  18.482  0.00  0.00    +0.000 A 
ATOM     25  N   UNL     1      50.411   6.574  19.056  0.00  0.00    +0.000 NA
ATOM     26  C   UNL     1      50.923   7.429  18.235  0.00  0.00    +0.000 A 
ATOM     27  N   UNL     1      50.657   7.475  16.891  0.00  0.00    +0.000 N 
ATOM     28  C   UNL     1      49.840   6.566  16.258  0.00  0.00    +0.000 A 
ATOM     29  O   UNL     1      49.696   6.579  15.039  0.00  0.00    +0.000 OA
ATOM     30  C   UNL     1      49.219   5.599  17.142  0.00  0.00    +0.000 A 
ATOM     31  H   UNL     1      51.105   8.162  16.301  0.00  0.00    +0.000 HD
ENDBRANCH  18  21
ENDBRANCH   1  17
TORSDOF 6
ENDMDL
MODEL 3
REMARK VINA RESULT:    -7.567      3.616      4.488
REMARK INTER + INTRA:         -10.461
REMARK INTER:                  -9.688
REMARK INTRA:                  -0.773
REMARK UNBOUND:                -0.240
REMARK  Name = 
REMARK  7 active torsions:
REMARK  status: ('A' for Active; 'I' for Inactive)
REMARK    1  A    between atoms: C_1  and  O_2
REMARK    2  A    between atoms: O_2  and  C_3
REMARK    3  A    between atoms: C_6  and  C_7
REMARK    4  A    between atoms: C_7  and  N_8
REMARK    5  A    between atoms: C_11  and  C_12
REMARK    6  A    between atoms: C_12  and  N_13
REMARK    7  A    between atoms: C_14  and  C_16
REMARK                            x       y       z     vdW  Elec       q    Type
REMARK                         _______ _______ _______ _____ _____    ______ ____
ROOT
ATOM      1  C   UNL     1      44.814   6.642  12.694  0.00  0.00    +0.000 C 
ENDROOT
BRANCH   1   5
ATOM      2  N   UNL     1      44.231   3.364  11.006  0.00  0.00    +0.000 NA
ATOM      3  C   UNL     1      45.557   3.992  11.129  0.00  0.00    +0.000 C 
ATOM      4  C   UNL     1      45.919   4.320  12.578  0.00  0.00    +0.000 C 
ATOM      5  C   UNL     1      44.870   5.208  13.259  0.00  0.00    +0.000 C 
ATOM      6  C   UNL     1      43.510   4.510  13.124  0.00  0.00    +0.000 C 
ATOM      7  C   UNL     1      43.176   4.147  11.673  0.00  0.00    +0.000 C 
BRANCH   2   8
ATOM      8  C   UNL     1      43.862   3.164   9.589  0.00  0.00    +0.000 C 
BRANCH   8  12
ATOM      9  C   UNL     1      47.122   1.924   7.156  0.00  0.00    +0.000 A 
ATOM     10  C   UNL     1      46.703   3.241   7.048  0.00  0.00    +0.000 A 
ATOM     11  C   UNL     1      45.627   3.662   7.830  0.00  0.00    +0.000 A 
ATOM     12  C   UNL     1      45.005   2.757   8.694  0.00  0.00    +0.000 A 
ATOM     13  C   UNL     1      45.510   1.459   8.726  0.00  0.00    +0.000 A 
ATOM     14  N   UNL     1      46.545   1.019   7.979  0.00  0.00    +0.000 NA
BRANCH   9  16
ATOM     15  C   UNL     1      48.255   2.289   5.148  0.00  0.00    +0.000 C 
ATOM     16  O   UNL     1      48.187   1.550   6.363  0.00  0.00    +0.000 OA
ENDBRANCH   9  16
ENDBRANCH   8  12
ENDBRANCH   2   8
ENDBRANCH   1   5
BRANCH   1  17
ATOM     17  N   UNL     1      46.115   7.269  12.597  0.00  0.00    +0.000 N 
ATOM     18  C   UNL     1      46.298   8.626  12.702  0.00  0.00    +0.000 C 
ATOM     19  O   UNL     1      45.369   9.397  12.927  0.00  0.00    +0.000 OA
ATOM     20  H   UNL     1      46.882   6.695  12.260  0.00  0.00    +0.000 HD
BRANCH  18  21
ATOM     21  C   UNL     1      47.682   9.110  12.589  0.00  0.00    +0.000 A 
ATOM     22  C   UNL     1      47.971  10.168  11.739  0.00  0.00    +0.000 A 
ATOM     23  S   UNL     1      49.610  10.639  11.765  0.00  0.00    +0.000 S 
ATOM     24  C   UNL     1      50.003   9.407  12.871  0.00  0.00    +0.000 A 
ATOM     25  N   UNL     1      51.281   9.238  13.304  0.00  0.00    +0.000 NA
ATOM     26  C   UNL     1      51.447   8.238  14.103  0.00  0.00    +0.000 A 
ATOM     27  N   UNL     1      50.446   7.395  14.514  0.00  0.00    +0.000 N 
ATOM     28  C   UNL     1      49.130   7.561  14.149  0.00  0.00    +0.000 A 
ATOM     29  O   UNL     1      48.246   6.845  14.608  0.00  0.00    +0.000 OA
ATOM     30  C   UNL     1      48.896   8.657  13.228  0.00  0.00    +0.000 A 
ATOM     31  H   UNL     1      50.642   6.640  15.156  0.00  0.00    +0.000 HD
ENDBRANCH  18  21
ENDBRANCH   1  17
TORSDOF 6
ENDMDL
MODEL 4
REMARK VINA RESULT:    -7.522      3.129      8.591
REMARK INTER + INTRA:         -10.400
REMARK INTER:                  -9.794
REMARK INTRA:                  -0.606
REMARK UNBOUND:                -0.240
REMARK  Name = 
REMARK  7 active torsions:
REMARK  status: ('A' for Active; 'I' for Inactive)
REMARK    1  A    between atoms: C_1  and  O_2
REMARK    2  A    between atoms: O_2  and  C_3
REMARK    3  A    between atoms: C_6  and  C_7
REMARK    4  A    between atoms: C_7  and  N_8
REMARK    5  A    between atoms: C_11  and  C_12
REMARK    6  A    between atoms: C_12  and  N_13
REMARK    7  A    between atoms: C_14  and  C_16
REMARK                            x       y       z     vdW  Elec       q    Type
REMARK                         _______ _______ _______ _____ _____    ______ ____
ROOT
ATOM      1  C   UNL     1      46.425   8.303  13.154  0.00  0.00    +0.000 C 
ENDROOT
BRANCH   1   5
ATOM      2  N   UNL     1      48.951   7.214  15.678  0.00  0.00    +0.000 NA
ATOM      3  C   UNL     1      48.506   6.371  14.556  0.00  0.00    +0.000 C 
ATOM      4  C   UNL     1      48.678   7.059  13.200  0.00  0.00    +0.000 C 
ATOM      5  C   UNL     1      47.963   8.414  13.135  0.00  0.00    +0.000 C 
ATOM      6  C   UNL     1      48.468   9.265  14.308  0.00  0.00    +0.000 C 
ATOM      7  C   UNL     1      48.330   8.550  15.656  0.00  0.00    +0.000 C 
BRANCH   2   8
ATOM      8  C   UNL     1      48.666   6.569  16.978  0.00  0.00    +0.000 C 
BRANCH   8  12
ATOM      9  C   UNL     1      50.164   2.599  17.258  0.00  0.00    +0.000 A 
ATOM     10  C   UNL     1      48.804   2.760  17.043  0.00  0.00    +0.000 A 
ATOM     11  C   UNL     1      48.293   4.055  16.961  0.00  0.00    +0.000 A 
ATOM     12  C   UNL     1      49.154   5.148  17.094  0.00  0.00    +0.000 A 
ATOM     13  C   UNL     1      50.504   4.871  17.304  0.00  0.00    +0.000 A 
ATOM     14  N   UNL     1      51.028   3.630  17.393  0.00  0.00    +0.000 NA
BRANCH   9  16
ATOM     15  C   UNL     1      52.045   1.224  17.401  0.00  0.00    +0.000 C 
ATOM     16  O   UNL     1      50.625   1.302  17.336  0.00  0.00    +0.000 OA
ENDBRANCH   9  16
ENDBRANCH   8  12
ENDBRANCH   2   8
ENDBRANCH   1   5
BRANCH   1  17
ATOM     17  N   UNL     1      45.943   6.984  12.802  0.00  0.00    +0.000 N 
ATOM     18  C   UNL     1      44.966   6.774  11.860  0.00  0.00    +0.000 C 
ATOM     19  O   UNL     1      44.463   7.696  11.222  0.00  0.00    +0.000 OA
ATOM     20  H   UNL     1      46.215   6.215  13.405  0.00  0.00    +0.000 HD
BRANCH  18  21
ATOM     21  C   UNL     1      44.590   5.376  11.608  0.00  0.00    +0.000 A 
ATOM     22  C   UNL     1      43.873   4.676  12.567  0.00  0.00    +0.000 A 
ATOM     23  S   UNL     1      43.472   3.085  12.098  0.00  0.00    +0.000 S 
ATOM     24  C   UNL     1      44.292   3.258  10.617  0.00  0.00    +0.000 A 
ATOM     25  N   UNL     1      44.353   2.230   9.729  0.00  0.00    +0.000 NA
ATOM     26  C   UNL     1      45.046   2.481   8.669  0.00  0.00    +0.000 A 
ATOM     27  N   UNL     1      45.678   3.671   8.415  0.00  0.00    +0.000 N 
ATOM     28  C   UNL     1      45.597   4.756   9.256  0.00  0.00    +0.000 A 
ATOM     29  O   UNL     1      46.097   5.836   8.955  0.00  0.00    +0.000 OA
ATOM     30  C   UNL     1      44.850   4.517  10.477  0.00  0.00    +0.000 A 
ATOM     31  H   UNL     1      46.192   3.807   7.556  0.00  0.00    +0.000 HD
ENDBRANCH  18  21
ENDBRANCH   1  17
TORSDOF 6
ENDMDL
MODEL 5
REMARK VINA RESULT:    -7.378      2.126      3.109
REMARK INTER + INTRA:         -10.206
REMARK INTER:                  -9.513
REMARK INTRA:                  -0.692
REMARK UNBOUND:                -0.240
REMARK  Name = 
REMARK  7 active torsions:
REMARK  status: ('A' for Active; 'I' for Inactive)
REMARK    1  A    between atoms: C_1  and  O_2
REMARK    2  A    between atoms: O_2  and  C_3
REMARK    3  A    between atoms: C_6  and  C_7
REMARK    4  A    between atoms: C_7  and  N_8
REMARK    5  A    between atoms: C_11  and  C_12
REMARK    6  A    between atoms: C_12  and  N_13
REMARK    7  A    between atoms: C_14  and  C_16
REMARK                            x       y       z     vdW  Elec       q    Type
REMARK                         _______ _______ _______ _____ _____    ______ ____
ROOT
ATOM      1  C   UNL     1      48.665   7.415  15.462  0.00  0.00    +0.000 C 
ENDROOT
BRANCH   1   5
ATOM      2  N   UNL     1      46.502   7.223  12.426  0.00  0.00    +0.000 NA
ATOM      3  C   UNL     1      46.520   8.376  13.340  0.00  0.00    +0.000 C 
ATOM      4  C   UNL     1      47.925   8.950  13.533  0.00  0.00    +0.000 C 
ATOM      5  C   UNL     1      48.927   7.897  14.021  0.00  0.00    +0.000 C 
ATOM      6  C   UNL     1      48.889   6.724  13.033  0.00  0.00    +0.000 C 
ATOM      7  C   UNL     1      47.472   6.184  12.815  0.00  0.00    +0.000 C 
BRANCH   2   8
ATOM      8  C   UNL     1      45.153   6.621  12.350  0.00  0.00    +0.000 C 
BRANCH   8  12
ATOM      9  C   UNL     1      44.682   3.577   9.417  0.00  0.00    +0.000 A 
ATOM     10  C   UNL     1      45.466   4.673   9.088  0.00  0.00    +0.000 A 
ATOM     11  C   UNL     1      45.622   5.686  10.034  0.00  0.00    +0.000 A 
ATOM     12  C   UNL     1      44.993   5.575  11.276  0.00  0.00    +0.000 A 
ATOM     13  C   UNL     1      44.231   4.430  11.503  0.00  0.00    +0.000 A 
ATOM     14  N   UNL     1      44.056   3.435  10.607  0.00  0.00    +0.000 NA
BRANCH   9  16
ATOM     15  C   UNL     1      45.434   1.502   8.658  0.00  0.00    +0.000 C 
ATOM     16  O   UNL     1      44.553   2.601   8.452  0.00  0.00    +0.000 OA
ENDBRANCH   9  16
ENDBRANCH   8  12
ENDBRANCH   2   8
ENDBRANCH   1   5
BRANCH   1  17
ATOM     17  N   UNL     1      49.733   6.593  15.993  0.00  0.00    +0.000 N 
ATOM     18  C   UNL     1      49.560   5.745  17.059  0.00  0.00    +0.000 C 
ATOM     19  O   UNL     1      48.472   5.598  17.610  0.00  0.00    +0.000 OA
ATOM     20  H   UNL     1      50.675   6.794  15.674  0.00  0.00    +0.000 HD
BRANCH  18  21
ATOM     21  C   UNL     1      50.738   4.971  17.476  0.00  0.00    +0.000 A 
ATOM     22  C   UNL     1      51.853   5.632  17.969  0.00  0.00    +0.000 A 
ATOM     23  S   UNL     1      53.111   4.587  18.456  0.00  0.00    +0.000 S 
ATOM     24  C   UNL     1      52.230   3.214  17.971  0.00  0.00    +0.000 A 
ATOM     25  N   UNL     1      52.755   1.966  18.098  0.00  0.00    +0.000 NA
ATOM     26  C   UNL     1      52.000   1.021  17.648  0.00  0.00    +0.000 A 
ATOM     27  N   UNL     1      50.763   1.211  17.089  0.00  0.00    +0.000 N 
ATOM     28  C   UNL     1      50.167   2.447  16.992  0.00  0.00    +0.000 A 
ATOM     29  O   UNL     1      49.021   2.572  16.571  0.00  0.00    +0.000 OA
ATOM     30  C   UNL     1      50.988   3.548  17.460  0.00  0.00    +0.000 A 
ATOM     31  H   UNL     1      50.216   0.424  16.770  0.00  0.00    +0.000 HD
ENDBRANCH  18  21
ENDBRANCH   1  17
TORSDOF 6
ENDMDL
MODEL 6
REMARK VINA RESULT:    -7.092      4.494      5.003
REMARK INTER + INTRA:          -9.820
REMARK INTER:                  -9.073
REMARK INTRA:                  -0.747
REMARK UNBOUND:                -0.240
REMARK  Name = 
REMARK  7 active torsions:
REMARK  status: ('A' for Active; 'I' for Inactive)
REMARK    1  A    between atoms: C_1  and  O_2
REMARK    2  A    between atoms: O_2  and  C_3
REMARK    3  A    between atoms: C_6  and  C_7
REMARK    4  A    between atoms: C_7  and  N_8
REMARK    5  A    between atoms: C_11  and  C_12
REMARK    6  A    between atoms: C_12  and  N_13
REMARK    7  A    between atoms: C_14  and  C_16
REMARK                            x       y       z     vdW  Elec       q    Type
REMARK                         _______ _______ _______ _____ _____    ______ ____
ROOT
ATOM      1  C   UNL     1      47.564   6.810  11.739  0.00  0.00    +0.000 C 
ENDROOT
BRANCH   1   5
ATOM      2  N   UNL     1      44.141   5.320  11.734  0.00  0.00    +0.000 NA
ATOM      3  C   UNL     1      45.353   4.573  12.109  0.00  0.00    +0.000 C 
ATOM      4  C   UNL     1      46.144   5.259  13.224  0.00  0.00    +0.000 C 
ATOM      5  C   UNL     1      46.523   6.703  12.872  0.00  0.00    +0.000 C 
ATOM      6  C   UNL     1      45.233   7.448  12.506  0.00  0.00    +0.000 C 
ATOM      7  C   UNL     1      44.427   6.731  11.418  0.00  0.00    +0.000 C 
BRANCH   2   8
ATOM      8  C   UNL     1      43.462   4.694  10.580  0.00  0.00    +0.000 C 
BRANCH   8  12
ATOM      9  C   UNL     1      46.031   2.368   8.114  0.00  0.00    +0.000 A 
ATOM     10  C   UNL     1      46.023   3.742   7.921  0.00  0.00    +0.000 A 
ATOM     11  C   UNL     1      45.177   4.518   8.713  0.00  0.00    +0.000 A 
ATOM     12  C   UNL     1      44.368   3.903   9.671  0.00  0.00    +0.000 A 
ATOM     13  C   UNL     1      44.458   2.517   9.783  0.00  0.00    +0.000 A 
ATOM     14  N   UNL     1      45.262   1.736   9.029  0.00  0.00    +0.000 NA
BRANCH   9  16
ATOM     15  C   UNL     1      47.910   2.433   6.732  0.00  0.00    +0.000 C 
ATOM     16  O   UNL     1      46.879   1.639   7.308  0.00  0.00    +0.000 OA
ENDBRANCH   9  16
ENDBRANCH   8  12
ENDBRANCH   2   8
ENDBRANCH   1   5
BRANCH   1  17
ATOM     17  N   UNL     1      48.851   7.298  12.190  0.00  0.00    +0.000 N 
ATOM     18  C   UNL     1      49.193   8.628  12.167  0.00  0.00    +0.000 C 
ATOM     19  O   UNL     1      48.410   9.499  11.797  0.00  0.00    +0.000 OA
ATOM     20  H   UNL     1      49.576   6.607  12.355  0.00  0.00    +0.000 HD
BRANCH  18  21
ATOM     21  C   UNL     1      50.533   8.966  12.665  0.00  0.00    +0.000 A 
ATOM     22  C   UNL     1      50.665   9.788  13.775  0.00  0.00    +0.000 A 
ATOM     23  S   UNL     1      52.283  10.039  14.255  0.00  0.00    +0.000 S 
ATOM     24  C   UNL     1      52.868   9.103  12.960  0.00  0.00    +0.000 A 
ATOM     25  N   UNL     1      54.204   8.927  12.773  0.00  0.00    +0.000 NA
ATOM     26  C   UNL     1      54.510   8.235  11.727  0.00  0.00    +0.000 A 
ATOM     27  N   UNL     1      53.599   7.698  10.854  0.00  0.00    +0.000 N 
ATOM     28  C   UNL     1      52.239   7.802  11.033  0.00  0.00    +0.000 A 
ATOM     29  O   UNL     1      51.452   7.231  10.284  0.00  0.00    +0.000 OA
ATOM     30  C   UNL     1      51.843   8.593  12.182  0.00  0.00    +0.000 A 
ATOM     31  H   UNL     1      53.907   7.152  10.061  0.00  0.00    +0.000 HD
ENDBRANCH  18  21
ENDBRANCH   1  17
TORSDOF 6
ENDMDL
MODEL 7
REMARK VINA RESULT:    -6.940      2.482      3.527
REMARK INTER + INTRA:          -9.613
REMARK INTER:                  -8.608
REMARK INTRA:                  -1.005
REMARK UNBOUND:                -0.240
REMARK  Name = 
REMARK  7 active torsions:
REMARK  status: ('A' for Active; 'I' for Inactive)
REMARK    1  A    between atoms: C_1  and  O_2
REMARK    2  A    between atoms: O_2  and  C_3
REMARK    3  A    between atoms: C_6  and  C_7
REMARK    4  A    between atoms: C_7  and  N_8
REMARK    5  A    between atoms: C_11  and  C_12
REMARK    6  A    between atoms: C_12  and  N_13
REMARK    7  A    between atoms: C_14  and  C_16
REMARK                            x       y       z     vdW  Elec       q    Type
REMARK                         _______ _______ _______ _____ _____    ______ ____
ROOT
ATOM      1  C   UNL     1      48.636   8.941  14.499  0.00  0.00    +0.000 C 
ENDROOT
BRANCH   1   5
ATOM      2  N   UNL     1      46.531   7.480  11.784  0.00  0.00    +0.000 NA
ATOM      3  C   UNL     1      46.470   8.894  12.189  0.00  0.00    +0.000 C 
ATOM      4  C   UNL     1      47.837   9.579  12.136  0.00  0.00    +0.000 C 
ATOM      5  C   UNL     1      48.891   8.851  12.980  0.00  0.00    +0.000 C 
ATOM      6  C   UNL     1      48.934   7.390  12.514  0.00  0.00    +0.000 C 
ATOM      7  C   UNL     1      47.554   6.726  12.530  0.00  0.00    +0.000 C 
BRANCH   2   8
ATOM      8  C   UNL     1      45.221   6.817  11.954  0.00  0.00    +0.000 C 
BRANCH   8  12
ATOM      9  C   UNL     1      44.793   3.114   9.906  0.00  0.00    +0.000 A 
ATOM     10  C   UNL     1      45.334   4.180   9.203  0.00  0.00    +0.000 A 
ATOM     11  C   UNL     1      45.470   5.405   9.856  0.00  0.00    +0.000 A 
ATOM     12  C   UNL     1      45.065   5.528  11.187  0.00  0.00    +0.000 A 
ATOM     13  C   UNL     1      44.538   4.392  11.799  0.00  0.00    +0.000 A 
ATOM     14  N   UNL     1      44.388   3.195  11.194  0.00  0.00    +0.000 NA
BRANCH   9  16
ATOM     15  C   UNL     1      45.841   1.597   8.474  0.00  0.00    +0.000 C 
ATOM     16  O   UNL     1      44.674   1.923   9.222  0.00  0.00    +0.000 OA
ENDBRANCH   9  16
ENDBRANCH   8  12
ENDBRANCH   2   8
ENDBRANCH   1   5
BRANCH   1  17
ATOM     17  N   UNL     1      49.029   7.745  15.215  0.00  0.00    +0.000 N 
ATOM     18  C   UNL     1      48.961   7.640  16.583  0.00  0.00    +0.000 C 
ATOM     19  O   UNL     1      48.521   8.544  17.288  0.00  0.00    +0.000 OA
ATOM     20  H   UNL     1      49.537   7.038  14.693  0.00  0.00    +0.000 HD
BRANCH  18  21
ATOM     21  C   UNL     1      49.388   6.358  17.161  0.00  0.00    +0.000 A 
ATOM     22  C   UNL     1      50.439   6.331  18.066  0.00  0.00    +0.000 A 
ATOM     23  S   UNL     1      50.774   4.776  18.682  0.00  0.00    +0.000 S 
ATOM     24  C   UNL     1      49.561   4.074  17.717  0.00  0.00    +0.000 A 
ATOM     25  N   UNL     1      49.331   2.734  17.749  0.00  0.00    +0.000 NA
ATOM     26  C   UNL     1      48.416   2.329  16.933  0.00  0.00    +0.000 A 
ATOM     27  N   UNL     1      47.705   3.147  16.093  0.00  0.00    +0.000 N 
ATOM     28  C   UNL     1      47.862   4.513  16.067  0.00  0.00    +0.000 A 
ATOM     29  O   UNL     1      47.145   5.224  15.371  0.00  0.00    +0.000 OA
ATOM     30  C   UNL     1      48.899   5.015  16.948  0.00  0.00    +0.000 A 
ATOM     31  H   UNL     1      46.989   2.766  15.490  0.00  0.00    +0.000 HD
ENDBRANCH  18  21
ENDBRANCH   1  17
TORSDOF 6
ENDMDL
MODEL 8
REMARK VINA RESULT:    -6.931      3.637      9.809
REMARK INTER + INTRA:          -9.601
REMARK INTER:                  -8.845
REMARK INTRA:                  -0.757
REMARK UNBOUND:                -0.240
REMARK  Name = 
REMARK  7 active torsions:
REMARK  status: ('A' for Active; 'I' for Inactive)
REMARK    1  A    between atoms: C_1  and  O_2
REMARK    2  A    between atoms: O_2  and  C_3
REMARK    3  A    between atoms: C_6  and  C_7
REMARK    4  A    between atoms: C_7  and  N_8
REMARK    5  A    between atoms: C_11  and  C_12
REMARK    6  A    between atoms: C_12  and  N_13
REMARK    7  A    between atoms: C_14  and  C_16
REMARK                            x       y       z     vdW  Elec       q    Type
REMARK                         _______ _______ _______ _____ _____    ______ ____
ROOT
ATOM      1  C   UNL     1      48.430   5.345  15.926  0.00  0.00    +0.000 C 
ENDROOT
BRANCH   1   5
ATOM      2  N   UNL     1      48.872   4.871  19.602  0.00  0.00    +0.000 NA
ATOM      3  C   UNL     1      47.579   5.182  18.972  0.00  0.00    +0.000 C 
ATOM      4  C   UNL     1      47.207   4.186  17.872  0.00  0.00    +0.000 C 
ATOM      5  C   UNL     1      48.288   4.076  16.790  0.00  0.00    +0.000 C 
ATOM      6  C   UNL     1      49.612   3.733  17.486  0.00  0.00    +0.000 C 
ATOM      7  C   UNL     1      49.954   4.713  18.614  0.00  0.00    +0.000 C 
BRANCH   2   8
ATOM      8  C   UNL     1      49.257   5.913  20.578  0.00  0.00    +0.000 C 
BRANCH   8  12
ATOM      9  C   UNL     1      48.017   9.862  19.602  0.00  0.00    +0.000 A 
ATOM     10  C   UNL     1      47.222   9.134  20.474  0.00  0.00    +0.000 A 
ATOM     11  C   UNL     1      47.607   7.833  20.796  0.00  0.00    +0.000 A 
ATOM     12  C   UNL     1      48.772   7.299  20.239  0.00  0.00    +0.000 A 
ATOM     13  C   UNL     1      49.498   8.119  19.377  0.00  0.00    +0.000 A 
ATOM     14  N   UNL     1      49.150   9.380  19.042  0.00  0.00    +0.000 NA
BRANCH   9  16
ATOM     15  C   UNL     1      47.735  11.466  17.930  0.00  0.00    +0.000 C 
ATOM     16  O   UNL     1      47.597  11.142  19.309  0.00  0.00    +0.000 OA
ENDBRANCH   9  16
ENDBRANCH   8  12
ENDBRANCH   2   8
ENDBRANCH   1   5
BRANCH   1  17
ATOM     17  N   UNL     1      47.351   5.512  14.974  0.00  0.00    +0.000 N 
ATOM     18  C   UNL     1      47.556   5.926  13.681  0.00  0.00    +0.000 C 
ATOM     19  O   UNL     1      48.679   6.145  13.233  0.00  0.00    +0.000 OA
ATOM     20  H   UNL     1      46.404   5.493  15.339  0.00  0.00    +0.000 HD
BRANCH  18  21
ATOM     21  C   UNL     1      46.360   6.040  12.834  0.00  0.00    +0.000 A 
ATOM     22  C   UNL     1      45.955   7.288  12.385  0.00  0.00    +0.000 A 
ATOM     23  S   UNL     1      44.583   7.240  11.372  0.00  0.00    +0.000 S 
ATOM     24  C   UNL     1      44.449   5.552  11.544  0.00  0.00    +0.000 A 
ATOM     25  N   UNL     1      43.446   4.865  10.933  0.00  0.00    +0.000 NA
ATOM     26  C   UNL     1      43.435   3.599  11.186  0.00  0.00    +0.000 A 
ATOM     27  N   UNL     1      44.342   2.958  11.990  0.00  0.00    +0.000 N 
ATOM     28  C   UNL     1      45.404   3.601  12.582  0.00  0.00    +0.000 A 
ATOM     29  O   UNL     1      46.250   2.980  13.220  0.00  0.00    +0.000 OA
ATOM     30  C   UNL     1      45.446   5.032  12.349  0.00  0.00    +0.000 A 
ATOM     31  H   UNL     1      44.285   1.959  12.134  0.00  0.00    +0.000 HD
ENDBRANCH  18  21
ENDBRANCH   1  17
TORSDOF 6
ENDMDL
MODEL 9
REMARK VINA RESULT:    -6.875      3.595      4.693
REMARK INTER + INTRA:          -9.526
REMARK INTER:                  -9.038
REMARK INTRA:                  -0.488
REMARK UNBOUND:                -0.240
REMARK  Name = 
REMARK  7 active torsions:
REMARK  status: ('A' for Active; 'I' for Inactive)
REMARK    1  A    between atoms: C_1  and  O_2
REMARK    2  A    between atoms: O_2  and  C_3
REMARK    3  A    between atoms: C_6  and  C_7
REMARK    4  A    between atoms: C_7  and  N_8
REMARK    5  A    between atoms: C_11  and  C_12
REMARK    6  A    between atoms: C_12  and  N_13
REMARK    7  A    between atoms: C_14  and  C_16
REMARK                            x       y       z     vdW  Elec       q    Type
REMARK                         _______ _______ _______ _____ _____    ______ ____
ROOT
ATOM      1  C   UNL     1      49.004   6.656  16.088  0.00  0.00    +0.000 C 
ENDROOT
BRANCH   1   5
ATOM      2  N   UNL     1      48.261   8.283  12.811  0.00  0.00    +0.000 NA
ATOM      3  C   UNL     1      47.433   8.463  14.015  0.00  0.00    +0.000 C 
ATOM      4  C   UNL     1      48.243   8.955  15.215  0.00  0.00    +0.000 C 
ATOM      5  C   UNL     1      49.426   8.035  15.543  0.00  0.00    +0.000 C 
ATOM      6  C   UNL     1      50.269   7.889  14.269  0.00  0.00    +0.000 C 
ATOM      7  C   UNL     1      49.440   7.436  13.063  0.00  0.00    +0.000 C 
BRANCH   2   8
ATOM      8  C   UNL     1      47.474   7.698  11.703  0.00  0.00    +0.000 C 
BRANCH   8  12
ATOM      9  C   UNL     1      44.693   4.703  12.878  0.00  0.00    +0.000 A 
ATOM     10  C   UNL     1      46.025   4.513  13.214  0.00  0.00    +0.000 A 
ATOM     11  C   UNL     1      46.953   5.479  12.827  0.00  0.00    +0.000 A 
ATOM     12  C   UNL     1      46.524   6.604  12.117  0.00  0.00    +0.000 A 
ATOM     13  C   UNL     1      45.162   6.696  11.835  0.00  0.00    +0.000 A 
ATOM     14  N   UNL     1      44.241   5.776  12.191  0.00  0.00    +0.000 NA
BRANCH   9  16
ATOM     15  C   UNL     1      43.481   2.816  12.230  0.00  0.00    +0.000 C 
ATOM     16  O   UNL     1      43.812   3.721  13.278  0.00  0.00    +0.000 OA
ENDBRANCH   9  16
ENDBRANCH   8  12
ENDBRANCH   2   8
ENDBRANCH   1   5
BRANCH   1  17
ATOM     17  N   UNL     1      50.100   5.913  16.673  0.00  0.00    +0.000 N 
ATOM     18  C   UNL     1      49.916   4.937  17.622  0.00  0.00    +0.000 C 
ATOM     19  O   UNL     1      48.800   4.603  18.010  0.00  0.00    +0.000 OA
ATOM     20  H   UNL     1      51.039   6.258  16.500  0.00  0.00    +0.000 HD
BRANCH  18  21
ATOM     21  C   UNL     1      51.128   4.267  18.114  0.00  0.00    +0.000 A 
ATOM     22  C   UNL     1      52.025   4.968  18.907  0.00  0.00    +0.000 A 
ATOM     23  S   UNL     1      53.350   4.032  19.436  0.00  0.00    +0.000 S 
ATOM     24  C   UNL     1      52.800   2.671  18.576  0.00  0.00    +0.000 A 
ATOM     25  N   UNL     1      53.503   1.506  18.588  0.00  0.00    +0.000 NA
ATOM     26  C   UNL     1      52.998   0.570  17.856  0.00  0.00    +0.000 A 
ATOM     27  N   UNL     1      51.848   0.693  17.118  0.00  0.00    +0.000 N 
ATOM     28  C   UNL     1      51.075   1.830  17.120  0.00  0.00    +0.000 A 
ATOM     29  O   UNL     1      50.004   1.874  16.522  0.00  0.00    +0.000 OA
ATOM     30  C   UNL     1      51.614   2.922  17.908  0.00  0.00    +0.000 A 
ATOM     31  H   UNL     1      51.499  -0.086  16.578  0.00  0.00    +0.000 HD
ENDBRANCH  18  21
ENDBRANCH   1  17
TORSDOF 6
ENDMDL
