MODEL 1
REMARK VINA RESULT:    -6.134      0.000      0.000
REMARK INTER + INTRA:          -6.134
REMARK INTER:                  -6.134
REMARK INTRA:                   0.000
REMARK UNBOUND:                 0.000
REMARK  Name = 
REMARK  0 active torsions:
REMARK  status: ('A' for Active; 'I' for Inactive)
REMARK                            x       y       z     vdW  Elec       q    Type
REMARK                         _______ _______ _______ _____ _____    ______ ____
ROOT
ATOM      1  C   UNL     1      43.640   4.230  11.930  0.00  0.00    +0.000 A 
ATOM      2  C   UNL     1      44.551   5.053  11.290  0.00  0.00    +0.000 A 
ATOM      3  C   UNL     1      45.183   4.591  10.139  0.00  0.00    +0.000 A 
ATOM      4  C   UNL     1      44.908   3.311   9.652  0.00  0.00    +0.000 A 
ATOM      5  N   UNL     1      45.657   2.830   8.575  0.00  0.00    +0.000 N 
ATOM      6  C   UNL     1      45.702   1.376   8.424  0.00  0.00    +0.000 C 
ATOM      7  C   UNL     1      46.987   1.045   7.662  0.00  0.00    +0.000 C 
ATOM      8  C   UNL     1      47.063   1.791   6.327  0.00  0.00    +0.000 C 
ATOM      9  C   UNL     1      46.786   3.289   6.490  0.00  0.00    +0.000 C 
ATOM     10  C   UNL     1      45.520   3.550   7.310  0.00  0.00    +0.000 C 
ATOM     11  N   UNL     1      44.017   2.510  10.273  0.00  0.00    +0.000 NA
ATOM     12  C   UNL     1      43.404   2.983  11.381  0.00  0.00    +0.000 A 
ENDROOT
TORSDOF 0
ENDMDL
MODEL 2
REMARK VINA RESULT:    -5.673      1.226      4.813
REMARK INTER + INTRA:          -5.673
REMARK INTER:                  -5.673
REMARK INTRA:                   0.000
REMARK UNBOUND:                 0.000
REMARK  Name = 
REMARK  0 active torsions:
REMARK  status: ('A' for Active; 'I' for Inactive)
REMARK                            x       y       z     vdW  Elec       q    Type
REMARK                         _______ _______ _______ _____ _____    ______ ____
ROOT
ATOM      1  C   UNL     1      46.456   2.264   7.268  0.00  0.00    +0.000 A 
ATOM      2  C   UNL     1      46.477   3.648   7.214  0.00  0.00    +0.000 A 
ATOM      3  C   UNL     1      45.907   4.371   8.258  0.00  0.00    +0.000 A 
ATOM      4  C   UNL     1      45.315   3.704   9.333  0.00  0.00    +0.000 A 
ATOM      5  N   UNL     1      44.635   4.457  10.295  0.00  0.00    +0.000 N 
ATOM      6  C   UNL     1      43.640   3.737  11.088  0.00  0.00    +0.000 C 
ATOM      7  C   UNL     1      42.628   4.773  11.582  0.00  0.00    +0.000 C 
ATOM      8  C   UNL     1      43.308   5.905  12.356  0.00  0.00    +0.000 C 
ATOM      9  C   UNL     1      44.498   6.491  11.590  0.00  0.00    +0.000 C 
ATOM     10  C   UNL     1      45.438   5.399  11.073  0.00  0.00    +0.000 C 
ATOM     11  N   UNL     1      45.298   2.356   9.389  0.00  0.00    +0.000 NA
ATOM     12  C   UNL     1      45.869   1.672   8.371  0.00  0.00    +0.000 A 
ENDROOT
TORSDOF 0
ENDMDL
MODEL 3
REMARK VINA RESULT:    -4.897      1.021      2.093
REMARK INTER + INTRA:          -4.897
REMARK INTER:                  -4.897
REMARK INTRA:                   0.000
REMARK UNBOUND:                 0.000
REMARK  Name = 
REMARK  0 active torsions:
REMARK  status: ('A' for Active; 'I' for Inactive)
REMARK                            x       y       z     vdW  Elec       q    Type
REMARK                         _______ _______ _______ _____ _____    ______ ____
ROOT
ATOM      1  C   UNL     1      43.679   4.451  11.351  0.00  0.00    +0.000 A 
ATOM      2  C   UNL     1      43.442   3.153  10.931  0.00  0.00    +0.000 A 
ATOM      3  C   UNL     1      44.208   2.630   9.893  0.00  0.00    +0.000 A 
ATOM      4  C   UNL     1      45.191   3.413   9.282  0.00  0.00    +0.000 A 
ATOM      5  N   UNL     1      45.848   2.904   8.158  0.00  0.00    +0.000 N 
ATOM      6  C   UNL     1      46.469   3.892   7.277  0.00  0.00    +0.000 C 
ATOM      7  C   UNL     1      46.558   3.257   5.887  0.00  0.00    +0.000 C 
ATOM      8  C   UNL     1      47.310   1.924   5.921  0.00  0.00    +0.000 C 
ATOM      9  C   UNL     1      46.779   0.992   7.014  0.00  0.00    +0.000 C 
ATOM     10  C   UNL     1      46.659   1.705   8.364  0.00  0.00    +0.000 C 
ATOM     11  N   UNL     1      45.425   4.676   9.694  0.00  0.00    +0.000 NA
ATOM     12  C   UNL     1      44.679   5.161  10.712  0.00  0.00    +0.000 A 
ENDROOT
TORSDOF 0
ENDMDL
MODEL 4
REMARK VINA RESULT:    -4.786      2.992      5.565
REMARK INTER + INTRA:          -4.786
REMARK INTER:                  -4.786
REMARK INTRA:                   0.000
REMARK UNBOUND:                 0.000
REMARK  Name = 
REMARK  0 active torsions:
REMARK  status: ('A' for Active; 'I' for Inactive)
REMARK                            x       y       z     vdW  Elec       q    Type
REMARK                         _______ _______ _______ _____ _____    ______ ____
ROOT
ATOM      1  C   UNL     1      44.440   3.543   9.019  0.00  0.00    +0.000 A 
ATOM      2  C   UNL     1      45.441   4.367   8.533  0.00  0.00    +0.000 A 
ATOM      3  C   UNL     1      45.953   5.364   9.359  0.00  0.00    +0.000 A 
ATOM      4  C   UNL     1      45.451   5.532  10.652  0.00  0.00    +0.000 A 
ATOM      5  N   UNL     1      45.892   6.624  11.403  0.00  0.00    +0.000 N 
ATOM      6  C   UNL     1      45.016   7.048  12.495  0.00  0.00    +0.000 C 
ATOM      7  C   UNL     1      45.312   8.526  12.757  0.00  0.00    +0.000 C 
ATOM      8  C   UNL     1      46.795   8.763  13.051  0.00  0.00    +0.000 C 
ATOM      9  C   UNL     1      47.701   8.108  12.003  0.00  0.00    +0.000 C 
ATOM     10  C   UNL     1      47.313   6.650  11.746  0.00  0.00    +0.000 C 
ATOM     11  N   UNL     1      44.478   4.727  11.127  0.00  0.00    +0.000 NA
ATOM     12  C   UNL     1      44.003   3.757  10.314  0.00  0.00    +0.000 A 
ENDROOT
TORSDOF 0
ENDMDL
MODEL 5
REMARK VINA RESULT:    -4.580      3.936      5.438
REMARK INTER + INTRA:          -4.580
REMARK INTER:                  -4.580
REMARK INTRA:                   0.000
REMARK UNBOUND:                 0.000
REMARK  Name = 
REMARK  0 active torsions:
REMARK  status: ('A' for Active; 'I' for Inactive)
REMARK                            x       y       z     vdW  Elec       q    Type
REMARK                         _______ _______ _______ _____ _____    ______ ____
ROOT
ATOM      1  C   UNL     1      49.032   7.473  12.978  0.00  0.00    +0.000 A 
ATOM      2  C   UNL     1      48.421   7.675  11.752  0.00  0.00    +0.000 A 
ATOM      3  C   UNL     1      47.229   7.011  11.477  0.00  0.00    +0.000 A 
ATOM      4  C   UNL     1      46.671   6.147  12.423  0.00  0.00    +0.000 A 
ATOM      5  N   UNL     1      45.548   5.396  12.063  0.00  0.00    +0.000 N 
ATOM      6  C   UNL     1      45.307   4.187  12.849  0.00  0.00    +0.000 C 
ATOM      7  C   UNL     1      44.495   3.236  11.966  0.00  0.00    +0.000 C 
ATOM      8  C   UNL     1      43.207   3.892  11.461  0.00  0.00    +0.000 C 
ATOM      9  C   UNL     1      43.468   5.269  10.843  0.00  0.00    +0.000 C 
ATOM     10  C   UNL     1      44.334   6.148  11.750  0.00  0.00    +0.000 C 
ATOM     11  N   UNL     1      47.263   5.954  13.619  0.00  0.00    +0.000 NA
ATOM     12  C   UNL     1      48.414   6.618  13.872  0.00  0.00    +0.000 A 
ENDROOT
TORSDOF 0
ENDMDL
MODEL 6
REMARK VINA RESULT:    -4.552      3.710      5.750
REMARK INTER + INTRA:          -4.552
REMARK INTER:                  -4.552
REMARK INTRA:                   0.000
REMARK UNBOUND:                 0.000
REMARK  Name = 
REMARK  0 active torsions:
REMARK  status: ('A' for Active; 'I' for Inactive)
REMARK                            x       y       z     vdW  Elec       q    Type
REMARK                         _______ _______ _______ _____ _____    ______ ____
ROOT
ATOM      1  C   UNL     1      43.351   3.714  11.909  0.00  0.00    +0.000 A 
ATOM      2  C   UNL     1      44.394   3.782  11.001  0.00  0.00    +0.000 A 
ATOM      3  C   UNL     1      45.315   4.821  11.108  0.00  0.00    +0.000 A 
ATOM      4  C   UNL     1      45.174   5.783  12.112  0.00  0.00    +0.000 A 
ATOM      5  N   UNL     1      46.035   6.884  12.108  0.00  0.00    +0.000 N 
ATOM      6  C   UNL     1      45.562   8.070  12.820  0.00  0.00    +0.000 C 
ATOM      7  C   UNL     1      46.275   9.275  12.203  0.00  0.00    +0.000 C 
ATOM      8  C   UNL     1      47.797   9.116  12.245  0.00  0.00    +0.000 C 
ATOM      9  C   UNL     1      48.248   7.758  11.697  0.00  0.00    +0.000 C 
ATOM     10  C   UNL     1      47.455   6.602  12.311  0.00  0.00    +0.000 C 
ATOM     11  N   UNL     1      44.160   5.715  12.999  0.00  0.00    +0.000 NA
ATOM     12  C   UNL     1      43.285   4.691  12.886  0.00  0.00    +0.000 A 
ENDROOT
TORSDOF 0
ENDMDL
MODEL 7
REMARK VINA RESULT:    -4.378      5.388      7.049
REMARK INTER + INTRA:          -4.378
REMARK INTER:                  -4.378
REMARK INTRA:                   0.000
REMARK UNBOUND:                 0.000
REMARK  Name = 
REMARK  0 active torsions:
REMARK  status: ('A' for Active; 'I' for Inactive)
REMARK                            x       y       z     vdW  Elec       q    Type
REMARK                         _______ _______ _______ _____ _____    ______ ____
ROOT
ATOM      1  C   UNL     1      48.766   4.509  17.976  0.00  0.00    +0.000 A 
ATOM      2  C   UNL     1      47.714   3.646  17.717  0.00  0.00    +0.000 A 
ATOM      3  C   UNL     1      47.092   3.698  16.473  0.00  0.00    +0.000 A 
ATOM      4  C   UNL     1      47.519   4.617  15.511  0.00  0.00    +0.000 A 
ATOM      5  N   UNL     1      46.788   4.734  14.326  0.00  0.00    +0.000 N 
ATOM      6  C   UNL     1      46.941   5.993  13.599  0.00  0.00    +0.000 C 
ATOM      7  C   UNL     1      45.676   6.181  12.759  0.00  0.00    +0.000 C 
ATOM      8  C   UNL     1      45.423   4.983  11.840  0.00  0.00    +0.000 C 
ATOM      9  C   UNL     1      45.493   3.653  12.597  0.00  0.00    +0.000 C 
ATOM     10  C   UNL     1      46.752   3.555  13.462  0.00  0.00    +0.000 C 
ATOM     11  N   UNL     1      48.547   5.455  15.762  0.00  0.00    +0.000 NA
ATOM     12  C   UNL     1      49.146   5.380  16.971  0.00  0.00    +0.000 A 
ENDROOT
TORSDOF 0
ENDMDL
MODEL 8
REMARK VINA RESULT:    -4.236      4.593      5.509
REMARK INTER + INTRA:          -4.236
REMARK INTER:                  -4.236
REMARK INTRA:                   0.000
REMARK UNBOUND:                 0.000
REMARK  Name = 
REMARK  0 active torsions:
REMARK  status: ('A' for Active; 'I' for Inactive)
REMARK                            x       y       z     vdW  Elec       q    Type
REMARK                         _______ _______ _______ _____ _____    ______ ____
ROOT
ATOM      1  C   UNL     1      42.682   4.833  12.101  0.00  0.00    +0.000 A 
ATOM      2  C   UNL     1      43.013   6.059  11.550  0.00  0.00    +0.000 A 
ATOM      3  C   UNL     1      44.312   6.536  11.700  0.00  0.00    +0.000 A 
ATOM      4  C   UNL     1      45.257   5.789  12.408  0.00  0.00    +0.000 A 
ATOM      5  N   UNL     1      46.510   6.357  12.654  0.00  0.00    +0.000 N 
ATOM      6  C   UNL     1      47.259   5.796  13.778  0.00  0.00    +0.000 C 
ATOM      7  C   UNL     1      48.222   6.883  14.260  0.00  0.00    +0.000 C 
ATOM      8  C   UNL     1      49.123   7.385  13.128  0.00  0.00    +0.000 C 
ATOM      9  C   UNL     1      48.321   7.754  11.876  0.00  0.00    +0.000 C 
ATOM     10  C   UNL     1      47.336   6.650  11.483  0.00  0.00    +0.000 C 
ATOM     11  N   UNL     1      44.936   4.592  12.942  0.00  0.00    +0.000 NA
ATOM     12  C   UNL     1      43.673   4.141  12.774  0.00  0.00    +0.000 A 
ENDROOT
TORSDOF 0
ENDMDL
MODEL 9
REMARK VINA RESULT:    -4.231      4.048      5.697
REMARK INTER + INTRA:          -4.231
REMARK INTER:                  -4.231
REMARK INTRA:                   0.000
REMARK UNBOUND:                 0.000
REMARK  Name = 
REMARK  0 active torsions:
REMARK  status: ('A' for Active; 'I' for Inactive)
REMARK                            x       y       z     vdW  Elec       q    Type
REMARK                         _______ _______ _______ _____ _____    ______ ____
ROOT
ATOM      1  C   UNL     1      48.739   6.890  14.144  0.00  0.00    +0.000 A 
ATOM      2  C   UNL     1      48.072   5.924  14.879  0.00  0.00    +0.000 A 
ATOM      3  C   UNL     1      46.982   5.275  14.305  0.00  0.00    +0.000 A 
ATOM      4  C   UNL     1      46.567   5.608  13.013  0.00  0.00    +0.000 A 
ATOM      5  N   UNL     1      45.391   5.034  12.521  0.00  0.00    +0.000 N 
ATOM      6  C   UNL     1      44.736   5.752  11.428  0.00  0.00    +0.000 C 
ATOM      7  C   UNL     1      43.255   5.368  11.466  0.00  0.00    +0.000 C 
ATOM      8  C   UNL     1      43.062   3.851  11.389  0.00  0.00    +0.000 C 
ATOM      9  C   UNL     1      43.939   3.108  12.402  0.00  0.00    +0.000 C 
ATOM     10  C   UNL     1      45.394   3.582  12.353  0.00  0.00    +0.000 C 
ATOM     11  N   UNL     1      47.218   6.546  12.296  0.00  0.00    +0.000 NA
ATOM     12  C   UNL     1      48.282   7.155  12.866  0.00  0.00    +0.000 A 
ENDROOT
TORSDOF 0
ENDMDL
