MODEL 1
REMARK VINA RESULT:    -7.991      0.000      0.000
REMARK INTER + INTRA:         -12.404
REMARK INTER:                 -11.261
REMARK INTRA:                  -1.143
REMARK UNBOUND:                -1.143
REMARK  Name = 
REMARK  8 active torsions:
REMARK  status: ('A' for Active; 'I' for Inactive)
REMARK    1  A    between atoms: C_1  and  C_2
REMARK    2  A    between atoms: C_6  and  C_7
REMARK    3  A    between atoms: C_7  and  N_8
REMARK    4  A    between atoms: N_8  and  C_9
REMARK    5  A    between atoms: C_9  and  C_10
REMARK    6  A    between atoms: C_13  and  C_14
REMARK    7  A    between atoms: C_14  and  N_15
REMARK    8  A    between atoms: C_16  and  C_18
REMARK                            x       y       z     vdW  Elec       q    Type
REMARK                         _______ _______ _______ _____ _____    ______ ____
ROOT
ATOM      1  C   UNL     1      44.581   4.872  11.145  0.00  0.00    +0.000 A 
ATOM      2  C   UNL     1      45.592   5.564  10.483  0.00  0.00    +0.000 A 
ATOM      3  C   UNL     1      46.345   6.522  11.158  0.00  0.00    +0.000 A 
ATOM      4  C   UNL     1      46.073   6.786  12.496  0.00  0.00    +0.000 A 
ATOM      5  N   UNL     1      45.100   6.116  13.168  0.00  0.00    +0.000 NA
ATOM      6  C   UNL     1      44.388   5.182  12.484  0.00  0.00    +0.000 A 
ENDROOT
BRANCH   1   7
ATOM      7  C   UNL     1      43.717   3.869  10.435  0.00  0.00    +0.000 C 
BRANCH   7   8
ATOM      8  N   UNL     1      44.174   3.585   9.071  0.00  0.00    +0.000 NA
ATOM      9  H   UNL     1      43.388   3.686   8.429  0.00  0.00    +0.000 HD
BRANCH   8  10
ATOM     10  C   UNL     1      44.713   2.236   8.887  0.00  0.00    +0.000 C 
BRANCH  10  16
ATOM     11  C   UNL     1      46.746  -0.116   7.642  0.00  0.00    +0.000 C 
ATOM     12  C   UNL     1      46.797   1.363   7.490  0.00  0.00    +0.000 A 
ATOM     13  C   UNL     1      47.789   2.059   6.741  0.00  0.00    +0.000 A 
ATOM     14  C   UNL     1      47.507   3.403   6.814  0.00  0.00    +0.000 A 
ATOM     15  N   UNL     1      46.387   3.551   7.583  0.00  0.00    +0.000 N 
ATOM     16  C   UNL     1      45.933   2.323   8.014  0.00  0.00    +0.000 A 
ATOM     17  H   UNL     1      45.939   4.435   7.796  0.00  0.00    +0.000 HD
ENDBRANCH  10  16
ENDBRANCH   8  10
ENDBRANCH   7   8
ENDBRANCH   1   7
BRANCH   4  18
ATOM     18  C   UNL     1      46.842   7.852  13.250  0.00  0.00    +0.000 C 
BRANCH  18  19
ATOM     19  N   UNL     1      47.450   7.379  14.478  0.00  0.00    +0.000 N 
ATOM     20  C   UNL     1      48.693   6.820  14.531  0.00  0.00    +0.000 C 
ATOM     21  O   UNL     1      49.399   6.663  13.532  0.00  0.00    +0.000 OA
ATOM     22  H   UNL     1      46.807   7.139  15.225  0.00  0.00    +0.000 HD
BRANCH  20  23
ATOM     23  C   UNL     1      49.163   6.465  15.874  0.00  0.00    +0.000 A 
ATOM     24  C   UNL     1      50.166   7.201  16.485  0.00  0.00    +0.000 A 
ATOM     25  S   UNL     1      50.559   6.645  18.050  0.00  0.00    +0.000 S 
ATOM     26  C   UNL     1      49.421   5.382  17.952  0.00  0.00    +0.000 A 
ATOM     27  N   UNL     1      49.266   4.492  18.966  0.00  0.00    +0.000 NA
ATOM     28  C   UNL     1      48.383   3.571  18.743  0.00  0.00    +0.000 A 
ATOM     29  N   UNL     1      47.636   3.473  17.598  0.00  0.00    +0.000 N 
ATOM     30  C   UNL     1      47.715   4.385  16.582  0.00  0.00    +0.000 A 
ATOM     31  O   UNL     1      46.943   4.339  15.617  0.00  0.00    +0.000 OA
ATOM     32  C   UNL     1      48.726   5.406  16.756  0.00  0.00    +0.000 A 
ATOM     33  H   UNL     1      46.934   2.750  17.503  0.00  0.00    +0.000 HD
ENDBRANCH  20  23
ENDBRANCH  18  19
ENDBRANCH   4  18
TORSDOF 7
ENDMDL
MODEL 2
REMARK VINA RESULT:    -7.461      1.903      3.457
REMARK INTER + INTRA:         -11.657
REMARK INTER:                 -10.615
REMARK INTRA:                  -1.042
REMARK UNBOUND:                -1.143
REMARK  Name = 
REMARK  8 active torsions:
REMARK  status: ('A' for Active; 'I' for Inactive)
REMARK    1  A    between atoms: C_1  and  C_2
REMARK    2  A    between atoms: C_6  and  C_7
REMARK    3  A    between atoms: C_7  and  N_8
REMARK    4  A    between atoms: N_8  and  C_9
REMARK    5  A    between atoms: C_9  and  C_10
REMARK    6  A    between atoms: C_13  and  C_14
REMARK    7  A    between atoms: C_14  and  N_15
REMARK    8  A    between atoms: C_16  and  C_18
REMARK                            x       y       z     vdW  Elec       q    Type
REMARK                         _______ _______ _______ _____ _____    ______ ____
ROOT
ATOM      1  C   UNL     1      44.630   4.540  11.157  0.00  0.00    +0.000 A 
ATOM      2  C   UNL     1      45.078   5.708  11.768  0.00  0.00    +0.000 A 
ATOM      3  C   UNL     1      45.808   5.644  12.952  0.00  0.00    +0.000 A 
ATOM      4  C   UNL     1      46.080   4.404  13.522  0.00  0.00    +0.000 A 
ATOM      5  N   UNL     1      45.665   3.249  12.937  0.00  0.00    +0.000 NA
ATOM      6  C   UNL     1      44.961   3.345  11.779  0.00  0.00    +0.000 A 
ENDROOT
BRANCH   1   7
ATOM      7  C   UNL     1      43.797   4.575   9.906  0.00  0.00    +0.000 C 
BRANCH   7   8
ATOM      8  N   UNL     1      44.199   3.562   8.924  0.00  0.00    +0.000 NA
ATOM      9  H   UNL     1      44.419   2.695   9.412  0.00  0.00    +0.000 HD
BRANCH   8  10
ATOM     10  C   UNL     1      45.378   3.927   8.135  0.00  0.00    +0.000 C 
BRANCH  10  16
ATOM     11  C   UNL     1      47.134   3.200   5.378  0.00  0.00    +0.000 C 
ATOM     12  C   UNL     1      46.786   2.338   6.539  0.00  0.00    +0.000 A 
ATOM     13  C   UNL     1      47.171   0.972   6.667  0.00  0.00    +0.000 A 
ATOM     14  C   UNL     1      46.685   0.509   7.868  0.00  0.00    +0.000 A 
ATOM     15  N   UNL     1      46.016   1.537   8.470  0.00  0.00    +0.000 N 
ATOM     16  C   UNL     1      46.057   2.666   7.680  0.00  0.00    +0.000 A 
ATOM     17  H   UNL     1      45.567   1.488   9.377  0.00  0.00    +0.000 HD
ENDBRANCH  10  16
ENDBRANCH   8  10
ENDBRANCH   7   8
ENDBRANCH   1   7
BRANCH   4  18
ATOM     18  C   UNL     1      46.835   4.298  14.831  0.00  0.00    +0.000 C 
BRANCH  18  19
ATOM     19  N   UNL     1      47.525   5.514  15.212  0.00  0.00    +0.000 N 
ATOM     20  C   UNL     1      48.561   5.540  16.099  0.00  0.00    +0.000 C 
ATOM     21  O   UNL     1      48.990   4.527  16.656  0.00  0.00    +0.000 OA
ATOM     22  H   UNL     1      47.001   6.375  15.094  0.00  0.00    +0.000 HD
BRANCH  20  23
ATOM     23  C   UNL     1      49.175   6.856  16.306  0.00  0.00    +0.000 A 
ATOM     24  C   UNL     1      49.362   7.351  17.587  0.00  0.00    +0.000 A 
ATOM     25  S   UNL     1      50.108   8.886  17.619  0.00  0.00    +0.000 S 
ATOM     26  C   UNL     1      50.178   8.955  15.919  0.00  0.00    +0.000 A 
ATOM     27  N   UNL     1      50.684  10.039  15.277  0.00  0.00    +0.000 NA
ATOM     28  C   UNL     1      50.651   9.963  13.985  0.00  0.00    +0.000 A 
ATOM     29  N   UNL     1      50.165   8.890  13.282  0.00  0.00    +0.000 N 
ATOM     30  C   UNL     1      49.707   7.753  13.890  0.00  0.00    +0.000 A 
ATOM     31  O   UNL     1      49.389   6.757  13.230  0.00  0.00    +0.000 OA
ATOM     32  C   UNL     1      49.672   7.806  15.336  0.00  0.00    +0.000 A 
ATOM     33  H   UNL     1      50.204   8.879  12.272  0.00  0.00    +0.000 HD
ENDBRANCH  20  23
ENDBRANCH  18  19
ENDBRANCH   4  18
TORSDOF 7
ENDMDL
MODEL 3
REMARK VINA RESULT:    -7.456      1.961      2.264
REMARK INTER + INTRA:         -11.650
REMARK INTER:                 -10.786
REMARK INTRA:                  -0.865
REMARK UNBOUND:                -1.143
REMARK  Name = 
REMARK  8 active torsions:
REMARK  status: ('A' for Active; 'I' for Inactive)
REMARK    1  A    between atoms: C_1  and  C_2
REMARK    2  A    between atoms: C_6  and  C_7
REMARK    3  A    between atoms: C_7  and  N_8
REMARK    4  A    between atoms: N_8  and  C_9
REMARK    5  A    between atoms: C_9  and  C_10
REMARK    6  A    between atoms: C_13  and  C_14
REMARK    7  A    between atoms: C_14  and  N_15
REMARK    8  A    between atoms: C_16  and  C_18
REMARK                            x       y       z     vdW  Elec       q    Type
REMARK                         _______ _______ _______ _____ _____    ______ ____
ROOT
ATOM      1  C   UNL     1      44.824   4.654  11.357  0.00  0.00    +0.000 A 
ATOM      2  C   UNL     1      45.579   5.661  10.761  0.00  0.00    +0.000 A 
ATOM      3  C   UNL     1      46.559   6.329  11.492  0.00  0.00    +0.000 A 
ATOM      4  C   UNL     1      46.770   5.987  12.824  0.00  0.00    +0.000 A 
ATOM      5  N   UNL     1      46.054   4.999  13.424  0.00  0.00    +0.000 NA
ATOM      6  C   UNL     1      45.112   4.361  12.682  0.00  0.00    +0.000 A 
ENDROOT
BRANCH   1   7
ATOM      7  C   UNL     1      43.726   3.948  10.613  0.00  0.00    +0.000 C 
BRANCH   7   8
ATOM      8  N   UNL     1      44.123   3.538   9.261  0.00  0.00    +0.000 NA
ATOM      9  H   UNL     1      43.287   3.428   8.688  0.00  0.00    +0.000 HD
BRANCH   8  10
ATOM     10  C   UNL     1      44.855   2.271   9.209  0.00  0.00    +0.000 C 
BRANCH  10  16
ATOM     11  C   UNL     1      46.728  -0.035   7.665  0.00  0.00    +0.000 C 
ATOM     12  C   UNL     1      46.734   1.446   7.524  0.00  0.00    +0.000 A 
ATOM     13  C   UNL     1      47.601   2.166   6.650  0.00  0.00    +0.000 A 
ATOM     14  C   UNL     1      47.311   3.504   6.779  0.00  0.00    +0.000 A 
ATOM     15  N   UNL     1      46.309   3.626   7.699  0.00  0.00    +0.000 N 
ATOM     16  C   UNL     1      45.939   2.387   8.175  0.00  0.00    +0.000 A 
ATOM     17  H   UNL     1      45.881   4.500   7.983  0.00  0.00    +0.000 HD
ENDBRANCH  10  16
ENDBRANCH   8  10
ENDBRANCH   7   8
ENDBRANCH   1   7
BRANCH   4  18
ATOM     18  C   UNL     1      47.797   6.721  13.662  0.00  0.00    +0.000 C 
BRANCH  18  19
ATOM     19  N   UNL     1      47.872   6.261  15.034  0.00  0.00    +0.000 N 
ATOM     20  C   UNL     1      48.911   6.561  15.867  0.00  0.00    +0.000 C 
ATOM     21  O   UNL     1      49.876   7.243  15.515  0.00  0.00    +0.000 OA
ATOM     22  H   UNL     1      47.336   5.428  15.252  0.00  0.00    +0.000 HD
BRANCH  20  23
ATOM     23  C   UNL     1      48.776   6.061  17.239  0.00  0.00    +0.000 A 
ATOM     24  C   UNL     1      49.103   4.750  17.546  0.00  0.00    +0.000 A 
ATOM     25  S   UNL     1      48.898   4.366  19.196  0.00  0.00    +0.000 S 
ATOM     26  C   UNL     1      48.335   5.933  19.552  0.00  0.00    +0.000 A 
ATOM     27  N   UNL     1      47.946   6.275  20.807  0.00  0.00    +0.000 NA
ATOM     28  C   UNL     1      47.517   7.492  20.925  0.00  0.00    +0.000 A 
ATOM     29  N   UNL     1      47.456   8.397  19.897  0.00  0.00    +0.000 N 
ATOM     30  C   UNL     1      47.898   8.112  18.634  0.00  0.00    +0.000 A 
ATOM     31  O   UNL     1      47.943   8.985  17.758  0.00  0.00    +0.000 OA
ATOM     32  C   UNL     1      48.338   6.748  18.434  0.00  0.00    +0.000 A 
ATOM     33  H   UNL     1      47.146   9.345  20.065  0.00  0.00    +0.000 HD
ENDBRANCH  20  23
ENDBRANCH  18  19
ENDBRANCH   4  18
TORSDOF 7
ENDMDL
MODEL 4
REMARK VINA RESULT:    -7.403      1.956      3.190
REMARK INTER + INTRA:         -11.575
REMARK INTER:                 -10.849
REMARK INTRA:                  -0.726
REMARK UNBOUND:                -1.143
REMARK  Name = 
REMARK  8 active torsions:
REMARK  status: ('A' for Active; 'I' for Inactive)
REMARK    1  A    between atoms: C_1  and  C_2
REMARK    2  A    between atoms: C_6  and  C_7
REMARK    3  A    between atoms: C_7  and  N_8
REMARK    4  A    between atoms: N_8  and  C_9
REMARK    5  A    between atoms: C_9  and  C_10
REMARK    6  A    between atoms: C_13  and  C_14
REMARK    7  A    between atoms: C_14  and  N_15
REMARK    8  A    between atoms: C_16  and  C_18
REMARK                            x       y       z     vdW  Elec       q    Type
REMARK                         _______ _______ _______ _____ _____    ______ ____
ROOT
ATOM      1  C   UNL     1      44.759   4.682  11.213  0.00  0.00    +0.000 A 
ATOM      2  C   UNL     1      45.476   5.721  11.801  0.00  0.00    +0.000 A 
ATOM      3  C   UNL     1      46.273   5.479  12.917  0.00  0.00    +0.000 A 
ATOM      4  C   UNL     1      46.340   4.193  13.443  0.00  0.00    +0.000 A 
ATOM      5  N   UNL     1      45.660   3.160  12.879  0.00  0.00    +0.000 NA
ATOM      6  C   UNL     1      44.898   3.427  11.787  0.00  0.00    +0.000 A 
ENDROOT
BRANCH   1   7
ATOM      7  C   UNL     1      43.851   4.918  10.039  0.00  0.00    +0.000 C 
BRANCH   7   8
ATOM      8  N   UNL     1      44.336   4.288   8.806  0.00  0.00    +0.000 NA
ATOM      9  H   UNL     1      44.317   3.275   8.920  0.00  0.00    +0.000 HD
BRANCH   8  10
ATOM     10  C   UNL     1      45.705   4.657   8.442  0.00  0.00    +0.000 C 
BRANCH  10  16
ATOM     11  C   UNL     1      45.133   1.374   8.771  0.00  0.00    +0.000 C 
ATOM     12  C   UNL     1      46.168   2.085   7.972  0.00  0.00    +0.000 A 
ATOM     13  C   UNL     1      47.148   1.433   7.168  0.00  0.00    +0.000 A 
ATOM     14  C   UNL     1      47.917   2.405   6.572  0.00  0.00    +0.000 A 
ATOM     15  N   UNL     1      47.448   3.619   6.987  0.00  0.00    +0.000 N 
ATOM     16  C   UNL     1      46.383   3.455   7.847  0.00  0.00    +0.000 A 
ATOM     17  H   UNL     1      47.815   4.518   6.695  0.00  0.00    +0.000 HD
ENDBRANCH  10  16
ENDBRANCH   8  10
ENDBRANCH   7   8
ENDBRANCH   1   7
BRANCH   4  18
ATOM     18  C   UNL     1      47.163   3.902  14.681  0.00  0.00    +0.000 C 
BRANCH  18  19
ATOM     19  N   UNL     1      47.376   5.057  15.530  0.00  0.00    +0.000 N 
ATOM     20  C   UNL     1      48.379   5.133  16.452  0.00  0.00    +0.000 C 
ATOM     21  O   UNL     1      49.184   4.218  16.643  0.00  0.00    +0.000 OA
ATOM     22  H   UNL     1      46.566   5.647  15.686  0.00  0.00    +0.000 HD
BRANCH  20  23
ATOM     23  C   UNL     1      48.474   6.409  17.169  0.00  0.00    +0.000 A 
ATOM     24  C   UNL     1      48.293   6.459  18.542  0.00  0.00    +0.000 A 
ATOM     25  S   UNL     1      48.463   8.028  19.193  0.00  0.00    +0.000 S 
ATOM     26  C   UNL     1      48.754   8.699  17.655  0.00  0.00    +0.000 A 
ATOM     27  N   UNL     1      48.952  10.033  17.493  0.00  0.00    +0.000 NA
ATOM     28  C   UNL     1      49.136  10.404  16.267  0.00  0.00    +0.000 A 
ATOM     29  N   UNL     1      49.151   9.554  15.192  0.00  0.00    +0.000 N 
ATOM     30  C   UNL     1      49.020   8.198  15.319  0.00  0.00    +0.000 A 
ATOM     31  O   UNL     1      49.158   7.446  14.346  0.00  0.00    +0.000 OA
ATOM     32  C   UNL     1      48.758   7.734  16.664  0.00  0.00    +0.000 A 
ATOM     33  H   UNL     1      49.338   9.905  14.262  0.00  0.00    +0.000 HD
ENDBRANCH  20  23
ENDBRANCH  18  19
ENDBRANCH   4  18
TORSDOF 7
ENDMDL
MODEL 5
REMARK VINA RESULT:    -7.217      2.301      2.736
REMARK INTER + INTRA:         -11.313
REMARK INTER:                 -10.594
REMARK INTRA:                  -0.719
REMARK UNBOUND:                -1.143
REMARK  Name = 
REMARK  8 active torsions:
REMARK  status: ('A' for Active; 'I' for Inactive)
REMARK    1  A    between atoms: C_1  and  C_2
REMARK    2  A    between atoms: C_6  and  C_7
REMARK    3  A    between atoms: C_7  and  N_8
REMARK    4  A    between atoms: N_8  and  C_9
REMARK    5  A    between atoms: C_9  and  C_10
REMARK    6  A    between atoms: C_13  and  C_14
REMARK    7  A    between atoms: C_14  and  N_15
REMARK    8  A    between atoms: C_16  and  C_18
REMARK                            x       y       z     vdW  Elec       q    Type
REMARK                         _______ _______ _______ _____ _____    ______ ____
ROOT
ATOM      1  C   UNL     1      44.886   4.511  11.162  0.00  0.00    +0.000 A 
ATOM      2  C   UNL     1      45.574   5.615  11.658  0.00  0.00    +0.000 A 
ATOM      3  C   UNL     1      46.335   5.503  12.819  0.00  0.00    +0.000 A 
ATOM      4  C   UNL     1      46.396   4.282  13.482  0.00  0.00    +0.000 A 
ATOM      5  N   UNL     1      45.743   3.186  13.010  0.00  0.00    +0.000 NA
ATOM      6  C   UNL     1      45.015   3.326  11.872  0.00  0.00    +0.000 A 
ENDROOT
BRANCH   1   7
ATOM      7  C   UNL     1      44.015   4.608   9.941  0.00  0.00    +0.000 C 
BRANCH   7   8
ATOM      8  N   UNL     1      44.746   4.349   8.696  0.00  0.00    +0.000 NA
ATOM      9  H   UNL     1      44.273   4.825   7.928  0.00  0.00    +0.000 HD
BRANCH   8  10
ATOM     10  C   UNL     1      44.837   2.932   8.338  0.00  0.00    +0.000 C 
BRANCH  10  16
ATOM     11  C   UNL     1      46.601   0.148   7.749  0.00  0.00    +0.000 C 
ATOM     12  C   UNL     1      46.895   1.557   7.376  0.00  0.00    +0.000 A 
ATOM     13  C   UNL     1      48.056   1.972   6.661  0.00  0.00    +0.000 A 
ATOM     14  C   UNL     1      47.979   3.334   6.487  0.00  0.00    +0.000 A 
ATOM     15  N   UNL     1      46.821   3.763   7.072  0.00  0.00    +0.000 N 
ATOM     16  C   UNL     1      46.140   2.701   7.628  0.00  0.00    +0.000 A 
ATOM     17  H   UNL     1      46.495   4.723   7.085  0.00  0.00    +0.000 HD
ENDBRANCH  10  16
ENDBRANCH   8  10
ENDBRANCH   7   8
ENDBRANCH   1   7
BRANCH   4  18
ATOM     18  C   UNL     1      47.179   4.134  14.770  0.00  0.00    +0.000 C 
BRANCH  18  19
ATOM     19  N   UNL     1      47.495   5.394  15.413  0.00  0.00    +0.000 N 
ATOM     20  C   UNL     1      48.493   5.534  16.333  0.00  0.00    +0.000 C 
ATOM     21  O   UNL     1      49.203   4.595  16.699  0.00  0.00    +0.000 OA
ATOM     22  H   UNL     1      46.745   6.075  15.444  0.00  0.00    +0.000 HD
BRANCH  20  23
ATOM     23  C   UNL     1      48.705   6.901  16.822  0.00  0.00    +0.000 A 
ATOM     24  C   UNL     1      49.348   7.839  16.030  0.00  0.00    +0.000 A 
ATOM     25  S   UNL     1      49.482   9.372  16.767  0.00  0.00    +0.000 S 
ATOM     26  C   UNL     1      48.711   8.826  18.183  0.00  0.00    +0.000 A 
ATOM     27  N   UNL     1      48.528   9.647  19.249  0.00  0.00    +0.000 NA
ATOM     28  C   UNL     1      47.950   9.090  20.265  0.00  0.00    +0.000 A 
ATOM     29  N   UNL     1      47.530   7.785  20.300  0.00  0.00    +0.000 N 
ATOM     30  C   UNL     1      47.637   6.944  19.226  0.00  0.00    +0.000 A 
ATOM     31  O   UNL     1      47.141   5.812  19.247  0.00  0.00    +0.000 OA
ATOM     32  C   UNL     1      48.324   7.501  18.081  0.00  0.00    +0.000 A 
ATOM     33  H   UNL     1      47.050   7.422  21.113  0.00  0.00    +0.000 HD
ENDBRANCH  20  23
ENDBRANCH  18  19
ENDBRANCH   4  18
TORSDOF 7
ENDMDL
MODEL 6
REMARK VINA RESULT:    -7.186      4.335      9.338
REMARK INTER + INTRA:         -11.269
REMARK INTER:                 -10.359
REMARK INTRA:                  -0.910
REMARK UNBOUND:                -1.143
REMARK  Name = 
REMARK  8 active torsions:
REMARK  status: ('A' for Active; 'I' for Inactive)
REMARK    1  A    between atoms: C_1  and  C_2
REMARK    2  A    between atoms: C_6  and  C_7
REMARK    3  A    between atoms: C_7  and  N_8
REMARK    4  A    between atoms: N_8  and  C_9
REMARK    5  A    between atoms: C_9  and  C_10
REMARK    6  A    between atoms: C_13  and  C_14
REMARK    7  A    between atoms: C_14  and  N_15
REMARK    8  A    between atoms: C_16  and  C_18
REMARK                            x       y       z     vdW  Elec       q    Type
REMARK                         _______ _______ _______ _____ _____    ______ ____
ROOT
ATOM      1  C   UNL     1      51.398   3.420  17.728  0.00  0.00    +0.000 A 
ATOM      2  C   UNL     1      50.781   2.244  17.312  0.00  0.00    +0.000 A 
ATOM      3  C   UNL     1      49.425   2.238  16.995  0.00  0.00    +0.000 A 
ATOM      4  C   UNL     1      48.692   3.415  17.105  0.00  0.00    +0.000 A 
ATOM      5  N   UNL     1      49.275   4.579  17.497  0.00  0.00    +0.000 NA
ATOM      6  C   UNL     1      50.601   4.554  17.792  0.00  0.00    +0.000 A 
ENDROOT
BRANCH   1   7
ATOM      7  C   UNL     1      52.847   3.451  18.127  0.00  0.00    +0.000 C 
BRANCH   7   8
ATOM      8  N   UNL     1      53.145   2.577  19.267  0.00  0.00    +0.000 NA
ATOM      9  H   UNL     1      52.956   3.083  20.132  0.00  0.00    +0.000 HD
BRANCH   8  10
ATOM     10  C   UNL     1      54.534   2.120  19.326  0.00  0.00    +0.000 C 
BRANCH  10  16
ATOM     11  C   UNL     1      55.528   1.414  16.207  0.00  0.00    +0.000 C 
ATOM     12  C   UNL     1      55.047   0.505  17.282  0.00  0.00    +0.000 A 
ATOM     13  C   UNL     1      54.922  -0.908  17.140  0.00  0.00    +0.000 A 
ATOM     14  C   UNL     1      54.465  -1.411  18.335  0.00  0.00    +0.000 A 
ATOM     15  N   UNL     1      54.300  -0.362  19.193  0.00  0.00    +0.000 N 
ATOM     16  C   UNL     1      54.644   0.822  18.577  0.00  0.00    +0.000 A 
ATOM     17  H   UNL     1      53.987  -0.437  20.154  0.00  0.00    +0.000 HD
ENDBRANCH  10  16
ENDBRANCH   8  10
ENDBRANCH   7   8
ENDBRANCH   1   7
BRANCH   4  18
ATOM     18  C   UNL     1      47.207   3.437  16.809  0.00  0.00    +0.000 C 
BRANCH  18  19
ATOM     19  N   UNL     1      46.823   4.396  15.793  0.00  0.00    +0.000 N 
ATOM     20  C   UNL     1      46.859   4.124  14.456  0.00  0.00    +0.000 C 
ATOM     21  O   UNL     1      47.228   3.038  14.004  0.00  0.00    +0.000 OA
ATOM     22  H   UNL     1      46.878   5.372  16.063  0.00  0.00    +0.000 HD
BRANCH  20  23
ATOM     23  C   UNL     1      46.369   5.199  13.586  0.00  0.00    +0.000 A 
ATOM     24  C   UNL     1      47.142   6.327  13.359  0.00  0.00    +0.000 A 
ATOM     25  S   UNL     1      46.409   7.451  12.305  0.00  0.00    +0.000 S 
ATOM     26  C   UNL     1      45.019   6.482  12.141  0.00  0.00    +0.000 A 
ATOM     27  N   UNL     1      43.964   6.883  11.385  0.00  0.00    +0.000 NA
ATOM     28  C   UNL     1      42.967   6.057  11.372  0.00  0.00    +0.000 A 
ATOM     29  N   UNL     1      42.941   4.861  12.041  0.00  0.00    +0.000 N 
ATOM     30  C   UNL     1      44.006   4.391  12.760  0.00  0.00    +0.000 A 
ATOM     31  O   UNL     1      43.997   3.256  13.251  0.00  0.00    +0.000 OA
ATOM     32  C   UNL     1      45.128   5.300  12.851  0.00  0.00    +0.000 A 
ATOM     33  H   UNL     1      42.144   4.243  11.957  0.00  0.00    +0.000 HD
ENDBRANCH  20  23
ENDBRANCH  18  19
ENDBRANCH   4  18
TORSDOF 7
ENDMDL
MODEL 7
REMARK VINA RESULT:    -7.090      2.979      4.765
REMARK INTER + INTRA:         -11.134
REMARK INTER:                 -10.247
REMARK INTRA:                  -0.888
REMARK UNBOUND:                -1.143
REMARK  Name = 
REMARK  8 active torsions:
REMARK  status: ('A' for Active; 'I' for Inactive)
REMARK    1  A    between atoms: C_1  and  C_2
REMARK    2  A    between atoms: C_6  and  C_7
REMARK    3  A    between atoms: C_7  and  N_8
REMARK    4  A    between atoms: N_8  and  C_9
REMARK    5  A    between atoms: C_9  and  C_10
REMARK    6  A    between atoms: C_13  and  C_14
REMARK    7  A    between atoms: C_14  and  N_15
REMARK    8  A    between atoms: C_16  and  C_18
REMARK                            x       y       z     vdW  Elec       q    Type
REMARK                         _______ _______ _______ _____ _____    ______ ____
ROOT
ATOM      1  C   UNL     1      47.202   5.781  13.609  0.00  0.00    +0.000 A 
ATOM      2  C   UNL     1      48.004   6.271  14.637  0.00  0.00    +0.000 A 
ATOM      3  C   UNL     1      48.176   5.532  15.805  0.00  0.00    +0.000 A 
ATOM      4  C   UNL     1      47.533   4.305  15.938  0.00  0.00    +0.000 A 
ATOM      5  N   UNL     1      46.755   3.801  14.945  0.00  0.00    +0.000 NA
ATOM      6  C   UNL     1      46.613   4.541  13.815  0.00  0.00    +0.000 A 
ENDROOT
BRANCH   1   7
ATOM      7  C   UNL     1      46.954   6.574  12.357  0.00  0.00    +0.000 C 
BRANCH   7   8
ATOM      8  N   UNL     1      45.690   6.223  11.700  0.00  0.00    +0.000 NA
ATOM      9  H   UNL     1      45.290   5.407  12.163  0.00  0.00    +0.000 HD
BRANCH   8  10
ATOM     10  C   UNL     1      45.824   5.894  10.280  0.00  0.00    +0.000 C 
BRANCH  10  16
ATOM     11  C   UNL     1      45.921   3.816   7.655  0.00  0.00    +0.000 C 
ATOM     12  C   UNL     1      45.219   3.671   8.958  0.00  0.00    +0.000 A 
ATOM     13  C   UNL     1      44.419   2.547   9.317  0.00  0.00    +0.000 A 
ATOM     14  C   UNL     1      43.947   2.757  10.592  0.00  0.00    +0.000 A 
ATOM     15  N   UNL     1      44.422   3.965  11.018  0.00  0.00    +0.000 N 
ATOM     16  C   UNL     1      45.198   4.549  10.040  0.00  0.00    +0.000 A 
ATOM     17  H   UNL     1      44.247   4.372  11.929  0.00  0.00    +0.000 HD
ENDBRANCH  10  16
ENDBRANCH   8  10
ENDBRANCH   7   8
ENDBRANCH   1   7
BRANCH   4  18
ATOM     18  C   UNL     1      47.663   3.495  17.212  0.00  0.00    +0.000 C 
BRANCH  18  19
ATOM     19  N   UNL     1      49.032   3.212  17.592  0.00  0.00    +0.000 N 
ATOM     20  C   UNL     1      49.826   2.326  16.924  0.00  0.00    +0.000 C 
ATOM     21  O   UNL     1      49.438   1.686  15.944  0.00  0.00    +0.000 OA
ATOM     22  H   UNL     1      49.271   3.402  18.559  0.00  0.00    +0.000 HD
BRANCH  20  23
ATOM     23  C   UNL     1      51.204   2.225  17.417  0.00  0.00    +0.000 A 
ATOM     24  C   UNL     1      51.797   0.985  17.596  0.00  0.00    +0.000 A 
ATOM     25  S   UNL     1      53.406   1.078  18.157  0.00  0.00    +0.000 S 
ATOM     26  C   UNL     1      53.354   2.779  18.209  0.00  0.00    +0.000 A 
ATOM     27  N   UNL     1      54.418   3.504  18.640  0.00  0.00    +0.000 NA
ATOM     28  C   UNL     1      54.227   4.785  18.650  0.00  0.00    +0.000 A 
ATOM     29  N   UNL     1      53.068   5.400  18.253  0.00  0.00    +0.000 N 
ATOM     30  C   UNL     1      51.998   4.711  17.752  0.00  0.00    +0.000 A 
ATOM     31  O   UNL     1      51.014   5.301  17.290  0.00  0.00    +0.000 OA
ATOM     32  C   UNL     1      52.138   3.270  17.769  0.00  0.00    +0.000 A 
ATOM     33  H   UNL     1      52.998   6.410  18.249  0.00  0.00    +0.000 HD
ENDBRANCH  20  23
ENDBRANCH  18  19
ENDBRANCH   4  18
TORSDOF 7
ENDMDL
MODEL 8
REMARK VINA RESULT:    -7.064      1.716      2.048
REMARK INTER + INTRA:         -11.098
REMARK INTER:                 -10.176
REMARK INTRA:                  -0.922
REMARK UNBOUND:                -1.143
REMARK  Name = 
REMARK  8 active torsions:
REMARK  status: ('A' for Active; 'I' for Inactive)
REMARK    1  A    between atoms: C_1  and  C_2
REMARK    2  A    between atoms: C_6  and  C_7
REMARK    3  A    between atoms: C_7  and  N_8
REMARK    4  A    between atoms: N_8  and  C_9
REMARK    5  A    between atoms: C_9  and  C_10
REMARK    6  A    between atoms: C_13  and  C_14
REMARK    7  A    between atoms: C_14  and  N_15
REMARK    8  A    between atoms: C_16  and  C_18
REMARK                            x       y       z     vdW  Elec       q    Type
REMARK                         _______ _______ _______ _____ _____    ______ ____
ROOT
ATOM      1  C   UNL     1      45.187   4.578  11.789  0.00  0.00    +0.000 A 
ATOM      2  C   UNL     1      45.979   4.722  12.925  0.00  0.00    +0.000 A 
ATOM      3  C   UNL     1      46.394   5.986  13.335  0.00  0.00    +0.000 A 
ATOM      4  C   UNL     1      46.018   7.103  12.595  0.00  0.00    +0.000 A 
ATOM      5  N   UNL     1      45.236   6.989  11.489  0.00  0.00    +0.000 NA
ATOM      6  C   UNL     1      44.841   5.743  11.120  0.00  0.00    +0.000 A 
ENDROOT
BRANCH   1   7
ATOM      7  C   UNL     1      44.763   3.226  11.290  0.00  0.00    +0.000 C 
BRANCH   7   8
ATOM      8  N   UNL     1      44.252   3.259   9.915  0.00  0.00    +0.000 NA
ATOM      9  H   UNL     1      43.236   3.339   9.940  0.00  0.00    +0.000 HD
BRANCH   8  10
ATOM     10  C   UNL     1      44.574   2.068   9.126  0.00  0.00    +0.000 C 
BRANCH  10  16
ATOM     11  C   UNL     1      46.831   0.130   7.589  0.00  0.00    +0.000 C 
ATOM     12  C   UNL     1      46.676   1.610   7.569  0.00  0.00    +0.000 A 
ATOM     13  C   UNL     1      47.525   2.496   6.843  0.00  0.00    +0.000 A 
ATOM     14  C   UNL     1      47.071   3.777   7.050  0.00  0.00    +0.000 A 
ATOM     15  N   UNL     1      45.985   3.705   7.877  0.00  0.00    +0.000 N 
ATOM     16  C   UNL     1      45.723   2.394   8.214  0.00  0.00    +0.000 A 
ATOM     17  H   UNL     1      45.435   4.498   8.188  0.00  0.00    +0.000 HD
ENDBRANCH  10  16
ENDBRANCH   8  10
ENDBRANCH   7   8
ENDBRANCH   1   7
BRANCH   4  18
ATOM     18  C   UNL     1      46.488   8.489  12.986  0.00  0.00    +0.000 C 
BRANCH  18  19
ATOM     19  N   UNL     1      47.003   8.575  14.338  0.00  0.00    +0.000 N 
ATOM     20  C   UNL     1      48.326   8.748  14.624  0.00  0.00    +0.000 C 
ATOM     21  O   UNL     1      49.194   8.837  13.752  0.00  0.00    +0.000 OA
ATOM     22  H   UNL     1      46.431   8.147  15.057  0.00  0.00    +0.000 HD
BRANCH  20  23
ATOM     23  C   UNL     1      48.646   8.879  16.049  0.00  0.00    +0.000 A 
ATOM     24  C   UNL     1      48.653  10.125  16.657  0.00  0.00    +0.000 A 
ATOM     25  S   UNL     1      49.029  10.067  18.321  0.00  0.00    +0.000 S 
ATOM     26  C   UNL     1      49.225   8.376  18.279  0.00  0.00    +0.000 A 
ATOM     27  N   UNL     1      49.587   7.680  19.388  0.00  0.00    +0.000 NA
ATOM     28  C   UNL     1      49.722   6.406  19.203  0.00  0.00    +0.000 A 
ATOM     29  N   UNL     1      49.515   5.768  18.007  0.00  0.00    +0.000 N 
ATOM     30  C   UNL     1      49.087   6.423  16.884  0.00  0.00    +0.000 A 
ATOM     31  O   UNL     1      48.792   5.804  15.854  0.00  0.00    +0.000 OA
ATOM     32  C   UNL     1      48.971   7.859  17.021  0.00  0.00    +0.000 A 
ATOM     33  H   UNL     1      49.601   4.763  17.939  0.00  0.00    +0.000 HD
ENDBRANCH  20  23
ENDBRANCH  18  19
ENDBRANCH   4  18
TORSDOF 7
ENDMDL
MODEL 9
REMARK VINA RESULT:    -7.045      3.297      8.159
REMARK INTER + INTRA:         -11.070
REMARK INTER:                  -9.704
REMARK INTRA:                  -1.366
REMARK UNBOUND:                -1.143
REMARK  Name = 
REMARK  8 active torsions:
REMARK  status: ('A' for Active; 'I' for Inactive)
REMARK    1  A    between atoms: C_1  and  C_2
REMARK    2  A    between atoms: C_6  and  C_7
REMARK    3  A    between atoms: C_7  and  N_8
REMARK    4  A    between atoms: N_8  and  C_9
REMARK    5  A    between atoms: C_9  and  C_10
REMARK    6  A    between atoms: C_13  and  C_14
REMARK    7  A    between atoms: C_14  and  N_15
REMARK    8  A    between atoms: C_16  and  C_18
REMARK                            x       y       z     vdW  Elec       q    Type
REMARK                         _______ _______ _______ _____ _____    ______ ____
ROOT
ATOM      1  C   UNL     1      49.925   6.784  16.164  0.00  0.00    +0.000 A 
ATOM      2  C   UNL     1      48.696   6.266  15.766  0.00  0.00    +0.000 A 
ATOM      3  C   UNL     1      48.206   6.528  14.489  0.00  0.00    +0.000 A 
ATOM      4  C   UNL     1      48.950   7.318  13.619  0.00  0.00    +0.000 A 
ATOM      5  N   UNL     1      50.158   7.826  13.981  0.00  0.00    +0.000 NA
ATOM      6  C   UNL     1      50.613   7.546  15.230  0.00  0.00    +0.000 A 
ENDROOT
BRANCH   1   7
ATOM      7  C   UNL     1      50.461   6.564  17.551  0.00  0.00    +0.000 C 
BRANCH   7   8
ATOM      8  N   UNL     1      49.419   6.186  18.513  0.00  0.00    +0.000 NA
ATOM      9  H   UNL     1      49.288   6.948  19.177  0.00  0.00    +0.000 HD
BRANCH   8  10
ATOM     10  C   UNL     1      49.727   4.983  19.289  0.00  0.00    +0.000 C 
BRANCH  10  16
ATOM     11  C   UNL     1      47.393   3.399  17.483  0.00  0.00    +0.000 C 
ATOM     12  C   UNL     1      48.853   3.136  17.592  0.00  0.00    +0.000 A 
ATOM     13  C   UNL     1      49.534   2.093  16.898  0.00  0.00    +0.000 A 
ATOM     14  C   UNL     1      50.866   2.166  17.232  0.00  0.00    +0.000 A 
ATOM     15  N   UNL     1      51.020   3.206  18.105  0.00  0.00    +0.000 N 
ATOM     16  C   UNL     1      49.807   3.814  18.347  0.00  0.00    +0.000 A 
ATOM     17  H   UNL     1      51.901   3.504  18.508  0.00  0.00    +0.000 HD
ENDBRANCH  10  16
ENDBRANCH   8  10
ENDBRANCH   7   8
ENDBRANCH   1   7
BRANCH   4  18
ATOM     18  C   UNL     1      48.428   7.659  12.239  0.00  0.00    +0.000 C 
BRANCH  18  19
ATOM     19  N   UNL     1      47.612   6.619  11.645  0.00  0.00    +0.000 N 
ATOM     20  C   UNL     1      46.257   6.711  11.522  0.00  0.00    +0.000 C 
ATOM     21  O   UNL     1      45.613   7.687  11.914  0.00  0.00    +0.000 OA
ATOM     22  H   UNL     1      48.009   5.686  11.656  0.00  0.00    +0.000 HD
BRANCH  20  23
ATOM     23  C   UNL     1      45.613   5.586  10.834  0.00  0.00    +0.000 A 
ATOM     24  C   UNL     1      45.657   5.490   9.452  0.00  0.00    +0.000 A 
ATOM     25  S   UNL     1      44.869   4.104   8.843  0.00  0.00    +0.000 S 
ATOM     26  C   UNL     1      44.417   3.601  10.405  0.00  0.00    +0.000 A 
ATOM     27  N   UNL     1      43.678   2.478  10.599  0.00  0.00    +0.000 NA
ATOM     28  C   UNL     1      43.387   2.231  11.836  0.00  0.00    +0.000 A 
ATOM     29  N   UNL     1      43.783   3.007  12.896  0.00  0.00    +0.000 N 
ATOM     30  C   UNL     1      44.581   4.108  12.750  0.00  0.00    +0.000 A 
ATOM     31  O   UNL     1      45.021   4.716  13.733  0.00  0.00    +0.000 OA
ATOM     32  C   UNL     1      44.891   4.459  11.381  0.00  0.00    +0.000 A 
ATOM     33  H   UNL     1      43.553   2.736  13.843  0.00  0.00    +0.000 HD
ENDBRANCH  20  23
ENDBRANCH  18  19
ENDBRANCH   4  18
TORSDOF 7
ENDMDL
