MODEL 1
REMARK VINA RESULT:    -8.338      0.000      0.000
REMARK INTER + INTRA:         -13.603
REMARK INTER:                 -12.238
REMARK INTRA:                  -1.365
REMARK UNBOUND:                -1.365
REMARK  Name = 
REMARK  9 active torsions:
REMARK  status: ('A' for Active; 'I' for Inactive)
REMARK    1  A    between atoms: C_1  and  O_2
REMARK    2  A    between atoms: O_2  and  C_3
REMARK    3  A    between atoms: C_10  and  C_11
REMARK    4  A    between atoms: N_13  and  C_14
REMARK    5  A    between atoms: C_14  and  C_15
REMARK    6  A    between atoms: C_18  and  C_19
REMARK    7  A    between atoms: C_19  and  O_20
REMARK    8  A    between atoms: O_20  and  C_21
REMARK    9  A    between atoms: C_21  and  C_22
REMARK                            x       y       z     vdW  Elec       q    Type
REMARK                         _______ _______ _______ _____ _____    ______ ____
ROOT
ATOM      1  C   UNL     1      47.974   6.907  13.319  0.00  0.00    +0.000 C 
ENDROOT
BRANCH   1   2
ATOM      2  C   UNL     1      46.853   6.091  12.732  0.00  0.00    +0.000 A 
ATOM      3  C   UNL     1      46.236   5.081  13.483  0.00  0.00    +0.000 A 
ATOM      4  C   UNL     1      45.210   4.310  12.931  0.00  0.00    +0.000 A 
ATOM      5  C   UNL     1      44.786   4.530  11.614  0.00  0.00    +0.000 A 
ATOM      6  C   UNL     1      45.398   5.541  10.864  0.00  0.00    +0.000 A 
ATOM      7  C   UNL     1      46.424   6.312  11.416  0.00  0.00    +0.000 A 
BRANCH   5   8
ATOM      8  C   UNL     1      43.652   3.721  11.030  0.00  0.00    +0.000 C 
BRANCH   8   9
ATOM      9  O   UNL     1      43.856   3.430   9.647  0.00  0.00    +0.000 OA
BRANCH   9  10
ATOM     10  C   UNL     1      44.515   2.180   9.451  0.00  0.00    +0.000 C 
BRANCH  10  11
ATOM     11  C   UNL     1      45.575   2.325   8.394  0.00  0.00    +0.000 A 
ATOM     12  C   UNL     1      46.424   1.249   8.090  0.00  0.00    +0.000 A 
ATOM     13  C   UNL     1      47.365   1.359   7.068  0.00  0.00    +0.000 A 
ATOM     14  C   UNL     1      47.470   2.544   6.343  0.00  0.00    +0.000 A 
ATOM     15  C   UNL     1      46.649   3.626   6.651  0.00  0.00    +0.000 A 
ATOM     16  C   UNL     1      45.709   3.521   7.678  0.00  0.00    +0.000 A 
ENDBRANCH  10  11
ENDBRANCH   9  10
ENDBRANCH   8   9
ENDBRANCH   5   8
ENDBRANCH   1   2
BRANCH   1  19
ATOM     17  C   UNL     1      48.992   6.928  15.548  0.00  0.00    +0.000 C 
ATOM     18  O   UNL     1      50.107   6.709  15.082  0.00  0.00    +0.000 OA
ATOM     19  N   UNL     1      47.873   6.991  14.756  0.00  0.00    +0.000 N 
ATOM     20  H   UNL     1      46.987   7.273  15.158  0.00  0.00    +0.000 HD
BRANCH  17  28
ATOM     21  C   UNL     1      48.891   4.648  18.043  0.00  0.00    +0.000 A 
ATOM     22  N   UNL     1      48.875   3.962  19.203  0.00  0.00    +0.000 NA
ATOM     23  C   UNL     1      48.715   4.652  20.339  0.00  0.00    +0.000 A 
ATOM     24  N   UNL     1      48.559   5.972  20.464  0.00  0.00    +0.000 NA
ATOM     25  C   UNL     1      48.588   6.614  19.287  0.00  0.00    +0.000 A 
ATOM     26  S   UNL     1      48.368   8.297  19.229  0.00  0.00    +0.000 S 
ATOM     27  C   UNL     1      48.517   8.312  17.534  0.00  0.00    +0.000 A 
ATOM     28  C   UNL     1      48.780   7.061  16.993  0.00  0.00    +0.000 A 
ATOM     29  C   UNL     1      48.772   6.047  18.034  0.00  0.00    +0.000 A 
BRANCH  21  31
ATOM     30  C   UNL     1      47.789   3.415  16.378  0.00  0.00    +0.000 C 
ATOM     31  O   UNL     1      49.015   3.958  16.855  0.00  0.00    +0.000 OA
ENDBRANCH  21  31
ENDBRANCH  17  28
ENDBRANCH   1  19
TORSDOF 8
ENDMDL
MODEL 2
REMARK VINA RESULT:    -7.679      1.543      1.926
REMARK INTER + INTRA:         -12.636
REMARK INTER:                 -11.172
REMARK INTRA:                  -1.464
REMARK UNBOUND:                -1.365
REMARK  Name = 
REMARK  9 active torsions:
REMARK  status: ('A' for Active; 'I' for Inactive)
REMARK    1  A    between atoms: C_1  and  O_2
REMARK    2  A    between atoms: O_2  and  C_3
REMARK    3  A    between atoms: C_10  and  C_11
REMARK    4  A    between atoms: N_13  and  C_14
REMARK    5  A    between atoms: C_14  and  C_15
REMARK    6  A    between atoms: C_18  and  C_19
REMARK    7  A    between atoms: C_19  and  O_20
REMARK    8  A    between atoms: O_20  and  C_21
REMARK    9  A    between atoms: C_21  and  C_22
REMARK                            x       y       z     vdW  Elec       q    Type
REMARK                         _______ _______ _______ _____ _____    ______ ____
ROOT
ATOM      1  C   UNL     1      46.299   8.475  12.743  0.00  0.00    +0.000 C 
ENDROOT
BRANCH   1   2
ATOM      2  C   UNL     1      45.676   7.205  12.227  0.00  0.00    +0.000 A 
ATOM      3  C   UNL     1      46.100   6.645  11.014  0.00  0.00    +0.000 A 
ATOM      4  C   UNL     1      45.509   5.478  10.524  0.00  0.00    +0.000 A 
ATOM      5  C   UNL     1      44.476   4.853  11.235  0.00  0.00    +0.000 A 
ATOM      6  C   UNL     1      44.054   5.408  12.448  0.00  0.00    +0.000 A 
ATOM      7  C   UNL     1      44.647   6.575  12.938  0.00  0.00    +0.000 A 
BRANCH   5   8
ATOM      8  C   UNL     1      43.862   3.571  10.724  0.00  0.00    +0.000 C 
BRANCH   8   9
ATOM      9  O   UNL     1      44.851   2.608  10.361  0.00  0.00    +0.000 OA
BRANCH   9  10
ATOM     10  C   UNL     1      44.544   1.960   9.128  0.00  0.00    +0.000 C 
BRANCH  10  11
ATOM     11  C   UNL     1      45.667   2.170   8.150  0.00  0.00    +0.000 A 
ATOM     12  C   UNL     1      46.591   1.143   7.900  0.00  0.00    +0.000 A 
ATOM     13  C   UNL     1      47.595   1.313   6.948  0.00  0.00    +0.000 A 
ATOM     14  C   UNL     1      47.689   2.508   6.240  0.00  0.00    +0.000 A 
ATOM     15  C   UNL     1      46.793   3.544   6.496  0.00  0.00    +0.000 A 
ATOM     16  C   UNL     1      45.789   3.379   7.453  0.00  0.00    +0.000 A 
ENDBRANCH  10  11
ENDBRANCH   9  10
ENDBRANCH   8   9
ENDBRANCH   5   8
ENDBRANCH   1   2
BRANCH   1  19
ATOM     17  C   UNL     1      48.318   8.509  14.133  0.00  0.00    +0.000 C 
ATOM     18  O   UNL     1      49.017   8.831  13.176  0.00  0.00    +0.000 OA
ATOM     19  N   UNL     1      46.973   8.263  14.001  0.00  0.00    +0.000 N 
ATOM     20  H   UNL     1      46.408   8.100  14.825  0.00  0.00    +0.000 HD
BRANCH  17  28
ATOM     21  C   UNL     1      48.643   5.740  16.045  0.00  0.00    +0.000 A 
ATOM     22  N   UNL     1      48.950   4.792  16.952  0.00  0.00    +0.000 NA
ATOM     23  C   UNL     1      49.616   5.168  18.051  0.00  0.00    +0.000 A 
ATOM     24  N   UNL     1      50.016   6.401  18.368  0.00  0.00    +0.000 NA
ATOM     25  C   UNL     1      49.694   7.309  17.435  0.00  0.00    +0.000 A 
ATOM     26  S   UNL     1      50.082   8.946  17.669  0.00  0.00    +0.000 S 
ATOM     27  C   UNL     1      49.386   9.380  16.179  0.00  0.00    +0.000 A 
ATOM     28  C   UNL     1      48.894   8.297  15.464  0.00  0.00    +0.000 A 
ATOM     29  C   UNL     1      49.036   7.073  16.237  0.00  0.00    +0.000 A 
BRANCH  21  31
ATOM     30  C   UNL     1      47.127   4.220  15.095  0.00  0.00    +0.000 C 
ATOM     31  O   UNL     1      47.924   5.387  14.921  0.00  0.00    +0.000 OA
ENDBRANCH  21  31
ENDBRANCH  17  28
ENDBRANCH   1  19
TORSDOF 8
ENDMDL
MODEL 3
REMARK VINA RESULT:    -7.668      1.665      2.751
REMARK INTER + INTRA:         -12.619
REMARK INTER:                 -11.416
REMARK INTRA:                  -1.203
REMARK UNBOUND:                -1.365
REMARK  Name = 
REMARK  9 active torsions:
REMARK  status: ('A' for Active; 'I' for Inactive)
REMARK    1  A    between atoms: C_1  and  O_2
REMARK    2  A    between atoms: O_2  and  C_3
REMARK    3  A    between atoms: C_10  and  C_11
REMARK    4  A    between atoms: N_13  and  C_14
REMARK    5  A    between atoms: C_14  and  C_15
REMARK    6  A    between atoms: C_18  and  C_19
REMARK    7  A    between atoms: C_19  and  O_20
REMARK    8  A    between atoms: O_20  and  C_21
REMARK    9  A    between atoms: C_21  and  C_22
REMARK                            x       y       z     vdW  Elec       q    Type
REMARK                         _______ _______ _______ _____ _____    ______ ____
ROOT
ATOM      1  C   UNL     1      48.317   6.619  13.755  0.00  0.00    +0.000 C 
ENDROOT
BRANCH   1   2
ATOM      2  C   UNL     1      47.145   6.009  13.033  0.00  0.00    +0.000 A 
ATOM      3  C   UNL     1      46.604   4.787  13.457  0.00  0.00    +0.000 A 
ATOM      4  C   UNL     1      45.529   4.210  12.775  0.00  0.00    +0.000 A 
ATOM      5  C   UNL     1      44.981   4.841  11.650  0.00  0.00    +0.000 A 
ATOM      6  C   UNL     1      45.517   6.063  11.228  0.00  0.00    +0.000 A 
ATOM      7  C   UNL     1      46.591   6.639  11.911  0.00  0.00    +0.000 A 
BRANCH   5   8
ATOM      8  C   UNL     1      43.796   4.236  10.935  0.00  0.00    +0.000 C 
BRANCH   8   9
ATOM      9  O   UNL     1      44.193   3.279   9.952  0.00  0.00    +0.000 OA
BRANCH   9  10
ATOM     10  C   UNL     1      44.579   3.896   8.726  0.00  0.00    +0.000 C 
BRANCH  10  11
ATOM     11  C   UNL     1      45.617   3.053   8.037  0.00  0.00    +0.000 A 
ATOM     12  C   UNL     1      45.848   1.733   8.454  0.00  0.00    +0.000 A 
ATOM     13  C   UNL     1      46.763   0.929   7.778  0.00  0.00    +0.000 A 
ATOM     14  C   UNL     1      47.460   1.435   6.683  0.00  0.00    +0.000 A 
ATOM     15  C   UNL     1      47.257   2.752   6.275  0.00  0.00    +0.000 A 
ATOM     16  C   UNL     1      46.344   3.561   6.953  0.00  0.00    +0.000 A 
ENDBRANCH  10  11
ENDBRANCH   9  10
ENDBRANCH   8   9
ENDBRANCH   5   8
ENDBRANCH   1   2
BRANCH   1  19
ATOM     17  C   UNL     1      48.902   6.511  16.133  0.00  0.00    +0.000 C 
ATOM     18  O   UNL     1      49.938   5.898  15.889  0.00  0.00    +0.000 OA
ATOM     19  N   UNL     1      48.016   6.864  15.145  0.00  0.00    +0.000 N 
ATOM     20  H   UNL     1      47.225   7.456  15.366  0.00  0.00    +0.000 HD
BRANCH  17  28
ATOM     21  C   UNL     1      48.011   9.424  17.600  0.00  0.00    +0.000 A 
ATOM     22  N   UNL     1      47.565  10.421  18.390  0.00  0.00    +0.000 NA
ATOM     23  C   UNL     1      47.247  10.124  19.656  0.00  0.00    +0.000 A 
ATOM     24  N   UNL     1      47.326   8.930  20.248  0.00  0.00    +0.000 NA
ATOM     25  C   UNL     1      47.768   7.969  19.423  0.00  0.00    +0.000 A 
ATOM     26  S   UNL     1      47.976   6.384  19.998  0.00  0.00    +0.000 S 
ATOM     27  C   UNL     1      48.523   5.848  18.478  0.00  0.00    +0.000 A 
ATOM     28  C   UNL     1      48.513   6.840  17.508  0.00  0.00    +0.000 A 
ATOM     29  C   UNL     1      48.110   8.111  18.086  0.00  0.00    +0.000 A 
BRANCH  21  31
ATOM     30  C   UNL     1      49.721  10.183  16.181  0.00  0.00    +0.000 C 
ATOM     31  O   UNL     1      48.384   9.709  16.303  0.00  0.00    +0.000 OA
ENDBRANCH  21  31
ENDBRANCH  17  28
ENDBRANCH   1  19
TORSDOF 8
ENDMDL
MODEL 4
REMARK VINA RESULT:    -7.402      1.564      2.230
REMARK INTER + INTRA:         -12.229
REMARK INTER:                 -10.836
REMARK INTRA:                  -1.392
REMARK UNBOUND:                -1.365
REMARK  Name = 
REMARK  9 active torsions:
REMARK  status: ('A' for Active; 'I' for Inactive)
REMARK    1  A    between atoms: C_1  and  O_2
REMARK    2  A    between atoms: O_2  and  C_3
REMARK    3  A    between atoms: C_10  and  C_11
REMARK    4  A    between atoms: N_13  and  C_14
REMARK    5  A    between atoms: C_14  and  C_15
REMARK    6  A    between atoms: C_18  and  C_19
REMARK    7  A    between atoms: C_19  and  O_20
REMARK    8  A    between atoms: O_20  and  C_21
REMARK    9  A    between atoms: C_21  and  C_22
REMARK                            x       y       z     vdW  Elec       q    Type
REMARK                         _______ _______ _______ _____ _____    ______ ____
ROOT
ATOM      1  C   UNL     1      47.792   4.593  15.018  0.00  0.00    +0.000 C 
ENDROOT
BRANCH   1   2
ATOM      2  C   UNL     1      46.745   4.563  13.936  0.00  0.00    +0.000 A 
ATOM      3  C   UNL     1      46.365   3.351  13.344  0.00  0.00    +0.000 A 
ATOM      4  C   UNL     1      45.410   3.325  12.325  0.00  0.00    +0.000 A 
ATOM      5  C   UNL     1      44.820   4.513  11.874  0.00  0.00    +0.000 A 
ATOM      6  C   UNL     1      45.195   5.724  12.467  0.00  0.00    +0.000 A 
ATOM      7  C   UNL     1      46.151   5.749  13.486  0.00  0.00    +0.000 A 
BRANCH   5   8
ATOM      8  C   UNL     1      43.760   4.481  10.798  0.00  0.00    +0.000 C 
BRANCH   8   9
ATOM      9  O   UNL     1      44.041   3.504   9.796  0.00  0.00    +0.000 OA
BRANCH   9  10
ATOM     10  C   UNL     1      44.640   4.080   8.636  0.00  0.00    +0.000 C 
BRANCH  10  11
ATOM     11  C   UNL     1      45.617   3.108   8.034  0.00  0.00    +0.000 A 
ATOM     12  C   UNL     1      45.703   1.795   8.523  0.00  0.00    +0.000 A 
ATOM     13  C   UNL     1      46.562   0.874   7.926  0.00  0.00    +0.000 A 
ATOM     14  C   UNL     1      47.345   1.254   6.839  0.00  0.00    +0.000 A 
ATOM     15  C   UNL     1      47.286   2.561   6.360  0.00  0.00    +0.000 A 
ATOM     16  C   UNL     1      46.431   3.487   6.959  0.00  0.00    +0.000 A 
ENDBRANCH  10  11
ENDBRANCH   9  10
ENDBRANCH   8   9
ENDBRANCH   5   8
ENDBRANCH   1   2
BRANCH   1  19
ATOM     17  C   UNL     1      48.828   6.616  15.934  0.00  0.00    +0.000 C 
ATOM     18  O   UNL     1      49.930   6.294  15.497  0.00  0.00    +0.000 OA
ATOM     19  N   UNL     1      47.725   5.811  15.788  0.00  0.00    +0.000 N 
ATOM     20  H   UNL     1      46.814   6.150  16.069  0.00  0.00    +0.000 HD
BRANCH  17  28
ATOM     21  C   UNL     1      47.712   7.176  19.076  0.00  0.00    +0.000 A 
ATOM     22  N   UNL     1      47.376   7.652  20.291  0.00  0.00    +0.000 NA
ATOM     23  C   UNL     1      47.476   8.971  20.497  0.00  0.00    +0.000 A 
ATOM     24  N   UNL     1      47.873   9.896  19.621  0.00  0.00    +0.000 NA
ATOM     25  C   UNL     1      48.204   9.376  18.429  0.00  0.00    +0.000 A 
ATOM     26  S   UNL     1      48.699  10.395  17.163  0.00  0.00    +0.000 S 
ATOM     27  C   UNL     1      48.898   9.075  16.108  0.00  0.00    +0.000 A 
ATOM     28  C   UNL     1      48.641   7.849  16.704  0.00  0.00    +0.000 A 
ATOM     29  C   UNL     1      48.181   8.036  18.071  0.00  0.00    +0.000 A 
BRANCH  21  31
ATOM     30  C   UNL     1      48.655   5.041  19.332  0.00  0.00    +0.000 C 
ATOM     31  O   UNL     1      47.581   5.826  18.823  0.00  0.00    +0.000 OA
ENDBRANCH  21  31
ENDBRANCH  17  28
ENDBRANCH   1  19
TORSDOF 8
ENDMDL
MODEL 5
REMARK VINA RESULT:    -7.385      1.847      2.631
REMARK INTER + INTRA:         -12.204
REMARK INTER:                 -11.085
REMARK INTRA:                  -1.119
REMARK UNBOUND:                -1.365
REMARK  Name = 
REMARK  9 active torsions:
REMARK  status: ('A' for Active; 'I' for Inactive)
REMARK    1  A    between atoms: C_1  and  O_2
REMARK    2  A    between atoms: O_2  and  C_3
REMARK    3  A    between atoms: C_10  and  C_11
REMARK    4  A    between atoms: N_13  and  C_14
REMARK    5  A    between atoms: C_14  and  C_15
REMARK    6  A    between atoms: C_18  and  C_19
REMARK    7  A    between atoms: C_19  and  O_20
REMARK    8  A    between atoms: O_20  and  C_21
REMARK    9  A    between atoms: C_21  and  C_22
REMARK                            x       y       z     vdW  Elec       q    Type
REMARK                         _______ _______ _______ _____ _____    ______ ____
ROOT
ATOM      1  C   UNL     1      47.168   4.024  15.370  0.00  0.00    +0.000 C 
ENDROOT
BRANCH   1   2
ATOM      2  C   UNL     1      46.685   4.538  14.040  0.00  0.00    +0.000 A 
ATOM      3  C   UNL     1      45.789   3.786  13.267  0.00  0.00    +0.000 A 
ATOM      4  C   UNL     1      45.356   4.253  12.024  0.00  0.00    +0.000 A 
ATOM      5  C   UNL     1      45.817   5.479  11.526  0.00  0.00    +0.000 A 
ATOM      6  C   UNL     1      46.707   6.234  12.298  0.00  0.00    +0.000 A 
ATOM      7  C   UNL     1      47.140   5.766  13.542  0.00  0.00    +0.000 A 
BRANCH   5   8
ATOM      8  C   UNL     1      45.320   6.001  10.198  0.00  0.00    +0.000 C 
BRANCH   8   9
ATOM      9  O   UNL     1      45.881   5.288   9.096  0.00  0.00    +0.000 OA
BRANCH   9  10
ATOM     10  C   UNL     1      45.001   4.278   8.605  0.00  0.00    +0.000 C 
BRANCH  10  11
ATOM     11  C   UNL     1      45.795   3.207   7.910  0.00  0.00    +0.000 A 
ATOM     12  C   UNL     1      46.515   3.503   6.742  0.00  0.00    +0.000 A 
ATOM     13  C   UNL     1      47.302   2.528   6.132  0.00  0.00    +0.000 A 
ATOM     14  C   UNL     1      47.375   1.249   6.678  0.00  0.00    +0.000 A 
ATOM     15  C   UNL     1      46.646   0.936   7.822  0.00  0.00    +0.000 A 
ATOM     16  C   UNL     1      45.853   1.909   8.434  0.00  0.00    +0.000 A 
ENDBRANCH  10  11
ENDBRANCH   9  10
ENDBRANCH   8   9
ENDBRANCH   5   8
ENDBRANCH   1   2
BRANCH   1  19
ATOM     17  C   UNL     1      47.631   5.218  17.459  0.00  0.00    +0.000 C 
ATOM     18  O   UNL     1      46.773   4.576  18.060  0.00  0.00    +0.000 OA
ATOM     19  N   UNL     1      47.859   5.047  16.116  0.00  0.00    +0.000 N 
ATOM     20  H   UNL     1      48.640   5.517  15.674  0.00  0.00    +0.000 HD
BRANCH  17  28
ATOM     21  C   UNL     1      50.956   5.814  17.602  0.00  0.00    +0.000 A 
ATOM     22  N   UNL     1      52.204   6.301  17.755  0.00  0.00    +0.000 NA
ATOM     23  C   UNL     1      52.354   7.432  18.454  0.00  0.00    +0.000 A 
ATOM     24  N   UNL     1      51.394   8.152  19.039  0.00  0.00    +0.000 NA
ATOM     25  C   UNL     1      50.170   7.635  18.855  0.00  0.00    +0.000 A 
ATOM     26  S   UNL     1      48.816   8.384  19.554  0.00  0.00    +0.000 S 
ATOM     27  C   UNL     1      47.767   7.207  18.913  0.00  0.00    +0.000 A 
ATOM     28  C   UNL     1      48.414   6.262  18.128  0.00  0.00    +0.000 A 
ATOM     29  C   UNL     1      49.849   6.493  18.136  0.00  0.00    +0.000 A 
BRANCH  21  31
ATOM     30  C   UNL     1      51.211   3.481  17.640  0.00  0.00    +0.000 C 
ATOM     31  O   UNL     1      50.775   4.629  16.919  0.00  0.00    +0.000 OA
ENDBRANCH  21  31
ENDBRANCH  17  28
ENDBRANCH   1  19
TORSDOF 8
ENDMDL
MODEL 6
REMARK VINA RESULT:    -7.141      1.885      2.315
REMARK INTER + INTRA:         -11.845
REMARK INTER:                 -10.819
REMARK INTRA:                  -1.026
REMARK UNBOUND:                -1.365
REMARK  Name = 
REMARK  9 active torsions:
REMARK  status: ('A' for Active; 'I' for Inactive)
REMARK    1  A    between atoms: C_1  and  O_2
REMARK    2  A    between atoms: O_2  and  C_3
REMARK    3  A    between atoms: C_10  and  C_11
REMARK    4  A    between atoms: N_13  and  C_14
REMARK    5  A    between atoms: C_14  and  C_15
REMARK    6  A    between atoms: C_18  and  C_19
REMARK    7  A    between atoms: C_19  and  O_20
REMARK    8  A    between atoms: O_20  and  C_21
REMARK    9  A    between atoms: C_21  and  C_22
REMARK                            x       y       z     vdW  Elec       q    Type
REMARK                         _______ _______ _______ _____ _____    ______ ____
ROOT
ATOM      1  C   UNL     1      47.787   8.256  13.914  0.00  0.00    +0.000 C 
ENDROOT
BRANCH   1   2
ATOM      2  C   UNL     1      46.853   7.310  13.206  0.00  0.00    +0.000 A 
ATOM      3  C   UNL     1      47.021   5.924  13.320  0.00  0.00    +0.000 A 
ATOM      4  C   UNL     1      46.167   5.046  12.647  0.00  0.00    +0.000 A 
ATOM      5  C   UNL     1      45.133   5.540  11.841  0.00  0.00    +0.000 A 
ATOM      6  C   UNL     1      44.961   6.924  11.730  0.00  0.00    +0.000 A 
ATOM      7  C   UNL     1      45.815   7.801  12.403  0.00  0.00    +0.000 A 
BRANCH   5   8
ATOM      8  C   UNL     1      44.188   4.591  11.143  0.00  0.00    +0.000 C 
BRANCH   8   9
ATOM      9  O   UNL     1      44.882   3.610  10.373  0.00  0.00    +0.000 OA
BRANCH   9  10
ATOM     10  C   UNL     1      44.545   3.674   8.989  0.00  0.00    +0.000 C 
BRANCH  10  11
ATOM     11  C   UNL     1      45.561   2.913   8.182  0.00  0.00    +0.000 A 
ATOM     12  C   UNL     1      46.309   3.565   7.189  0.00  0.00    +0.000 A 
ATOM     13  C   UNL     1      47.296   2.879   6.484  0.00  0.00    +0.000 A 
ATOM     14  C   UNL     1      47.543   1.536   6.760  0.00  0.00    +0.000 A 
ATOM     15  C   UNL     1      46.792   0.872   7.726  0.00  0.00    +0.000 A 
ATOM     16  C   UNL     1      45.799   1.556   8.431  0.00  0.00    +0.000 A 
ENDBRANCH  10  11
ENDBRANCH   9  10
ENDBRANCH   8   9
ENDBRANCH   5   8
ENDBRANCH   1   2
BRANCH   1  19
ATOM     17  C   UNL     1      49.203   7.661  15.824  0.00  0.00    +0.000 C 
ATOM     18  O   UNL     1      48.577   8.410  16.570  0.00  0.00    +0.000 OA
ATOM     19  N   UNL     1      48.915   7.560  14.486  0.00  0.00    +0.000 N 
ATOM     20  H   UNL     1      49.381   6.860  13.922  0.00  0.00    +0.000 HD
BRANCH  17  28
ATOM     21  C   UNL     1      49.414   4.652  17.350  0.00  0.00    +0.000 A 
ATOM     22  N   UNL     1      49.767   3.469  17.893  0.00  0.00    +0.000 NA
ATOM     23  C   UNL     1      51.072   3.216  18.049  0.00  0.00    +0.000 A 
ATOM     24  N   UNL     1      52.092   4.016  17.730  0.00  0.00    +0.000 NA
ATOM     25  C   UNL     1      51.694   5.177  17.188  0.00  0.00    +0.000 A 
ATOM     26  S   UNL     1      52.841   6.349  16.748  0.00  0.00    +0.000 S 
ATOM     27  C   UNL     1      51.627   7.412  16.207  0.00  0.00    +0.000 A 
ATOM     28  C   UNL     1      50.348   6.883  16.307  0.00  0.00    +0.000 A 
ATOM     29  C   UNL     1      50.389   5.573  16.936  0.00  0.00    +0.000 A 
BRANCH  21  31
ATOM     30  C   UNL     1      47.352   4.015  16.425  0.00  0.00    +0.000 C 
ATOM     31  O   UNL     1      48.075   4.955  17.213  0.00  0.00    +0.000 OA
ENDBRANCH  21  31
ENDBRANCH  17  28
ENDBRANCH   1  19
TORSDOF 8
ENDMDL
MODEL 7
REMARK VINA RESULT:    -6.981      2.339      3.625
REMARK INTER + INTRA:         -11.611
REMARK INTER:                 -10.550
REMARK INTRA:                  -1.061
REMARK UNBOUND:                -1.365
REMARK  Name = 
REMARK  9 active torsions:
REMARK  status: ('A' for Active; 'I' for Inactive)
REMARK    1  A    between atoms: C_1  and  O_2
REMARK    2  A    between atoms: O_2  and  C_3
REMARK    3  A    between atoms: C_10  and  C_11
REMARK    4  A    between atoms: N_13  and  C_14
REMARK    5  A    between atoms: C_14  and  C_15
REMARK    6  A    between atoms: C_18  and  C_19
REMARK    7  A    between atoms: C_19  and  O_20
REMARK    8  A    between atoms: O_20  and  C_21
REMARK    9  A    between atoms: C_21  and  C_22
REMARK                            x       y       z     vdW  Elec       q    Type
REMARK                         _______ _______ _______ _____ _____    ______ ____
ROOT
ATOM      1  C   UNL     1      47.519   5.029  14.772  0.00  0.00    +0.000 C 
ENDROOT
BRANCH   1   2
ATOM      2  C   UNL     1      46.474   4.778  13.718  0.00  0.00    +0.000 A 
ATOM      3  C   UNL     1      45.686   5.829  13.231  0.00  0.00    +0.000 A 
ATOM      4  C   UNL     1      44.701   5.594  12.268  0.00  0.00    +0.000 A 
ATOM      5  C   UNL     1      44.482   4.299  11.779  0.00  0.00    +0.000 A 
ATOM      6  C   UNL     1      45.270   3.249  12.261  0.00  0.00    +0.000 A 
ATOM      7  C   UNL     1      46.254   3.485  13.224  0.00  0.00    +0.000 A 
BRANCH   5   8
ATOM      8  C   UNL     1      43.442   4.051  10.711  0.00  0.00    +0.000 C 
BRANCH   8   9
ATOM      9  O   UNL     1      43.952   3.258   9.639  0.00  0.00    +0.000 OA
BRANCH   9  10
ATOM     10  C   UNL     1      44.778   4.015   8.755  0.00  0.00    +0.000 C 
BRANCH  10  11
ATOM     11  C   UNL     1      45.706   3.093   8.013  0.00  0.00    +0.000 A 
ATOM     12  C   UNL     1      46.468   3.572   6.936  0.00  0.00    +0.000 A 
ATOM     13  C   UNL     1      47.375   2.737   6.286  0.00  0.00    +0.000 A 
ATOM     14  C   UNL     1      47.527   1.416   6.702  0.00  0.00    +0.000 A 
ATOM     15  C   UNL     1      46.759   0.923   7.754  0.00  0.00    +0.000 A 
ATOM     16  C   UNL     1      45.846   1.755   8.403  0.00  0.00    +0.000 A 
ENDBRANCH  10  11
ENDBRANCH   9  10
ENDBRANCH   8   9
ENDBRANCH   5   8
ENDBRANCH   1   2
BRANCH   1  19
ATOM     17  C   UNL     1      48.658   7.033  13.941  0.00  0.00    +0.000 C 
ATOM     18  O   UNL     1      49.206   6.396  13.045  0.00  0.00    +0.000 OA
ATOM     19  N   UNL     1      47.848   6.430  14.871  0.00  0.00    +0.000 N 
ATOM     20  H   UNL     1      47.332   6.997  15.532  0.00  0.00    +0.000 HD
BRANCH  17  28
ATOM     21  C   UNL     1      49.592   8.866  16.624  0.00  0.00    +0.000 A 
ATOM     22  N   UNL     1      50.015   9.794  17.505  0.00  0.00    +0.000 NA
ATOM     23  C   UNL     1      50.147  11.054  17.074  0.00  0.00    +0.000 A 
ATOM     24  N   UNL     1      49.897  11.516  15.847  0.00  0.00    +0.000 NA
ATOM     25  C   UNL     1      49.485  10.558  15.003  0.00  0.00    +0.000 A 
ATOM     26  S   UNL     1      49.079  10.950  13.402  0.00  0.00    +0.000 S 
ATOM     27  C   UNL     1      48.685   9.333  13.049  0.00  0.00    +0.000 A 
ATOM     28  C   UNL     1      48.897   8.469  14.115  0.00  0.00    +0.000 A 
ATOM     29  C   UNL     1      49.327   9.210  15.289  0.00  0.00    +0.000 A 
BRANCH  21  31
ATOM     30  C   UNL     1      49.318   7.437  18.466  0.00  0.00    +0.000 C 
ATOM     31  O   UNL     1      49.410   7.566  17.051  0.00  0.00    +0.000 OA
ENDBRANCH  21  31
ENDBRANCH  17  28
ENDBRANCH   1  19
TORSDOF 8
ENDMDL
MODEL 8
REMARK VINA RESULT:    -6.914      2.129      3.862
REMARK INTER + INTRA:         -11.512
REMARK INTER:                 -10.199
REMARK INTRA:                  -1.314
REMARK UNBOUND:                -1.365
REMARK  Name = 
REMARK  9 active torsions:
REMARK  status: ('A' for Active; 'I' for Inactive)
REMARK    1  A    between atoms: C_1  and  O_2
REMARK    2  A    between atoms: O_2  and  C_3
REMARK    3  A    between atoms: C_10  and  C_11
REMARK    4  A    between atoms: N_13  and  C_14
REMARK    5  A    between atoms: C_14  and  C_15
REMARK    6  A    between atoms: C_18  and  C_19
REMARK    7  A    between atoms: C_19  and  O_20
REMARK    8  A    between atoms: O_20  and  C_21
REMARK    9  A    between atoms: C_21  and  C_22
REMARK                            x       y       z     vdW  Elec       q    Type
REMARK                         _______ _______ _______ _____ _____    ______ ____
ROOT
ATOM      1  C   UNL     1      47.667   4.763  14.798  0.00  0.00    +0.000 C 
ENDROOT
BRANCH   1   2
ATOM      2  C   UNL     1      46.575   4.535  13.786  0.00  0.00    +0.000 A 
ATOM      3  C   UNL     1      45.803   5.607  13.317  0.00  0.00    +0.000 A 
ATOM      4  C   UNL     1      44.776   5.393  12.394  0.00  0.00    +0.000 A 
ATOM      5  C   UNL     1      44.498   4.101  11.928  0.00  0.00    +0.000 A 
ATOM      6  C   UNL     1      45.271   3.031  12.392  0.00  0.00    +0.000 A 
ATOM      7  C   UNL     1      46.297   3.246  13.315  0.00  0.00    +0.000 A 
BRANCH   5   8
ATOM      8  C   UNL     1      43.412   3.875  10.902  0.00  0.00    +0.000 C 
BRANCH   8   9
ATOM      9  O   UNL     1      43.887   3.153   9.766  0.00  0.00    +0.000 OA
BRANCH   9  10
ATOM     10  C   UNL     1      44.708   3.957   8.921  0.00  0.00    +0.000 C 
BRANCH  10  11
ATOM     11  C   UNL     1      45.671   3.082   8.167  0.00  0.00    +0.000 A 
ATOM     12  C   UNL     1      46.493   3.629   7.169  0.00  0.00    +0.000 A 
ATOM     13  C   UNL     1      47.431   2.834   6.513  0.00  0.00    +0.000 A 
ATOM     14  C   UNL     1      47.555   1.486   6.843  0.00  0.00    +0.000 A 
ATOM     15  C   UNL     1      46.729   0.927   7.814  0.00  0.00    +0.000 A 
ATOM     16  C   UNL     1      45.785   1.719   8.470  0.00  0.00    +0.000 A 
ENDBRANCH  10  11
ENDBRANCH   9  10
ENDBRANCH   8   9
ENDBRANCH   5   8
ENDBRANCH   1   2
BRANCH   1  19
ATOM     17  C   UNL     1      48.661   6.580  16.108  0.00  0.00    +0.000 C 
ATOM     18  O   UNL     1      49.230   5.785  16.851  0.00  0.00    +0.000 OA
ATOM     19  N   UNL     1      47.828   6.165  15.098  0.00  0.00    +0.000 N 
ATOM     20  H   UNL     1      47.457   6.841  14.442  0.00  0.00    +0.000 HD
BRANCH  17  28
ATOM     21  C   UNL     1      49.389   9.101  13.976  0.00  0.00    +0.000 A 
ATOM     22  N   UNL     1      49.582  10.268  13.330  0.00  0.00    +0.000 NA
ATOM     23  C   UNL     1      49.489  11.401  14.038  0.00  0.00    +0.000 A 
ATOM     24  N   UNL     1      49.227  11.516  15.342  0.00  0.00    +0.000 NA
ATOM     25  C   UNL     1      49.035  10.331  15.941  0.00  0.00    +0.000 A 
ATOM     26  S   UNL     1      48.727  10.262  17.610  0.00  0.00    +0.000 S 
ATOM     27  C   UNL     1      48.629   8.563  17.575  0.00  0.00    +0.000 A 
ATOM     28  C   UNL     1      48.780   8.029  16.303  0.00  0.00    +0.000 A 
ATOM     29  C   UNL     1      49.070   9.081  15.343  0.00  0.00    +0.000 A 
BRANCH  21  31
ATOM     30  C   UNL     1      50.134   8.068  12.004  0.00  0.00    +0.000 C 
ATOM     31  O   UNL     1      49.518   7.918  13.279  0.00  0.00    +0.000 OA
ENDBRANCH  21  31
ENDBRANCH  17  28
ENDBRANCH   1  19
TORSDOF 8
ENDMDL
MODEL 9
REMARK VINA RESULT:    -6.747      4.714      9.303
REMARK INTER + INTRA:         -11.268
REMARK INTER:                 -10.251
REMARK INTRA:                  -1.017
REMARK UNBOUND:                -1.365
REMARK  Name = 
REMARK  9 active torsions:
REMARK  status: ('A' for Active; 'I' for Inactive)
REMARK    1  A    between atoms: C_1  and  O_2
REMARK    2  A    between atoms: O_2  and  C_3
REMARK    3  A    between atoms: C_10  and  C_11
REMARK    4  A    between atoms: N_13  and  C_14
REMARK    5  A    between atoms: C_14  and  C_15
REMARK    6  A    between atoms: C_18  and  C_19
REMARK    7  A    between atoms: C_19  and  O_20
REMARK    8  A    between atoms: O_20  and  C_21
REMARK    9  A    between atoms: C_21  and  C_22
REMARK                            x       y       z     vdW  Elec       q    Type
REMARK                         _______ _______ _______ _____ _____    ______ ____
ROOT
ATOM      1  C   UNL     1      47.201   3.436  16.786  0.00  0.00    +0.000 C 
ENDROOT
BRANCH   1   2
ATOM      2  C   UNL     1      48.670   3.389  17.114  0.00  0.00    +0.000 A 
ATOM      3  C   UNL     1      49.409   2.216  16.911  0.00  0.00    +0.000 A 
ATOM      4  C   UNL     1      50.767   2.165  17.235  0.00  0.00    +0.000 A 
ATOM      5  C   UNL     1      51.411   3.287  17.774  0.00  0.00    +0.000 A 
ATOM      6  C   UNL     1      50.676   4.461  17.973  0.00  0.00    +0.000 A 
ATOM      7  C   UNL     1      49.317   4.510  17.649  0.00  0.00    +0.000 A 
BRANCH   5   8
ATOM      8  C   UNL     1      52.887   3.243  18.089  0.00  0.00    +0.000 C 
BRANCH   8   9
ATOM      9  O   UNL     1      53.219   2.163  18.961  0.00  0.00    +0.000 OA
BRANCH   9  10
ATOM     10  C   UNL     1      54.612   1.858  18.934  0.00  0.00    +0.000 C 
BRANCH  10  11
ATOM     11  C   UNL     1      54.852   0.657  18.060  0.00  0.00    +0.000 A 
ATOM     12  C   UNL     1      54.609  -0.636  18.550  0.00  0.00    +0.000 A 
ATOM     13  C   UNL     1      54.770  -1.746  17.722  0.00  0.00    +0.000 A 
ATOM     14  C   UNL     1      55.178  -1.577  16.402  0.00  0.00    +0.000 A 
ATOM     15  C   UNL     1      55.446  -0.301  15.911  0.00  0.00    +0.000 A 
ATOM     16  C   UNL     1      55.290   0.813  16.739  0.00  0.00    +0.000 A 
ENDBRANCH  10  11
ENDBRANCH   9  10
ENDBRANCH   8   9
ENDBRANCH   5   8
ENDBRANCH   1   2
BRANCH   1  19
ATOM     17  C   UNL     1      46.875   4.199  14.480  0.00  0.00    +0.000 C 
ATOM     18  O   UNL     1      47.184   3.099  14.032  0.00  0.00    +0.000 OA
ATOM     19  N   UNL     1      46.904   4.471  15.826  0.00  0.00    +0.000 N 
ATOM     20  H   UNL     1      46.545   5.353  16.169  0.00  0.00    +0.000 HD
BRANCH  17  28
ATOM     21  C   UNL     1      44.086   4.887  12.697  0.00  0.00    +0.000 A 
ATOM     22  N   UNL     1      43.084   5.415  11.966  0.00  0.00    +0.000 NA
ATOM     23  C   UNL     1      43.290   6.605  11.388  0.00  0.00    +0.000 A 
ATOM     24  N   UNL     1      44.397   7.348  11.445  0.00  0.00    +0.000 NA
ATOM     25  C   UNL     1      45.363   6.787  12.187  0.00  0.00    +0.000 A 
ATOM     26  S   UNL     1      46.867   7.558  12.352  0.00  0.00    +0.000 S 
ATOM     27  C   UNL     1      47.462   6.306  13.339  0.00  0.00    +0.000 A 
ATOM     28  C   UNL     1      46.525   5.315  13.595  0.00  0.00    +0.000 A 
ATOM     29  C   UNL     1      45.294   5.581  12.869  0.00  0.00    +0.000 A 
BRANCH  21  31
ATOM     30  C   UNL     1      43.649   2.610  12.331  0.00  0.00    +0.000 C 
ATOM     31  O   UNL     1      43.915   3.645  13.272  0.00  0.00    +0.000 OA
ENDBRANCH  21  31
ENDBRANCH  17  28
ENDBRANCH   1  19
TORSDOF 8
ENDMDL
