MODEL 1
REMARK VINA RESULT:    -9.187      0.000      0.000
REMARK INTER + INTRA:         -12.746
REMARK INTER:                 -11.872
REMARK INTRA:                  -0.875
REMARK UNBOUND:                -0.875
REMARK  Name = 
REMARK  5 active torsions:
REMARK  status: ('A' for Active; 'I' for Inactive)
REMARK    1  A    between atoms: C_2  and  C_4
REMARK    2  A    between atoms: C_7  and  N_8
REMARK    3  A    between atoms: N_8  and  C_9
REMARK    4  A    between atoms: C_9  and  C_10
REMARK    5  A    between atoms: C_14  and  C_15
REMARK                            x       y       z     vdW  Elec       q    Type
REMARK                         _______ _______ _______ _____ _____    ______ ____
ROOT
ATOM      1  C   UNL     1      43.921   4.724  11.530  0.00  0.00    +0.000 C 
ENDROOT
BRANCH   1   2
ATOM      2  C   UNL     1      45.239   5.229  12.062  0.00  0.00    +0.000 A 
ATOM      3  C   UNL     1      45.873   6.323  11.461  0.00  0.00    +0.000 A 
ATOM      4  C   UNL     1      47.025   6.861  12.028  0.00  0.00    +0.000 A 
ATOM      5  C   UNL     1      47.552   6.310  13.198  0.00  0.00    +0.000 A 
ATOM      6  C   UNL     1      46.961   5.195  13.820  0.00  0.00    +0.000 A 
ATOM      7  C   UNL     1      45.808   4.656  13.215  0.00  0.00    +0.000 A 
BRANCH   6   8
ATOM      8  C   UNL     1      47.503   4.663  15.089  0.00  0.00    +0.000 A 
ATOM      9  C   UNL     1      48.034   5.481  16.095  0.00  0.00    +0.000 A 
ATOM     10  C   UNL     1      48.575   4.897  17.241  0.00  0.00    +0.000 A 
ATOM     11  C   UNL     1      48.574   3.517  17.354  0.00  0.00    +0.000 A 
ATOM     12  F   UNL     1      49.095   2.926  18.435  0.00  0.00    +0.000 F 
ATOM     13  C   UNL     1      48.025   2.769  16.333  0.00  0.00    +0.000 A 
ATOM     14  N   UNL     1      47.488   3.309  15.211  0.00  0.00    +0.000 NA
ENDBRANCH   6   8
ENDBRANCH   1   2
BRANCH   1  15
ATOM     15  N   UNL     1      43.855   4.824  10.083  0.00  0.00    +0.000 N 
ATOM     16  H   UNL     1      42.916   4.967   9.713  0.00  0.00    +0.000 HD
BRANCH  15  20
ATOM     17  C   UNL     1      46.365   2.279   7.817  0.00  0.00    +0.000 A 
ATOM     18  C   UNL     1      45.489   1.728   8.752  0.00  0.00    +0.000 A 
ATOM     19  C   UNL     1      44.641   2.558   9.492  0.00  0.00    +0.000 A 
ATOM     20  C   UNL     1      44.620   3.948   9.303  0.00  0.00    +0.000 A 
ATOM     21  C   UNL     1      45.523   4.486   8.375  0.00  0.00    +0.000 A 
ATOM     22  C   UNL     1      46.391   3.665   7.641  0.00  0.00    +0.000 A 
BRANCH  17  24
ATOM     23  N   UNL     1      48.399   2.055   6.495  0.00  0.00    +0.000 N 
ATOM     24  C   UNL     1      47.307   1.434   7.040  0.00  0.00    +0.000 C 
ATOM     25  O   UNL     1      47.139   0.229   6.913  0.00  0.00    +0.000 OA
ATOM     26  H   UNL     1      49.081   1.453   6.050  0.00  0.00    +0.000 HD
ATOM     27  H   UNL     1      48.699   2.976   6.779  0.00  0.00    +0.000 HD
ENDBRANCH  17  24
ENDBRANCH  15  20
ENDBRANCH   1  15
TORSDOF 5
ENDMDL
MODEL 2
REMARK VINA RESULT:    -8.633      2.961      4.216
REMARK INTER + INTRA:         -12.031
REMARK INTER:                 -11.008
REMARK INTRA:                  -1.023
REMARK UNBOUND:                -0.875
REMARK  Name = 
REMARK  5 active torsions:
REMARK  status: ('A' for Active; 'I' for Inactive)
REMARK    1  A    between atoms: C_2  and  C_4
REMARK    2  A    between atoms: C_7  and  N_8
REMARK    3  A    between atoms: N_8  and  C_9
REMARK    4  A    between atoms: C_9  and  C_10
REMARK    5  A    between atoms: C_14  and  C_15
REMARK                            x       y       z     vdW  Elec       q    Type
REMARK                         _______ _______ _______ _____ _____    ______ ____
ROOT
ATOM      1  C   UNL     1      43.492   4.795  11.267  0.00  0.00    +0.000 C 
ENDROOT
BRANCH   1   2
ATOM      2  C   UNL     1      44.768   5.042  12.033  0.00  0.00    +0.000 A 
ATOM      3  C   UNL     1      45.304   4.044  12.855  0.00  0.00    +0.000 A 
ATOM      4  C   UNL     1      46.542   4.230  13.463  0.00  0.00    +0.000 A 
ATOM      5  C   UNL     1      47.253   5.415  13.256  0.00  0.00    +0.000 A 
ATOM      6  C   UNL     1      46.738   6.454  12.459  0.00  0.00    +0.000 A 
ATOM      7  C   UNL     1      45.475   6.248  11.871  0.00  0.00    +0.000 A 
BRANCH   6   8
ATOM      8  C   UNL     1      47.532   7.675  12.207  0.00  0.00    +0.000 A 
ATOM      9  C   UNL     1      46.967   8.957  12.154  0.00  0.00    +0.000 A 
ATOM     10  C   UNL     1      47.777  10.053  11.858  0.00  0.00    +0.000 A 
ATOM     11  C   UNL     1      49.125   9.847  11.622  0.00  0.00    +0.000 A 
ATOM     12  F   UNL     1      49.927  10.875  11.325  0.00  0.00    +0.000 F 
ATOM     13  C   UNL     1      49.622   8.561  11.701  0.00  0.00    +0.000 A 
ATOM     14  N   UNL     1      48.860   7.478  11.991  0.00  0.00    +0.000 NA
ENDBRANCH   6   8
ENDBRANCH   1   2
BRANCH   1  15
ATOM     15  N   UNL     1      43.698   4.910   9.834  0.00  0.00    +0.000 N 
ATOM     16  H   UNL     1      42.841   4.997   9.291  0.00  0.00    +0.000 HD
BRANCH  15  20
ATOM     17  C   UNL     1      46.411   2.338   7.850  0.00  0.00    +0.000 A 
ATOM     18  C   UNL     1      46.493   3.716   7.645  0.00  0.00    +0.000 A 
ATOM     19  C   UNL     1      45.614   4.576   8.311  0.00  0.00    +0.000 A 
ATOM     20  C   UNL     1      44.655   4.096   9.216  0.00  0.00    +0.000 A 
ATOM     21  C   UNL     1      44.574   2.707   9.392  0.00  0.00    +0.000 A 
ATOM     22  C   UNL     1      45.437   1.834   8.715  0.00  0.00    +0.000 A 
BRANCH  17  24
ATOM     23  N   UNL     1      48.326   1.927   6.401  0.00  0.00    +0.000 N 
ATOM     24  C   UNL     1      47.301   1.390   7.132  0.00  0.00    +0.000 C 
ATOM     25  O   UNL     1      47.151   0.178   7.210  0.00  0.00    +0.000 OA
ATOM     26  H   UNL     1      48.981   1.270   5.996  0.00  0.00    +0.000 HD
ATOM     27  H   UNL     1      48.628   2.884   6.510  0.00  0.00    +0.000 HD
ENDBRANCH  17  24
ENDBRANCH  15  20
ENDBRANCH   1  15
TORSDOF 5
ENDMDL
MODEL 3
REMARK VINA RESULT:    -7.993      4.435      7.520
REMARK INTER + INTRA:         -11.203
REMARK INTER:                 -10.244
REMARK INTRA:                  -0.960
REMARK UNBOUND:                -0.875
REMARK  Name = 
REMARK  5 active torsions:
REMARK  status: ('A' for Active; 'I' for Inactive)
REMARK    1  A    between atoms: C_2  and  C_4
REMARK    2  A    between atoms: C_7  and  N_8
REMARK    3  A    between atoms: N_8  and  C_9
REMARK    4  A    between atoms: C_9  and  C_10
REMARK    5  A    between atoms: C_14  and  C_15
REMARK                            x       y       z     vdW  Elec       q    Type
REMARK                         _______ _______ _______ _____ _____    ______ ____
ROOT
ATOM      1  C   UNL     1      43.878   6.607  11.415  0.00  0.00    +0.000 C 
ENDROOT
BRANCH   1   2
ATOM      2  C   UNL     1      44.022   5.140  11.098  0.00  0.00    +0.000 A 
ATOM      3  C   UNL     1      43.264   4.189  11.791  0.00  0.00    +0.000 A 
ATOM      4  C   UNL     1      43.309   2.850  11.412  0.00  0.00    +0.000 A 
ATOM      5  C   UNL     1      44.112   2.451  10.341  0.00  0.00    +0.000 A 
ATOM      6  C   UNL     1      44.910   3.371   9.636  0.00  0.00    +0.000 A 
ATOM      7  C   UNL     1      44.862   4.716  10.051  0.00  0.00    +0.000 A 
BRANCH   6   8
ATOM      8  C   UNL     1      45.709   2.937   8.470  0.00  0.00    +0.000 A 
ATOM      9  C   UNL     1      46.173   1.625   8.306  0.00  0.00    +0.000 A 
ATOM     10  C   UNL     1      46.967   1.309   7.203  0.00  0.00    +0.000 A 
ATOM     11  C   UNL     1      47.279   2.305   6.295  0.00  0.00    +0.000 A 
ATOM     12  F   UNL     1      48.047   2.038   5.233  0.00  0.00    +0.000 F 
ATOM     13  C   UNL     1      46.781   3.575   6.507  0.00  0.00    +0.000 A 
ATOM     14  N   UNL     1      46.004   3.909   7.566  0.00  0.00    +0.000 NA
ENDBRANCH   6   8
ENDBRANCH   1   2
BRANCH   1  15
ATOM     15  N   UNL     1      44.547   6.955  12.656  0.00  0.00    +0.000 N 
ATOM     16  H   UNL     1      43.998   7.545  13.279  0.00  0.00    +0.000 HD
BRANCH  15  20
ATOM     17  C   UNL     1      48.673   7.859  12.386  0.00  0.00    +0.000 A 
ATOM     18  C   UNL     1      47.731   8.857  12.134  0.00  0.00    +0.000 A 
ATOM     19  C   UNL     1      46.365   8.574  12.239  0.00  0.00    +0.000 A 
ATOM     20  C   UNL     1      45.902   7.307  12.625  0.00  0.00    +0.000 A 
ATOM     21  C   UNL     1      46.862   6.311  12.853  0.00  0.00    +0.000 A 
ATOM     22  C   UNL     1      48.234   6.579  12.732  0.00  0.00    +0.000 A 
BRANCH  17  24
ATOM     23  N   UNL     1      50.835   7.265  11.434  0.00  0.00    +0.000 N 
ATOM     24  C   UNL     1      50.130   8.111  12.247  0.00  0.00    +0.000 C 
ATOM     25  O   UNL     1      50.679   9.050  12.807  0.00  0.00    +0.000 OA
ATOM     26  H   UNL     1      51.806   7.503  11.273  0.00  0.00    +0.000 HD
ATOM     27  H   UNL     1      50.387   6.646  10.774  0.00  0.00    +0.000 HD
ENDBRANCH  17  24
ENDBRANCH  15  20
ENDBRANCH   1  15
TORSDOF 5
ENDMDL
MODEL 4
REMARK VINA RESULT:    -7.943      2.255      2.743
REMARK INTER + INTRA:         -11.139
REMARK INTER:                 -10.317
REMARK INTRA:                  -0.822
REMARK UNBOUND:                -0.875
REMARK  Name = 
REMARK  5 active torsions:
REMARK  status: ('A' for Active; 'I' for Inactive)
REMARK    1  A    between atoms: C_2  and  C_4
REMARK    2  A    between atoms: C_7  and  N_8
REMARK    3  A    between atoms: N_8  and  C_9
REMARK    4  A    between atoms: C_9  and  C_10
REMARK    5  A    between atoms: C_14  and  C_15
REMARK                            x       y       z     vdW  Elec       q    Type
REMARK                         _______ _______ _______ _____ _____    ______ ____
ROOT
ATOM      1  C   UNL     1      44.465   4.041  11.769  0.00  0.00    +0.000 C 
ENDROOT
BRANCH   1   2
ATOM      2  C   UNL     1      45.034   5.436  11.845  0.00  0.00    +0.000 A 
ATOM      3  C   UNL     1      44.288   6.530  11.393  0.00  0.00    +0.000 A 
ATOM      4  C   UNL     1      44.765   7.824  11.577  0.00  0.00    +0.000 A 
ATOM      5  C   UNL     1      45.991   8.035  12.213  0.00  0.00    +0.000 A 
ATOM      6  C   UNL     1      46.784   6.962  12.659  0.00  0.00    +0.000 A 
ATOM      7  C   UNL     1      46.288   5.661  12.442  0.00  0.00    +0.000 A 
BRANCH   6   8
ATOM      8  C   UNL     1      48.052   7.209  13.380  0.00  0.00    +0.000 A 
ATOM      9  C   UNL     1      49.116   7.935  12.828  0.00  0.00    +0.000 A 
ATOM     10  C   UNL     1      50.299   8.078  13.553  0.00  0.00    +0.000 A 
ATOM     11  C   UNL     1      50.393   7.495  14.805  0.00  0.00    +0.000 A 
ATOM     12  F   UNL     1      51.517   7.604  15.521  0.00  0.00    +0.000 F 
ATOM     13  C   UNL     1      49.304   6.803  15.296  0.00  0.00    +0.000 A 
ATOM     14  N   UNL     1      48.141   6.653  14.617  0.00  0.00    +0.000 NA
ENDBRANCH   6   8
ENDBRANCH   1   2
BRANCH   1  15
ATOM     15  N   UNL     1      43.881   3.771  10.467  0.00  0.00    +0.000 N 
ATOM     16  H   UNL     1      42.995   3.271  10.498  0.00  0.00    +0.000 HD
BRANCH  15  20
ATOM     17  C   UNL     1      46.566   2.617   7.406  0.00  0.00    +0.000 A 
ATOM     18  C   UNL     1      46.028   1.647   8.252  0.00  0.00    +0.000 A 
ATOM     19  C   UNL     1      45.125   2.015   9.254  0.00  0.00    +0.000 A 
ATOM     20  C   UNL     1      44.711   3.345   9.423  0.00  0.00    +0.000 A 
ATOM     21  C   UNL     1      45.279   4.309   8.577  0.00  0.00    +0.000 A 
ATOM     22  C   UNL     1      46.200   3.954   7.581  0.00  0.00    +0.000 A 
BRANCH  17  24
ATOM     23  N   UNL     1      47.521   3.001   5.198  0.00  0.00    +0.000 N 
ATOM     24  C   UNL     1      47.557   2.271   6.355  0.00  0.00    +0.000 C 
ATOM     25  O   UNL     1      48.393   1.392   6.520  0.00  0.00    +0.000 OA
ATOM     26  H   UNL     1      48.260   2.820   4.530  0.00  0.00    +0.000 HD
ATOM     27  H   UNL     1      47.024   3.876   5.123  0.00  0.00    +0.000 HD
ENDBRANCH  17  24
ENDBRANCH  15  20
ENDBRANCH   1  15
TORSDOF 5
ENDMDL
MODEL 5
REMARK VINA RESULT:    -7.084      3.916      8.011
REMARK INTER + INTRA:         -10.029
REMARK INTER:                  -9.275
REMARK INTRA:                  -0.754
REMARK UNBOUND:                -0.875
REMARK  Name = 
REMARK  5 active torsions:
REMARK  status: ('A' for Active; 'I' for Inactive)
REMARK    1  A    between atoms: C_2  and  C_4
REMARK    2  A    between atoms: C_7  and  N_8
REMARK    3  A    between atoms: N_8  and  C_9
REMARK    4  A    between atoms: C_9  and  C_10
REMARK    5  A    between atoms: C_14  and  C_15
REMARK                            x       y       z     vdW  Elec       q    Type
REMARK                         _______ _______ _______ _____ _____    ______ ____
ROOT
ATOM      1  C   UNL     1      45.885   6.831  13.110  0.00  0.00    +0.000 C 
ENDROOT
BRANCH   1   2
ATOM      2  C   UNL     1      45.029   5.901  12.288  0.00  0.00    +0.000 A 
ATOM      3  C   UNL     1      43.646   5.843  12.495  0.00  0.00    +0.000 A 
ATOM      4  C   UNL     1      42.845   5.076  11.654  0.00  0.00    +0.000 A 
ATOM      5  C   UNL     1      43.419   4.359  10.602  0.00  0.00    +0.000 A 
ATOM      6  C   UNL     1      44.808   4.368  10.375  0.00  0.00    +0.000 A 
ATOM      7  C   UNL     1      45.598   5.137  11.252  0.00  0.00    +0.000 A 
BRANCH   6   8
ATOM      8  C   UNL     1      45.389   3.648   9.222  0.00  0.00    +0.000 A 
ATOM      9  C   UNL     1      45.468   2.251   9.155  0.00  0.00    +0.000 A 
ATOM     10  C   UNL     1      46.080   1.649   8.054  0.00  0.00    +0.000 A 
ATOM     11  C   UNL     1      46.596   2.452   7.053  0.00  0.00    +0.000 A 
ATOM     12  F   UNL     1      47.198   1.908   5.990  0.00  0.00    +0.000 F 
ATOM     13  C   UNL     1      46.475   3.823   7.173  0.00  0.00    +0.000 A 
ATOM     14  N   UNL     1      45.882   4.433   8.228  0.00  0.00    +0.000 NA
ENDBRANCH   6   8
ENDBRANCH   1   2
BRANCH   1  15
ATOM     15  N   UNL     1      47.231   6.313  13.276  0.00  0.00    +0.000 N 
ATOM     16  H   UNL     1      47.593   5.815  12.465  0.00  0.00    +0.000 HD
BRANCH  15  20
ATOM     17  C   UNL     1      48.404   4.314  16.817  0.00  0.00    +0.000 A 
ATOM     18  C   UNL     1      48.889   5.596  16.557  0.00  0.00    +0.000 A 
ATOM     19  C   UNL     1      48.493   6.274  15.399  0.00  0.00    +0.000 A 
ATOM     20  C   UNL     1      47.585   5.711  14.489  0.00  0.00    +0.000 A 
ATOM     21  C   UNL     1      47.125   4.413  14.757  0.00  0.00    +0.000 A 
ATOM     22  C   UNL     1      47.531   3.717  15.905  0.00  0.00    +0.000 A 
BRANCH  17  24
ATOM     23  N   UNL     1      50.175   3.345  18.181  0.00  0.00    +0.000 N 
ATOM     24  C   UNL     1      48.831   3.548  18.016  0.00  0.00    +0.000 C 
ATOM     25  O   UNL     1      48.026   3.139  18.842  0.00  0.00    +0.000 OA
ATOM     26  H   UNL     1      50.459   2.907  19.048  0.00  0.00    +0.000 HD
ATOM     27  H   UNL     1      50.870   3.867  17.669  0.00  0.00    +0.000 HD
ENDBRANCH  17  24
ENDBRANCH  15  20
ENDBRANCH   1  15
TORSDOF 5
ENDMDL
MODEL 6
REMARK VINA RESULT:    -6.414      4.174      7.936
REMARK INTER + INTRA:          -9.164
REMARK INTER:                  -8.279
REMARK INTRA:                  -0.885
REMARK UNBOUND:                -0.875
REMARK  Name = 
REMARK  5 active torsions:
REMARK  status: ('A' for Active; 'I' for Inactive)
REMARK    1  A    between atoms: C_2  and  C_4
REMARK    2  A    between atoms: C_7  and  N_8
REMARK    3  A    between atoms: N_8  and  C_9
REMARK    4  A    between atoms: C_9  and  C_10
REMARK    5  A    between atoms: C_14  and  C_15
REMARK                            x       y       z     vdW  Elec       q    Type
REMARK                         _______ _______ _______ _____ _____    ______ ____
ROOT
ATOM      1  C   UNL     1      49.092   7.754  15.893  0.00  0.00    +0.000 C 
ENDROOT
BRANCH   1   2
ATOM      2  C   UNL     1      48.726   7.656  14.433  0.00  0.00    +0.000 A 
ATOM      3  C   UNL     1      49.556   8.218  13.456  0.00  0.00    +0.000 A 
ATOM      4  C   UNL     1      49.278   8.020  12.106  0.00  0.00    +0.000 A 
ATOM      5  C   UNL     1      48.170   7.261  11.722  0.00  0.00    +0.000 A 
ATOM      6  C   UNL     1      47.296   6.701  12.672  0.00  0.00    +0.000 A 
ATOM      7  C   UNL     1      47.587   6.933  14.031  0.00  0.00    +0.000 A 
BRANCH   6   8
ATOM      8  C   UNL     1      46.161   5.855  12.246  0.00  0.00    +0.000 A 
ATOM      9  C   UNL     1      45.692   5.813  10.926  0.00  0.00    +0.000 A 
ATOM     10  C   UNL     1      44.581   5.028  10.616  0.00  0.00    +0.000 A 
ATOM     11  C   UNL     1      43.966   4.308  11.625  0.00  0.00    +0.000 A 
ATOM     12  F   UNL     1      42.893   3.554  11.363  0.00  0.00    +0.000 F 
ATOM     13  C   UNL     1      44.485   4.383  12.903  0.00  0.00    +0.000 A 
ATOM     14  N   UNL     1      45.565   5.133  13.231  0.00  0.00    +0.000 NA
ENDBRANCH   6   8
ENDBRANCH   1   2
BRANCH   1  15
ATOM     15  N   UNL     1      48.505   6.673  16.665  0.00  0.00    +0.000 N 
ATOM     16  H   UNL     1      47.897   6.980  17.422  0.00  0.00    +0.000 HD
BRANCH  15  20
ATOM     17  C   UNL     1      50.846   3.251  17.514  0.00  0.00    +0.000 A 
ATOM     18  C   UNL     1      51.463   4.496  17.395  0.00  0.00    +0.000 A 
ATOM     19  C   UNL     1      50.698   5.637  17.134  0.00  0.00    +0.000 A 
ATOM     20  C   UNL     1      49.301   5.575  17.015  0.00  0.00    +0.000 A 
ATOM     21  C   UNL     1      48.700   4.313  17.116  0.00  0.00    +0.000 A 
ATOM     22  C   UNL     1      49.460   3.160  17.359  0.00  0.00    +0.000 A 
BRANCH  17  24
ATOM     23  N   UNL     1      52.671   2.093  18.637  0.00  0.00    +0.000 N 
ATOM     24  C   UNL     1      51.629   2.012  17.753  0.00  0.00    +0.000 C 
ATOM     25  O   UNL     1      51.343   0.952  17.212  0.00  0.00    +0.000 OA
ATOM     26  H   UNL     1      53.136   1.222  18.863  0.00  0.00    +0.000 HD
ATOM     27  H   UNL     1      52.782   2.865  19.278  0.00  0.00    +0.000 HD
ENDBRANCH  17  24
ENDBRANCH  15  20
ENDBRANCH   1  15
TORSDOF 5
ENDMDL
MODEL 7
REMARK VINA RESULT:    -6.410      4.263      8.314
REMARK INTER + INTRA:          -9.158
REMARK INTER:                  -8.410
REMARK INTRA:                  -0.748
REMARK UNBOUND:                -0.875
REMARK  Name = 
REMARK  5 active torsions:
REMARK  status: ('A' for Active; 'I' for Inactive)
REMARK    1  A    between atoms: C_2  and  C_4
REMARK    2  A    between atoms: C_7  and  N_8
REMARK    3  A    between atoms: N_8  and  C_9
REMARK    4  A    between atoms: C_9  and  C_10
REMARK    5  A    between atoms: C_14  and  C_15
REMARK                            x       y       z     vdW  Elec       q    Type
REMARK                         _______ _______ _______ _____ _____    ______ ____
ROOT
ATOM      1  C   UNL     1      48.102   7.938  14.007  0.00  0.00    +0.000 C 
ENDROOT
BRANCH   1   2
ATOM      2  C   UNL     1      46.870   7.820  13.145  0.00  0.00    +0.000 A 
ATOM      3  C   UNL     1      46.046   8.931  12.932  0.00  0.00    +0.000 A 
ATOM      4  C   UNL     1      44.982   8.850  12.039  0.00  0.00    +0.000 A 
ATOM      5  C   UNL     1      44.731   7.659  11.354  0.00  0.00    +0.000 A 
ATOM      6  C   UNL     1      45.519   6.511  11.559  0.00  0.00    +0.000 A 
ATOM      7  C   UNL     1      46.578   6.613  12.482  0.00  0.00    +0.000 A 
BRANCH   6   8
ATOM      8  C   UNL     1      45.271   5.278  10.781  0.00  0.00    +0.000 A 
ATOM      9  C   UNL     1      45.615   5.145   9.429  0.00  0.00    +0.000 A 
ATOM     10  C   UNL     1      45.298   3.967   8.752  0.00  0.00    +0.000 A 
ATOM     11  C   UNL     1      44.649   2.954   9.437  0.00  0.00    +0.000 A 
ATOM     12  F   UNL     1      44.322   1.816   8.815  0.00  0.00    +0.000 F 
ATOM     13  C   UNL     1      44.349   3.143  10.771  0.00  0.00    +0.000 A 
ATOM     14  N   UNL     1      44.649   4.275  11.455  0.00  0.00    +0.000 NA
ENDBRANCH   6   8
ENDBRANCH   1   2
BRANCH   1  15
ATOM     15  N   UNL     1      48.669   6.636  14.311  0.00  0.00    +0.000 N 
ATOM     16  H   UNL     1      48.446   5.911  13.632  0.00  0.00    +0.000 HD
BRANCH  15  20
ATOM     17  C   UNL     1      48.677   5.025  18.225  0.00  0.00    +0.000 A 
ATOM     18  C   UNL     1      49.453   6.148  17.941  0.00  0.00    +0.000 A 
ATOM     19  C   UNL     1      49.444   6.701  16.656  0.00  0.00    +0.000 A 
ATOM     20  C   UNL     1      48.643   6.173  15.632  0.00  0.00    +0.000 A 
ATOM     21  C   UNL     1      47.885   5.030  15.930  0.00  0.00    +0.000 A 
ATOM     22  C   UNL     1      47.902   4.457  17.210  0.00  0.00    +0.000 A 
BRANCH  17  24
ATOM     23  N   UNL     1      48.345   3.065  19.633  0.00  0.00    +0.000 N 
ATOM     24  C   UNL     1      48.690   4.388  19.566  0.00  0.00    +0.000 C 
ATOM     25  O   UNL     1      49.024   5.003  20.570  0.00  0.00    +0.000 OA
ATOM     26  H   UNL     1      48.450   2.619  20.535  0.00  0.00    +0.000 HD
ATOM     27  H   UNL     1      48.306   2.472  18.817  0.00  0.00    +0.000 HD
ENDBRANCH  17  24
ENDBRANCH  15  20
ENDBRANCH   1  15
TORSDOF 5
ENDMDL
MODEL 8
REMARK VINA RESULT:    -6.289      4.402      8.520
REMARK INTER + INTRA:          -9.001
REMARK INTER:                  -8.240
REMARK INTRA:                  -0.762
REMARK UNBOUND:                -0.875
REMARK  Name = 
REMARK  5 active torsions:
REMARK  status: ('A' for Active; 'I' for Inactive)
REMARK    1  A    between atoms: C_2  and  C_4
REMARK    2  A    between atoms: C_7  and  N_8
REMARK    3  A    between atoms: N_8  and  C_9
REMARK    4  A    between atoms: C_9  and  C_10
REMARK    5  A    between atoms: C_14  and  C_15
REMARK                            x       y       z     vdW  Elec       q    Type
REMARK                         _______ _______ _______ _____ _____    ______ ____
ROOT
ATOM      1  C   UNL     1      48.362   4.691  17.241  0.00  0.00    +0.000 C 
ENDROOT
BRANCH   1   2
ATOM      2  C   UNL     1      48.168   5.449  15.951  0.00  0.00    +0.000 A 
ATOM      3  C   UNL     1      48.971   6.556  15.653  0.00  0.00    +0.000 A 
ATOM      4  C   UNL     1      48.872   7.176  14.411  0.00  0.00    +0.000 A 
ATOM      5  C   UNL     1      47.969   6.697  13.459  0.00  0.00    +0.000 A 
ATOM      6  C   UNL     1      47.125   5.604  13.728  0.00  0.00    +0.000 A 
ATOM      7  C   UNL     1      47.231   5.006  14.999  0.00  0.00    +0.000 A 
BRANCH   6   8
ATOM      8  C   UNL     1      46.217   5.077  12.686  0.00  0.00    +0.000 A 
ATOM      9  C   UNL     1      45.615   3.814  12.763  0.00  0.00    +0.000 A 
ATOM     10  C   UNL     1      44.813   3.369  11.712  0.00  0.00    +0.000 A 
ATOM     11  C   UNL     1      44.633   4.190  10.613  0.00  0.00    +0.000 A 
ATOM     12  F   UNL     1      43.879   3.789   9.583  0.00  0.00    +0.000 F 
ATOM     13  C   UNL     1      45.244   5.429  10.603  0.00  0.00    +0.000 A 
ATOM     14  N   UNL     1      46.024   5.888  11.612  0.00  0.00    +0.000 NA
ENDBRANCH   6   8
ENDBRANCH   1   2
BRANCH   1  15
ATOM     15  N   UNL     1      49.708   4.855  17.760  0.00  0.00    +0.000 N 
ATOM     16  H   UNL     1      50.139   5.750  17.537  0.00  0.00    +0.000 HD
BRANCH  15  20
ATOM     17  C   UNL     1      52.453   1.634  17.754  0.00  0.00    +0.000 A 
ATOM     18  C   UNL     1      51.136   1.417  17.348  0.00  0.00    +0.000 A 
ATOM     19  C   UNL     1      50.226   2.478  17.328  0.00  0.00    +0.000 A 
ATOM     20  C   UNL     1      50.605   3.783  17.680  0.00  0.00    +0.000 A 
ATOM     21  C   UNL     1      51.927   3.977  18.105  0.00  0.00    +0.000 A 
ATOM     22  C   UNL     1      52.843   2.916  18.147  0.00  0.00    +0.000 A 
BRANCH  17  24
ATOM     23  N   UNL     1      53.046  -0.620  18.463  0.00  0.00    +0.000 N 
ATOM     24  C   UNL     1      53.439   0.525  17.825  0.00  0.00    +0.000 C 
ATOM     25  O   UNL     1      54.546   0.611  17.311  0.00  0.00    +0.000 OA
ATOM     26  H   UNL     1      53.689  -1.401  18.422  0.00  0.00    +0.000 HD
ATOM     27  H   UNL     1      52.079  -0.819  18.676  0.00  0.00    +0.000 HD
ENDBRANCH  17  24
ENDBRANCH  15  20
ENDBRANCH   1  15
TORSDOF 5
ENDMDL
