MODEL 1
REMARK VINA RESULT:    -7.877      0.000      0.000
REMARK INTER + INTRA:         -10.320
REMARK INTER:                  -9.718
REMARK INTRA:                  -0.601
REMARK UNBOUND:                -0.601
REMARK  Name = 
REMARK  5 active torsions:
REMARK  status: ('A' for Active; 'I' for Inactive)
REMARK    1  A    between atoms: C_1  and  C_2
REMARK    2  A    between atoms: C_2  and  C_3
REMARK    3  A    between atoms: C_2  and  C_14
REMARK    4  A    between atoms: C_3  and  N_4
REMARK    5  A    between atoms: C_8  and  C_9
REMARK                            x       y       z     vdW  Elec       q    Type
REMARK                         _______ _______ _______ _____ _____    ______ ____
ROOT
ATOM      1  N   UNL     1      43.920   3.238  10.403  0.00  0.00    +0.000 N 
ATOM      2  C   UNL     1      44.844   3.038   9.371  0.00  0.00    +0.000 A 
ATOM      3  C   UNL     1      45.211   1.733   9.050  0.00  0.00    +0.000 A 
ATOM      4  C   UNL     1      46.134   1.509   8.029  0.00  0.00    +0.000 A 
ATOM      5  C   UNL     1      46.678   2.594   7.341  0.00  0.00    +0.000 A 
ATOM      6  C   UNL     1      46.269   3.856   7.734  0.00  0.00    +0.000 A 
ATOM      7  N   UNL     1      45.379   4.096   8.729  0.00  0.00    +0.000 NA
ATOM      8  H   UNL     1      43.081   2.700  10.198  0.00  0.00    +0.000 HD
ENDROOT
BRANCH   5   9
ATOM      9  C   UNL     1      47.643   2.351   6.244  0.00  0.00    +0.000 C 
ATOM     10  N   UNL     1      47.641   3.186   5.161  0.00  0.00    +0.000 N 
ATOM     11  O   UNL     1      48.433   1.418   6.292  0.00  0.00    +0.000 OA
ATOM     12  H   UNL     1      47.026   3.972   5.011  0.00  0.00    +0.000 HD
ATOM     13  H   UNL     1      48.313   2.979   4.432  0.00  0.00    +0.000 HD
ENDBRANCH   5   9
BRANCH   1  14
ATOM     14  C   UNL     1      43.597   4.639  10.647  0.00  0.00    +0.000 C 
BRANCH  14  16
ATOM     15  C   UNL     1      42.929   5.191  13.066  0.00  0.00    +0.000 C 
ATOM     16  C   UNL     1      44.007   4.941  12.058  0.00  0.00    +0.000 C 
BRANCH  16  17
ATOM     17  C   UNL     1      45.366   5.451  12.293  0.00  0.00    +0.000 A 
ATOM     18  C   UNL     1      45.960   6.358  11.406  0.00  0.00    +0.000 A 
ATOM     19  C   UNL     1      47.228   6.879  11.672  0.00  0.00    +0.000 A 
ATOM     20  C   UNL     1      47.908   6.507  12.831  0.00  0.00    +0.000 A 
ATOM     21  C   UNL     1      47.328   5.600  13.716  0.00  0.00    +0.000 A 
ATOM     22  C   UNL     1      46.068   5.070  13.444  0.00  0.00    +0.000 A 
ENDBRANCH  16  17
ENDBRANCH  14  16
ENDBRANCH   1  14
TORSDOF 4
ENDMDL
MODEL 2
REMARK VINA RESULT:    -7.505      1.486      1.861
REMARK INTER + INTRA:          -9.862
REMARK INTER:                  -9.555
REMARK INTRA:                  -0.307
REMARK UNBOUND:                -0.601
REMARK  Name = 
REMARK  5 active torsions:
REMARK  status: ('A' for Active; 'I' for Inactive)
REMARK    1  A    between atoms: C_1  and  C_2
REMARK    2  A    between atoms: C_2  and  C_3
REMARK    3  A    between atoms: C_2  and  C_14
REMARK    4  A    between atoms: C_3  and  N_4
REMARK    5  A    between atoms: C_8  and  C_9
REMARK                            x       y       z     vdW  Elec       q    Type
REMARK                         _______ _______ _______ _____ _____    ______ ____
ROOT
ATOM      1  N   UNL     1      44.261   5.164   9.737  0.00  0.00    +0.000 N 
ATOM      2  C   UNL     1      44.938   4.094   9.140  0.00  0.00    +0.000 A 
ATOM      3  C   UNL     1      45.883   4.372   8.154  0.00  0.00    +0.000 A 
ATOM      4  C   UNL     1      46.566   3.322   7.541  0.00  0.00    +0.000 A 
ATOM      5  C   UNL     1      46.297   2.007   7.922  0.00  0.00    +0.000 A 
ATOM      6  C   UNL     1      45.334   1.822   8.898  0.00  0.00    +0.000 A 
ATOM      7  N   UNL     1      44.652   2.828   9.501  0.00  0.00    +0.000 NA
ATOM      8  H   UNL     1      44.947   5.816  10.111  0.00  0.00    +0.000 HD
ENDROOT
BRANCH   5   9
ATOM      9  C   UNL     1      47.039   0.897   7.283  0.00  0.00    +0.000 C 
ATOM     10  N   UNL     1      46.753  -0.390   7.648  0.00  0.00    +0.000 N 
ATOM     11  O   UNL     1      47.900   1.113   6.441  0.00  0.00    +0.000 OA
ATOM     12  H   UNL     1      46.077  -0.681   8.339  0.00  0.00    +0.000 HD
ATOM     13  H   UNL     1      47.289  -1.117   7.191  0.00  0.00    +0.000 HD
ENDBRANCH   5   9
BRANCH   1  14
ATOM     14  C   UNL     1      43.306   4.763  10.763  0.00  0.00    +0.000 C 
BRANCH  14  16
ATOM     15  C   UNL     1      43.369   4.202  13.270  0.00  0.00    +0.000 C 
ATOM     16  C   UNL     1      44.030   4.816  12.076  0.00  0.00    +0.000 C 
BRANCH  16  17
ATOM     17  C   UNL     1      45.066   5.843  12.258  0.00  0.00    +0.000 A 
ATOM     18  C   UNL     1      44.733   7.202  12.321  0.00  0.00    +0.000 A 
ATOM     19  C   UNL     1      45.720   8.163  12.553  0.00  0.00    +0.000 A 
ATOM     20  C   UNL     1      47.046   7.772  12.732  0.00  0.00    +0.000 A 
ATOM     21  C   UNL     1      47.389   6.424  12.663  0.00  0.00    +0.000 A 
ATOM     22  C   UNL     1      46.406   5.466  12.419  0.00  0.00    +0.000 A 
ENDBRANCH  16  17
ENDBRANCH  14  16
ENDBRANCH   1  14
TORSDOF 4
ENDMDL
MODEL 3
REMARK VINA RESULT:    -7.085      3.027      6.409
REMARK INTER + INTRA:          -9.343
REMARK INTER:                  -8.966
REMARK INTRA:                  -0.377
REMARK UNBOUND:                -0.601
REMARK  Name = 
REMARK  5 active torsions:
REMARK  status: ('A' for Active; 'I' for Inactive)
REMARK    1  A    between atoms: C_1  and  C_2
REMARK    2  A    between atoms: C_2  and  C_3
REMARK    3  A    between atoms: C_2  and  C_14
REMARK    4  A    between atoms: C_3  and  N_4
REMARK    5  A    between atoms: C_8  and  C_9
REMARK                            x       y       z     vdW  Elec       q    Type
REMARK                         _______ _______ _______ _____ _____    ______ ____
ROOT
ATOM      1  N   UNL     1      43.764   4.988  10.260  0.00  0.00    +0.000 N 
ATOM      2  C   UNL     1      44.695   5.689  11.035  0.00  0.00    +0.000 A 
ATOM      3  C   UNL     1      44.325   6.091  12.317  0.00  0.00    +0.000 A 
ATOM      4  C   UNL     1      45.234   6.796  13.106  0.00  0.00    +0.000 A 
ATOM      5  C   UNL     1      46.502   7.089  12.603  0.00  0.00    +0.000 A 
ATOM      6  C   UNL     1      46.780   6.665  11.316  0.00  0.00    +0.000 A 
ATOM      7  N   UNL     1      45.908   5.986  10.529  0.00  0.00    +0.000 NA
ATOM      8  H   UNL     1      43.451   4.173  10.784  0.00  0.00    +0.000 HD
ENDROOT
BRANCH   5   9
ATOM      9  C   UNL     1      47.471   7.821  13.451  0.00  0.00    +0.000 C 
ATOM     10  N   UNL     1      47.007   8.755  14.335  0.00  0.00    +0.000 N 
ATOM     11  O   UNL     1      48.672   7.606  13.368  0.00  0.00    +0.000 OA
ATOM     12  H   UNL     1      46.043   9.023  14.474  0.00  0.00    +0.000 HD
ATOM     13  H   UNL     1      47.704   9.236  14.889  0.00  0.00    +0.000 HD
ENDBRANCH   5   9
BRANCH   1  14
ATOM     14  C   UNL     1      44.258   4.604   8.943  0.00  0.00    +0.000 C 
BRANCH  14  16
ATOM     15  C   UNL     1      44.219   2.394  10.253  0.00  0.00    +0.000 C 
ATOM     16  C   UNL     1      44.590   3.143   9.012  0.00  0.00    +0.000 C 
BRANCH  16  17
ATOM     17  C   UNL     1      45.653   2.629   8.134  0.00  0.00    +0.000 A 
ATOM     18  C   UNL     1      46.114   1.312   8.255  0.00  0.00    +0.000 A 
ATOM     19  C   UNL     1      47.082   0.819   7.377  0.00  0.00    +0.000 A 
ATOM     20  C   UNL     1      47.590   1.634   6.367  0.00  0.00    +0.000 A 
ATOM     21  C   UNL     1      47.143   2.948   6.244  0.00  0.00    +0.000 A 
ATOM     22  C   UNL     1      46.186   3.444   7.128  0.00  0.00    +0.000 A 
ENDBRANCH  16  17
ENDBRANCH  14  16
ENDBRANCH   1  14
TORSDOF 4
ENDMDL
MODEL 4
REMARK VINA RESULT:    -6.736      3.185      5.858
REMARK INTER + INTRA:          -8.913
REMARK INTER:                  -8.300
REMARK INTRA:                  -0.613
REMARK UNBOUND:                -0.601
REMARK  Name = 
REMARK  5 active torsions:
REMARK  status: ('A' for Active; 'I' for Inactive)
REMARK    1  A    between atoms: C_1  and  C_2
REMARK    2  A    between atoms: C_2  and  C_3
REMARK    3  A    between atoms: C_2  and  C_14
REMARK    4  A    between atoms: C_3  and  N_4
REMARK    5  A    between atoms: C_8  and  C_9
REMARK                            x       y       z     vdW  Elec       q    Type
REMARK                         _______ _______ _______ _____ _____    ______ ____
ROOT
ATOM      1  N   UNL     1      44.669   4.839  12.517  0.00  0.00    +0.000 N 
ATOM      2  C   UNL     1      45.886   5.525  12.594  0.00  0.00    +0.000 A 
ATOM      3  C   UNL     1      46.626   5.436  13.772  0.00  0.00    +0.000 A 
ATOM      4  C   UNL     1      47.840   6.115  13.875  0.00  0.00    +0.000 A 
ATOM      5  C   UNL     1      48.300   6.873  12.798  0.00  0.00    +0.000 A 
ATOM      6  C   UNL     1      47.496   6.918  11.673  0.00  0.00    +0.000 A 
ATOM      7  N   UNL     1      46.308   6.272  11.555  0.00  0.00    +0.000 NA
ATOM      8  H   UNL     1      44.832   3.858  12.730  0.00  0.00    +0.000 HD
ENDROOT
BRANCH   5   9
ATOM      9  C   UNL     1      49.599   7.576  12.903  0.00  0.00    +0.000 C 
ATOM     10  N   UNL     1      50.537   7.388  11.927  0.00  0.00    +0.000 N 
ATOM     11  O   UNL     1      49.843   8.315  13.848  0.00  0.00    +0.000 OA
ATOM     12  H   UNL     1      50.448   6.793  11.117  0.00  0.00    +0.000 HD
ATOM     13  H   UNL     1      51.413   7.883  12.043  0.00  0.00    +0.000 HD
ENDBRANCH   5   9
BRANCH   1  14
ATOM     14  C   UNL     1      43.984   4.988  11.238  0.00  0.00    +0.000 C 
BRANCH  14  16
ATOM     15  C   UNL     1      43.325   2.515  11.459  0.00  0.00    +0.000 C 
ATOM     16  C   UNL     1      43.898   3.621  10.628  0.00  0.00    +0.000 C 
BRANCH  16  17
ATOM     17  C   UNL     1      44.781   3.306   9.496  0.00  0.00    +0.000 A 
ATOM     18  C   UNL     1      45.321   4.323   8.698  0.00  0.00    +0.000 A 
ATOM     19  C   UNL     1      46.205   4.014   7.661  0.00  0.00    +0.000 A 
ATOM     20  C   UNL     1      46.562   2.688   7.420  0.00  0.00    +0.000 A 
ATOM     21  C   UNL     1      46.024   1.670   8.202  0.00  0.00    +0.000 A 
ATOM     22  C   UNL     1      45.132   1.977   9.229  0.00  0.00    +0.000 A 
ENDBRANCH  16  17
ENDBRANCH  14  16
ENDBRANCH   1  14
TORSDOF 4
ENDMDL
MODEL 5
REMARK VINA RESULT:    -6.317      4.387      6.363
REMARK INTER + INTRA:          -8.396
REMARK INTER:                  -8.012
REMARK INTRA:                  -0.384
REMARK UNBOUND:                -0.601
REMARK  Name = 
REMARK  5 active torsions:
REMARK  status: ('A' for Active; 'I' for Inactive)
REMARK    1  A    between atoms: C_1  and  C_2
REMARK    2  A    between atoms: C_2  and  C_3
REMARK    3  A    between atoms: C_2  and  C_14
REMARK    4  A    between atoms: C_3  and  N_4
REMARK    5  A    between atoms: C_8  and  C_9
REMARK                            x       y       z     vdW  Elec       q    Type
REMARK                         _______ _______ _______ _____ _____    ______ ____
ROOT
ATOM      1  N   UNL     1      47.292   4.961  15.281  0.00  0.00    +0.000 N 
ATOM      2  C   UNL     1      46.640   4.896  14.045  0.00  0.00    +0.000 A 
ATOM      3  C   UNL     1      46.587   6.046  13.259  0.00  0.00    +0.000 A 
ATOM      4  C   UNL     1      45.939   6.007  12.025  0.00  0.00    +0.000 A 
ATOM      5  C   UNL     1      45.353   4.818  11.591  0.00  0.00    +0.000 A 
ATOM      6  C   UNL     1      45.440   3.729  12.440  0.00  0.00    +0.000 A 
ATOM      7  N   UNL     1      46.058   3.747  13.647  0.00  0.00    +0.000 NA
ATOM      8  H   UNL     1      48.238   5.304  15.134  0.00  0.00    +0.000 HD
ENDROOT
BRANCH   5   9
ATOM      9  C   UNL     1      44.682   4.775  10.271  0.00  0.00    +0.000 C 
ATOM     10  N   UNL     1      45.364   5.202   9.166  0.00  0.00    +0.000 N 
ATOM     11  O   UNL     1      43.533   4.370  10.159  0.00  0.00    +0.000 OA
ATOM     12  H   UNL     1      46.305   5.568   9.146  0.00  0.00    +0.000 HD
ATOM     13  H   UNL     1      44.865   5.162   8.286  0.00  0.00    +0.000 HD
ENDBRANCH   5   9
BRANCH   1  14
ATOM     14  C   UNL     1      47.301   3.701  16.014  0.00  0.00    +0.000 C 
BRANCH  14  16
ATOM     15  C   UNL     1      47.611   5.054  18.177  0.00  0.00    +0.000 C 
ATOM     16  C   UNL     1      48.063   3.941  17.283  0.00  0.00    +0.000 C 
BRANCH  16  17
ATOM     17  C   UNL     1      49.445   3.445  17.370  0.00  0.00    +0.000 A 
ATOM     18  C   UNL     1      50.486   4.279  17.800  0.00  0.00    +0.000 A 
ATOM     19  C   UNL     1      51.783   3.779  17.933  0.00  0.00    +0.000 A 
ATOM     20  C   UNL     1      52.049   2.441  17.645  0.00  0.00    +0.000 A 
ATOM     21  C   UNL     1      51.023   1.606  17.209  0.00  0.00    +0.000 A 
ATOM     22  C   UNL     1      49.730   2.108  17.064  0.00  0.00    +0.000 A 
ENDBRANCH  16  17
ENDBRANCH  14  16
ENDBRANCH   1  14
TORSDOF 4
ENDMDL
MODEL 6
REMARK VINA RESULT:    -6.035      4.542      7.543
REMARK INTER + INTRA:          -8.047
REMARK INTER:                  -7.696
REMARK INTRA:                  -0.352
REMARK UNBOUND:                -0.601
REMARK  Name = 
REMARK  5 active torsions:
REMARK  status: ('A' for Active; 'I' for Inactive)
REMARK    1  A    between atoms: C_1  and  C_2
REMARK    2  A    between atoms: C_2  and  C_3
REMARK    3  A    between atoms: C_2  and  C_14
REMARK    4  A    between atoms: C_3  and  N_4
REMARK    5  A    between atoms: C_8  and  C_9
REMARK                            x       y       z     vdW  Elec       q    Type
REMARK                         _______ _______ _______ _____ _____    ______ ____
ROOT
ATOM      1  N   UNL     1      46.473   5.338  13.304  0.00  0.00    +0.000 N 
ATOM      2  C   UNL     1      47.129   5.105  14.518  0.00  0.00    +0.000 A 
ATOM      3  C   UNL     1      48.040   6.055  14.976  0.00  0.00    +0.000 A 
ATOM      4  C   UNL     1      48.709   5.842  16.180  0.00  0.00    +0.000 A 
ATOM      5  C   UNL     1      48.459   4.682  16.913  0.00  0.00    +0.000 A 
ATOM      6  C   UNL     1      47.551   3.785  16.378  0.00  0.00    +0.000 A 
ATOM      7  N   UNL     1      46.895   3.969  15.204  0.00  0.00    +0.000 NA
ATOM      8  H   UNL     1      46.010   6.243  13.351  0.00  0.00    +0.000 HD
ENDROOT
BRANCH   5   9
ATOM      9  C   UNL     1      49.158   4.468  18.201  0.00  0.00    +0.000 C 
ATOM     10  N   UNL     1      49.064   3.249  18.813  0.00  0.00    +0.000 N 
ATOM     11  O   UNL     1      49.809   5.363  18.723  0.00  0.00    +0.000 OA
ATOM     12  H   UNL     1      48.544   2.450  18.481  0.00  0.00    +0.000 HD
ATOM     13  H   UNL     1      49.551   3.150  19.695  0.00  0.00    +0.000 HD
ENDBRANCH   5   9
BRANCH   1  14
ATOM     14  C   UNL     1      45.534   4.289  12.926  0.00  0.00    +0.000 C 
BRANCH  14  16
ATOM     15  C   UNL     1      43.438   5.541  12.124  0.00  0.00    +0.000 C 
ATOM     16  C   UNL     1      44.712   4.829  11.793  0.00  0.00    +0.000 C 
BRANCH  16  17
ATOM     17  C   UNL     1      44.900   4.245  10.456  0.00  0.00    +0.000 A 
ATOM     18  C   UNL     1      45.532   4.967   9.436  0.00  0.00    +0.000 A 
ATOM     19  C   UNL     1      45.757   4.379   8.189  0.00  0.00    +0.000 A 
ATOM     20  C   UNL     1      45.359   3.063   7.955  0.00  0.00    +0.000 A 
ATOM     21  C   UNL     1      44.723   2.340   8.960  0.00  0.00    +0.000 A 
ATOM     22  C   UNL     1      44.488   2.931  10.202  0.00  0.00    +0.000 A 
ENDBRANCH  16  17
ENDBRANCH  14  16
ENDBRANCH   1  14
TORSDOF 4
ENDMDL
MODEL 7
REMARK VINA RESULT:    -5.866      3.015      6.354
REMARK INTER + INTRA:          -7.839
REMARK INTER:                  -7.785
REMARK INTRA:                  -0.055
REMARK UNBOUND:                -0.601
REMARK  Name = 
REMARK  5 active torsions:
REMARK  status: ('A' for Active; 'I' for Inactive)
REMARK    1  A    between atoms: C_1  and  C_2
REMARK    2  A    between atoms: C_2  and  C_3
REMARK    3  A    between atoms: C_2  and  C_14
REMARK    4  A    between atoms: C_3  and  N_4
REMARK    5  A    between atoms: C_8  and  C_9
REMARK                            x       y       z     vdW  Elec       q    Type
REMARK                         _______ _______ _______ _____ _____    ______ ____
ROOT
ATOM      1  N   UNL     1      43.824   4.619  10.425  0.00  0.00    +0.000 N 
ATOM      2  C   UNL     1      44.668   4.674  11.539  0.00  0.00    +0.000 A 
ATOM      3  C   UNL     1      44.094   4.732  12.808  0.00  0.00    +0.000 A 
ATOM      4  C   UNL     1      44.915   4.793  13.933  0.00  0.00    +0.000 A 
ATOM      5  C   UNL     1      46.301   4.793  13.777  0.00  0.00    +0.000 A 
ATOM      6  C   UNL     1      46.786   4.747  12.482  0.00  0.00    +0.000 A 
ATOM      7  N   UNL     1      46.005   4.696  11.373  0.00  0.00    +0.000 NA
ATOM      8  H   UNL     1      43.188   3.833  10.535  0.00  0.00    +0.000 HD
ENDROOT
BRANCH   5   9
ATOM      9  C   UNL     1      47.170   4.837  14.975  0.00  0.00    +0.000 C 
ATOM     10  N   UNL     1      46.938   3.958  15.996  0.00  0.00    +0.000 N 
ATOM     11  O   UNL     1      48.082   5.647  15.065  0.00  0.00    +0.000 OA
ATOM     12  H   UNL     1      46.208   3.262  16.034  0.00  0.00    +0.000 HD
ATOM     13  H   UNL     1      47.551   4.028  16.798  0.00  0.00    +0.000 HD
ENDBRANCH   5   9
BRANCH   1  14
ATOM     14  C   UNL     1      44.528   4.547   9.150  0.00  0.00    +0.000 C 
BRANCH  14  16
ATOM     15  C   UNL     1      44.144   2.089   9.792  0.00  0.00    +0.000 C 
ATOM     16  C   UNL     1      44.680   3.092   8.819  0.00  0.00    +0.000 C 
BRANCH  16  17
ATOM     17  C   UNL     1      45.728   2.702   7.864  0.00  0.00    +0.000 A 
ATOM     18  C   UNL     1      46.100   3.550   6.813  0.00  0.00    +0.000 A 
ATOM     19  C   UNL     1      47.136   3.192   5.948  0.00  0.00    +0.000 A 
ATOM     20  C   UNL     1      47.816   1.989   6.132  0.00  0.00    +0.000 A 
ATOM     21  C   UNL     1      47.449   1.135   7.169  0.00  0.00    +0.000 A 
ATOM     22  C   UNL     1      46.405   1.486   8.025  0.00  0.00    +0.000 A 
ENDBRANCH  16  17
ENDBRANCH  14  16
ENDBRANCH   1  14
TORSDOF 4
ENDMDL
MODEL 8
REMARK VINA RESULT:    -5.775      4.019      6.066
REMARK INTER + INTRA:          -7.727
REMARK INTER:                  -7.392
REMARK INTRA:                  -0.335
REMARK UNBOUND:                -0.601
REMARK  Name = 
REMARK  5 active torsions:
REMARK  status: ('A' for Active; 'I' for Inactive)
REMARK    1  A    between atoms: C_1  and  C_2
REMARK    2  A    between atoms: C_2  and  C_3
REMARK    3  A    between atoms: C_2  and  C_14
REMARK    4  A    between atoms: C_3  and  N_4
REMARK    5  A    between atoms: C_8  and  C_9
REMARK                            x       y       z     vdW  Elec       q    Type
REMARK                         _______ _______ _______ _____ _____    ______ ____
ROOT
ATOM      1  N   UNL     1      47.159   5.177  15.012  0.00  0.00    +0.000 N 
ATOM      2  C   UNL     1      46.480   4.859  13.831  0.00  0.00    +0.000 A 
ATOM      3  C   UNL     1      46.300   5.859  12.876  0.00  0.00    +0.000 A 
ATOM      4  C   UNL     1      45.622   5.567  11.693  0.00  0.00    +0.000 A 
ATOM      5  C   UNL     1      45.134   4.278  11.478  0.00  0.00    +0.000 A 
ATOM      6  C   UNL     1      45.344   3.351  12.483  0.00  0.00    +0.000 A 
ATOM      7  N   UNL     1      45.993   3.616  13.645  0.00  0.00    +0.000 NA
ATOM      8  H   UNL     1      48.066   5.571  14.772  0.00  0.00    +0.000 HD
ENDROOT
BRANCH   5   9
ATOM      9  C   UNL     1      44.431   3.967  10.212  0.00  0.00    +0.000 C 
ATOM     10  N   UNL     1      44.578   4.811   9.146  0.00  0.00    +0.000 N 
ATOM     11  O   UNL     1      43.723   2.975  10.109  0.00  0.00    +0.000 OA
ATOM     12  H   UNL     1      45.122   5.661   9.125  0.00  0.00    +0.000 HD
ATOM     13  H   UNL     1      44.075   4.564   8.304  0.00  0.00    +0.000 HD
ENDBRANCH   5   9
BRANCH   1  14
ATOM     14  C   UNL     1      47.304   4.056  15.933  0.00  0.00    +0.000 C 
BRANCH  14  16
ATOM     15  C   UNL     1      49.352   3.348  17.314  0.00  0.00    +0.000 C 
ATOM     16  C   UNL     1      48.396   4.421  16.894  0.00  0.00    +0.000 C 
BRANCH  16  17
ATOM     17  C   UNL     1      48.213   5.611  17.738  0.00  0.00    +0.000 A 
ATOM     18  C   UNL     1      47.363   5.584  18.851  0.00  0.00    +0.000 A 
ATOM     19  C   UNL     1      47.244   6.704  19.677  0.00  0.00    +0.000 A 
ATOM     20  C   UNL     1      47.978   7.856  19.402  0.00  0.00    +0.000 A 
ATOM     21  C   UNL     1      48.819   7.897  18.293  0.00  0.00    +0.000 A 
ATOM     22  C   UNL     1      48.929   6.783  17.461  0.00  0.00    +0.000 A 
ENDBRANCH  16  17
ENDBRANCH  14  16
ENDBRANCH   1  14
TORSDOF 4
ENDMDL
MODEL 9
REMARK VINA RESULT:    -5.659      3.975      6.235
REMARK INTER + INTRA:          -7.584
REMARK INTER:                  -7.061
REMARK INTRA:                  -0.524
REMARK UNBOUND:                -0.601
REMARK  Name = 
REMARK  5 active torsions:
REMARK  status: ('A' for Active; 'I' for Inactive)
REMARK    1  A    between atoms: C_1  and  C_2
REMARK    2  A    between atoms: C_2  and  C_3
REMARK    3  A    between atoms: C_2  and  C_14
REMARK    4  A    between atoms: C_3  and  N_4
REMARK    5  A    between atoms: C_8  and  C_9
REMARK                            x       y       z     vdW  Elec       q    Type
REMARK                         _______ _______ _______ _____ _____    ______ ____
ROOT
ATOM      1  N   UNL     1      47.329   7.184  13.915  0.00  0.00    +0.000 N 
ATOM      2  C   UNL     1      46.477   6.214  13.377  0.00  0.00    +0.000 A 
ATOM      3  C   UNL     1      45.228   6.613  12.904  0.00  0.00    +0.000 A 
ATOM      4  C   UNL     1      44.360   5.663  12.368  0.00  0.00    +0.000 A 
ATOM      5  C   UNL     1      44.751   4.325  12.309  0.00  0.00    +0.000 A 
ATOM      6  C   UNL     1      46.002   4.014  12.813  0.00  0.00    +0.000 A 
ATOM      7  N   UNL     1      46.858   4.921  13.347  0.00  0.00    +0.000 NA
ATOM      8  H   UNL     1      47.458   7.924  13.229  0.00  0.00    +0.000 HD
ENDROOT
BRANCH   5   9
ATOM      9  C   UNL     1      43.834   3.323  11.721  0.00  0.00    +0.000 C 
ATOM     10  N   UNL     1      43.619   2.148  12.387  0.00  0.00    +0.000 N 
ATOM     11  O   UNL     1      43.274   3.528  10.652  0.00  0.00    +0.000 OA
ATOM     12  H   UNL     1      44.038   1.870  13.262  0.00  0.00    +0.000 HD
ATOM     13  H   UNL     1      42.990   1.489  11.945  0.00  0.00    +0.000 HD
ENDBRANCH   5   9
BRANCH   1  14
ATOM     14  C   UNL     1      48.614   6.661  14.367  0.00  0.00    +0.000 C 
BRANCH  14  16
ATOM     15  C   UNL     1      49.033   7.959  16.545  0.00  0.00    +0.000 C 
ATOM     16  C   UNL     1      48.596   6.698  15.866  0.00  0.00    +0.000 C 
BRANCH  16  17
ATOM     17  C   UNL     1      48.635   5.421  16.594  0.00  0.00    +0.000 A 
ATOM     18  C   UNL     1      49.794   5.006  17.262  0.00  0.00    +0.000 A 
ATOM     19  C   UNL     1      49.799   3.819  17.998  0.00  0.00    +0.000 A 
ATOM     20  C   UNL     1      48.644   3.042  18.079  0.00  0.00    +0.000 A 
ATOM     21  C   UNL     1      47.489   3.442  17.412  0.00  0.00    +0.000 A 
ATOM     22  C   UNL     1      47.488   4.621  16.667  0.00  0.00    +0.000 A 
ENDBRANCH  16  17
ENDBRANCH  14  16
ENDBRANCH   1  14
TORSDOF 4
ENDMDL
