MODEL 1
REMARK VINA RESULT:    -7.010      0.000      0.000
REMARK INTER + INTRA:         -10.980
REMARK INTER:                 -10.083
REMARK INTRA:                  -0.897
REMARK UNBOUND:                -0.897
REMARK  Name = 
REMARK  11 active torsions:
REMARK  status: ('A' for Active; 'I' for Inactive)
REMARK    1  A    between atoms: C_1  and  C_2
REMARK    2  A    between atoms: C_2  and  C_3
REMARK    3  A    between atoms: C_2  and  C_4
REMARK    4  A    between atoms: C_2  and  C_5
REMARK    5  A    between atoms: C_8  and  C_9
REMARK    6  A    between atoms: C_9  and  N_10
REMARK    7  A    between atoms: C_16  and  C_17
REMARK    8  A    between atoms: N_19  and  C_20
REMARK    9  A    between atoms: C_20  and  C_21
REMARK   10  A    between atoms: C_21  and  C_22
REMARK   11  A    between atoms: C_22  and  N_23
REMARK                            x       y       z     vdW  Elec       q    Type
REMARK                         _______ _______ _______ _____ _____    ______ ____
ROOT
ATOM      1  N   UNL     1      44.293   6.446  11.382  0.00  0.00    +0.000 N 
ATOM      2  C   UNL     1      43.448   7.411  10.883  0.00  0.00    +0.000 A 
ATOM      3  C   UNL     1      43.922   8.640  11.272  0.00  0.00    +0.000 A 
ATOM      4  C   UNL     1      45.083   8.425  12.064  0.00  0.00    +0.000 A 
ATOM      5  C   UNL     1      45.946   9.285  12.771  0.00  0.00    +0.000 A 
ATOM      6  C   UNL     1      47.008   8.747  13.516  0.00  0.00    +0.000 A 
ATOM      7  C   UNL     1      47.231   7.369  13.539  0.00  0.00    +0.000 A 
ATOM      8  C   UNL     1      46.383   6.499  12.830  0.00  0.00    +0.000 A 
ATOM      9  C   UNL     1      45.308   7.046  12.106  0.00  0.00    +0.000 A 
ENDROOT
BRANCH   7  10
ATOM     10  C   UNL     1      48.312   6.757  14.364  0.00  0.00    +0.000 C 
ATOM     11  O   UNL     1      49.432   6.611  13.881  0.00  0.00    +0.000 OA
ATOM     12  N   UNL     1      47.997   6.381  15.655  0.00  0.00    +0.000 N 
ATOM     13  H   UNL     1      47.087   6.610  16.037  0.00  0.00    +0.000 HD
BRANCH  12  14
ATOM     14  C   UNL     1      48.976   5.781  16.537  0.00  0.00    +0.000 C 
BRANCH  14  15
ATOM     15  C   UNL     1      48.583   4.367  16.963  0.00  0.00    +0.000 C 
BRANCH  15  16
ATOM     16  C   UNL     1      47.072   4.231  17.151  0.00  0.00    +0.000 C 
BRANCH  16  17
ATOM     17  N   UNL     1      46.734   2.897  17.641  0.00  0.00    +0.000 NA
ATOM     18  H   UNL     1      46.534   2.285  16.852  0.00  0.00    +0.000 HD
ATOM     19  H   UNL     1      45.868   2.956  18.177  0.00  0.00    +0.000 HD
ENDBRANCH  16  17
ENDBRANCH  15  16
ENDBRANCH  14  15
ENDBRANCH  12  14
ENDBRANCH   7  10
BRANCH   1  20
ATOM     20  C   UNL     1      44.019   5.013  11.319  0.00  0.00    +0.000 C 
BRANCH  20  24
ATOM     21  C   UNL     1      46.043   2.892   8.182  0.00  0.00    +0.000 A 
ATOM     22  C   UNL     1      46.145   4.287   8.262  0.00  0.00    +0.000 A 
ATOM     23  C   UNL     1      45.530   4.991   9.295  0.00  0.00    +0.000 A 
ATOM     24  C   UNL     1      44.794   4.293  10.244  0.00  0.00    +0.000 A 
ATOM     25  N   UNL     1      44.659   2.946  10.186  0.00  0.00    +0.000 NA
ATOM     26  C   UNL     1      45.286   2.285   9.178  0.00  0.00    +0.000 A 
BRANCH  21  28
ATOM     27  C   UNL     1      45.988   2.303   5.761  0.00  0.00    +0.000 C 
ATOM     28  C   UNL     1      46.776   2.127   7.077  0.00  0.00    +0.000 C 
ATOM     29  C   UNL     1      46.853   0.625   7.428  0.00  0.00    +0.000 C 
ATOM     30  C   UNL     1      48.219   2.616   6.829  0.00  0.00    +0.000 C 
ENDBRANCH  21  28
ENDBRANCH  20  24
ENDBRANCH   1  20
TORSDOF 8
ENDMDL
MODEL 2
REMARK VINA RESULT:    -6.255      3.969      5.888
REMARK INTER + INTRA:          -9.894
REMARK INTER:                  -8.551
REMARK INTRA:                  -1.343
REMARK UNBOUND:                -0.897
REMARK  Name = 
REMARK  11 active torsions:
REMARK  status: ('A' for Active; 'I' for Inactive)
REMARK    1  A    between atoms: C_1  and  C_2
REMARK    2  A    between atoms: C_2  and  C_3
REMARK    3  A    between atoms: C_2  and  C_4
REMARK    4  A    between atoms: C_2  and  C_5
REMARK    5  A    between atoms: C_8  and  C_9
REMARK    6  A    between atoms: C_9  and  N_10
REMARK    7  A    between atoms: C_16  and  C_17
REMARK    8  A    between atoms: N_19  and  C_20
REMARK    9  A    between atoms: C_20  and  C_21
REMARK   10  A    between atoms: C_21  and  C_22
REMARK   11  A    between atoms: C_22  and  N_23
REMARK                            x       y       z     vdW  Elec       q    Type
REMARK                         _______ _______ _______ _____ _____    ______ ____
ROOT
ATOM      1  N   UNL     1      47.195   8.666  13.015  0.00  0.00    +0.000 N 
ATOM      2  C   UNL     1      46.386   9.331  12.122  0.00  0.00    +0.000 A 
ATOM      3  C   UNL     1      45.328   8.513  11.808  0.00  0.00    +0.000 A 
ATOM      4  C   UNL     1      45.506   7.288  12.507  0.00  0.00    +0.000 A 
ATOM      5  C   UNL     1      44.790   6.075  12.535  0.00  0.00    +0.000 A 
ATOM      6  C   UNL     1      45.260   5.006  13.314  0.00  0.00    +0.000 A 
ATOM      7  C   UNL     1      46.417   5.145  14.083  0.00  0.00    +0.000 A 
ATOM      8  C   UNL     1      47.138   6.354  14.073  0.00  0.00    +0.000 A 
ATOM      9  C   UNL     1      46.672   7.410  13.270  0.00  0.00    +0.000 A 
ENDROOT
BRANCH   7  10
ATOM     10  C   UNL     1      46.980   4.015  14.878  0.00  0.00    +0.000 C 
ATOM     11  O   UNL     1      47.431   3.033  14.294  0.00  0.00    +0.000 OA
ATOM     12  N   UNL     1      46.970   4.132  16.254  0.00  0.00    +0.000 N 
ATOM     13  H   UNL     1      46.675   5.002  16.681  0.00  0.00    +0.000 HD
BRANCH  12  14
ATOM     14  C   UNL     1      47.494   3.092  17.113  0.00  0.00    +0.000 C 
BRANCH  14  15
ATOM     15  C   UNL     1      48.836   3.476  17.735  0.00  0.00    +0.000 C 
BRANCH  15  16
ATOM     16  C   UNL     1      49.978   2.614  17.198  0.00  0.00    +0.000 C 
BRANCH  16  17
ATOM     17  N   UNL     1      49.518   1.789  16.084  0.00  0.00    +0.000 NA
ATOM     18  H   UNL     1      48.634   2.154  15.733  0.00  0.00    +0.000 HD
ATOM     19  H   UNL     1      49.315   0.852  16.434  0.00  0.00    +0.000 HD
ENDBRANCH  16  17
ENDBRANCH  15  16
ENDBRANCH  14  15
ENDBRANCH  12  14
ENDBRANCH   7  10
BRANCH   1  20
ATOM     20  C   UNL     1      48.504   9.150  13.445  0.00  0.00    +0.000 C 
BRANCH  20  24
ATOM     21  C   UNL     1      51.749   8.592  10.690  0.00  0.00    +0.000 A 
ATOM     22  C   UNL     1      50.871   7.534  10.961  0.00  0.00    +0.000 A 
ATOM     23  C   UNL     1      49.788   7.705  11.819  0.00  0.00    +0.000 A 
ATOM     24  C   UNL     1      49.593   8.940  12.425  0.00  0.00    +0.000 A 
ATOM     25  N   UNL     1      50.435   9.979  12.201  0.00  0.00    +0.000 NA
ATOM     26  C   UNL     1      51.471   9.787  11.344  0.00  0.00    +0.000 A 
BRANCH  21  28
ATOM     27  C   UNL     1      54.226   8.410  10.484  0.00  0.00    +0.000 C 
ATOM     28  C   UNL     1      52.899   8.406   9.696  0.00  0.00    +0.000 C 
ATOM     29  C   UNL     1      52.910   9.561   8.671  0.00  0.00    +0.000 C 
ATOM     30  C   UNL     1      52.829   7.086   8.900  0.00  0.00    +0.000 C 
ENDBRANCH  21  28
ENDBRANCH  20  24
ENDBRANCH   1  20
TORSDOF 8
ENDMDL
MODEL 3
REMARK VINA RESULT:    -6.084      2.050      8.121
REMARK INTER + INTRA:          -9.649
REMARK INTER:                  -8.556
REMARK INTRA:                  -1.093
REMARK UNBOUND:                -0.897
REMARK  Name = 
REMARK  11 active torsions:
REMARK  status: ('A' for Active; 'I' for Inactive)
REMARK    1  A    between atoms: C_1  and  C_2
REMARK    2  A    between atoms: C_2  and  C_3
REMARK    3  A    between atoms: C_2  and  C_4
REMARK    4  A    between atoms: C_2  and  C_5
REMARK    5  A    between atoms: C_8  and  C_9
REMARK    6  A    between atoms: C_9  and  N_10
REMARK    7  A    between atoms: C_16  and  C_17
REMARK    8  A    between atoms: N_19  and  C_20
REMARK    9  A    between atoms: C_20  and  C_21
REMARK   10  A    between atoms: C_21  and  C_22
REMARK   11  A    between atoms: C_22  and  N_23
REMARK                            x       y       z     vdW  Elec       q    Type
REMARK                         _______ _______ _______ _____ _____    ______ ____
ROOT
ATOM      1  N   UNL     1      47.972   8.221  13.344  0.00  0.00    +0.000 N 
ATOM      2  C   UNL     1      47.889   9.591  13.229  0.00  0.00    +0.000 A 
ATOM      3  C   UNL     1      46.727   9.896  12.564  0.00  0.00    +0.000 A 
ATOM      4  C   UNL     1      46.085   8.672  12.230  0.00  0.00    +0.000 A 
ATOM      5  C   UNL     1      44.915   8.356  11.511  0.00  0.00    +0.000 A 
ATOM      6  C   UNL     1      44.563   7.013  11.309  0.00  0.00    +0.000 A 
ATOM      7  C   UNL     1      45.350   5.988  11.838  0.00  0.00    +0.000 A 
ATOM      8  C   UNL     1      46.516   6.287  12.566  0.00  0.00    +0.000 A 
ATOM      9  C   UNL     1      46.872   7.637  12.742  0.00  0.00    +0.000 A 
ENDROOT
BRANCH   7  10
ATOM     10  C   UNL     1      45.041   4.548  11.595  0.00  0.00    +0.000 C 
ATOM     11  O   UNL     1      44.981   3.774  12.547  0.00  0.00    +0.000 OA
ATOM     12  N   UNL     1      44.829   4.150  10.290  0.00  0.00    +0.000 N 
ATOM     13  H   UNL     1      44.794   4.844   9.553  0.00  0.00    +0.000 HD
BRANCH  12  14
ATOM     14  C   UNL     1      44.520   2.777   9.950  0.00  0.00    +0.000 C 
BRANCH  14  15
ATOM     15  C   UNL     1      45.280   2.301   8.713  0.00  0.00    +0.000 C 
BRANCH  15  16
ATOM     16  C   UNL     1      45.243   3.338   7.591  0.00  0.00    +0.000 C 
BRANCH  16  17
ATOM     17  N   UNL     1      46.441   4.174   7.625  0.00  0.00    +0.000 NA
ATOM     18  H   UNL     1      46.970   4.044   6.764  0.00  0.00    +0.000 HD
ATOM     19  H   UNL     1      47.046   3.845   8.378  0.00  0.00    +0.000 HD
ENDBRANCH  16  17
ENDBRANCH  15  16
ENDBRANCH  14  15
ENDBRANCH  12  14
ENDBRANCH   7  10
BRANCH   1  20
ATOM     20  C   UNL     1      49.150   7.516  13.841  0.00  0.00    +0.000 C 
BRANCH  20  24
ATOM     21  C   UNL     1      48.903   5.988  17.845  0.00  0.00    +0.000 A 
ATOM     22  C   UNL     1      49.338   7.300  17.623  0.00  0.00    +0.000 A 
ATOM     23  C   UNL     1      49.388   7.830  16.337  0.00  0.00    +0.000 A 
ATOM     24  C   UNL     1      49.013   7.032  15.262  0.00  0.00    +0.000 A 
ATOM     25  N   UNL     1      48.606   5.752  15.440  0.00  0.00    +0.000 NA
ATOM     26  C   UNL     1      48.550   5.270  16.708  0.00  0.00    +0.000 A 
BRANCH  21  28
ATOM     27  C   UNL     1      48.675   3.903  19.192  0.00  0.00    +0.000 C 
ATOM     28  C   UNL     1      48.795   5.440  19.272  0.00  0.00    +0.000 C 
ATOM     29  C   UNL     1      47.543   6.015  19.971  0.00  0.00    +0.000 C 
ATOM     30  C   UNL     1      50.012   5.771  20.161  0.00  0.00    +0.000 C 
ENDBRANCH  21  28
ENDBRANCH  20  24
ENDBRANCH   1  20
TORSDOF 8
ENDMDL
MODEL 4
REMARK VINA RESULT:    -6.009      3.807      7.109
REMARK INTER + INTRA:          -9.540
REMARK INTER:                  -8.215
REMARK INTRA:                  -1.325
REMARK UNBOUND:                -0.897
REMARK  Name = 
REMARK  11 active torsions:
REMARK  status: ('A' for Active; 'I' for Inactive)
REMARK    1  A    between atoms: C_1  and  C_2
REMARK    2  A    between atoms: C_2  and  C_3
REMARK    3  A    between atoms: C_2  and  C_4
REMARK    4  A    between atoms: C_2  and  C_5
REMARK    5  A    between atoms: C_8  and  C_9
REMARK    6  A    between atoms: C_9  and  N_10
REMARK    7  A    between atoms: C_16  and  C_17
REMARK    8  A    between atoms: N_19  and  C_20
REMARK    9  A    between atoms: C_20  and  C_21
REMARK   10  A    between atoms: C_21  and  C_22
REMARK   11  A    between atoms: C_22  and  N_23
REMARK                            x       y       z     vdW  Elec       q    Type
REMARK                         _______ _______ _______ _____ _____    ______ ____
ROOT
ATOM      1  N   UNL     1      49.426   7.752  15.108  0.00  0.00    +0.000 N 
ATOM      2  C   UNL     1      50.028   7.804  16.345  0.00  0.00    +0.000 A 
ATOM      3  C   UNL     1      49.627   6.705  17.065  0.00  0.00    +0.000 A 
ATOM      4  C   UNL     1      48.722   5.965  16.256  0.00  0.00    +0.000 A 
ATOM      5  C   UNL     1      47.956   4.802  16.474  0.00  0.00    +0.000 A 
ATOM      6  C   UNL     1      47.100   4.334  15.466  0.00  0.00    +0.000 A 
ATOM      7  C   UNL     1      47.021   4.996  14.239  0.00  0.00    +0.000 A 
ATOM      8  C   UNL     1      47.785   6.153  14.003  0.00  0.00    +0.000 A 
ATOM      9  C   UNL     1      48.623   6.628  15.030  0.00  0.00    +0.000 A 
ENDROOT
BRANCH   7  10
ATOM     10  C   UNL     1      46.079   4.563  13.165  0.00  0.00    +0.000 C 
ATOM     11  O   UNL     1      45.526   3.470  13.253  0.00  0.00    +0.000 OA
ATOM     12  N   UNL     1      45.870   5.428  12.110  0.00  0.00    +0.000 N 
ATOM     13  H   UNL     1      46.276   6.355  12.133  0.00  0.00    +0.000 HD
BRANCH  12  14
ATOM     14  C   UNL     1      44.974   5.102  11.020  0.00  0.00    +0.000 C 
BRANCH  14  15
ATOM     15  C   UNL     1      43.662   5.880  11.096  0.00  0.00    +0.000 C 
BRANCH  15  16
ATOM     16  C   UNL     1      42.611   5.141  11.924  0.00  0.00    +0.000 C 
BRANCH  16  17
ATOM     17  N   UNL     1      42.805   5.401  13.349  0.00  0.00    +0.000 NA
ATOM     18  H   UNL     1      42.554   6.367  13.555  0.00  0.00    +0.000 HD
ATOM     19  H   UNL     1      43.799   5.319  13.563  0.00  0.00    +0.000 HD
ENDBRANCH  16  17
ENDBRANCH  15  16
ENDBRANCH  14  15
ENDBRANCH  12  14
ENDBRANCH   7  10
BRANCH   1  20
ATOM     20  C   UNL     1      49.478   8.836  14.131  0.00  0.00    +0.000 C 
BRANCH  20  24
ATOM     21  C   UNL     1      52.229   7.929  10.962  0.00  0.00    +0.000 A 
ATOM     22  C   UNL     1      50.859   7.691  10.789  0.00  0.00    +0.000 A 
ATOM     23  C   UNL     1      49.945   8.015  11.788  0.00  0.00    +0.000 A 
ATOM     24  C   UNL     1      50.409   8.567  12.976  0.00  0.00    +0.000 A 
ATOM     25  N   UNL     1      51.729   8.792  13.184  0.00  0.00    +0.000 NA
ATOM     26  C   UNL     1      52.594   8.484  12.184  0.00  0.00    +0.000 A 
BRANCH  21  28
ATOM     27  C   UNL     1      54.291   6.660  10.373  0.00  0.00    +0.000 C 
ATOM     28  C   UNL     1      53.215   7.624   9.830  0.00  0.00    +0.000 C 
ATOM     29  C   UNL     1      53.891   8.926   9.347  0.00  0.00    +0.000 C 
ATOM     30  C   UNL     1      52.565   6.958   8.598  0.00  0.00    +0.000 C 
ENDBRANCH  21  28
ENDBRANCH  20  24
ENDBRANCH   1  20
TORSDOF 8
ENDMDL
MODEL 5
REMARK VINA RESULT:    -5.946      3.224      8.096
REMARK INTER + INTRA:          -9.451
REMARK INTER:                  -8.177
REMARK INTRA:                  -1.274
REMARK UNBOUND:                -0.897
REMARK  Name = 
REMARK  11 active torsions:
REMARK  status: ('A' for Active; 'I' for Inactive)
REMARK    1  A    between atoms: C_1  and  C_2
REMARK    2  A    between atoms: C_2  and  C_3
REMARK    3  A    between atoms: C_2  and  C_4
REMARK    4  A    between atoms: C_2  and  C_5
REMARK    5  A    between atoms: C_8  and  C_9
REMARK    6  A    between atoms: C_9  and  N_10
REMARK    7  A    between atoms: C_16  and  C_17
REMARK    8  A    between atoms: N_19  and  C_20
REMARK    9  A    between atoms: C_20  and  C_21
REMARK   10  A    between atoms: C_21  and  C_22
REMARK   11  A    between atoms: C_22  and  N_23
REMARK                            x       y       z     vdW  Elec       q    Type
REMARK                         _______ _______ _______ _____ _____    ______ ____
ROOT
ATOM      1  N   UNL     1      49.362   8.859  13.827  0.00  0.00    +0.000 N 
ATOM      2  C   UNL     1      49.728  10.128  13.438  0.00  0.00    +0.000 A 
ATOM      3  C   UNL     1      48.671  10.692  12.764  0.00  0.00    +0.000 A 
ATOM      4  C   UNL     1      47.628   9.727  12.710  0.00  0.00    +0.000 A 
ATOM      5  C   UNL     1      46.353   9.712  12.112  0.00  0.00    +0.000 A 
ATOM      6  C   UNL     1      45.556   8.561  12.200  0.00  0.00    +0.000 A 
ATOM      7  C   UNL     1      46.006   7.439  12.900  0.00  0.00    +0.000 A 
ATOM      8  C   UNL     1      47.274   7.442  13.510  0.00  0.00    +0.000 A 
ATOM      9  C   UNL     1      48.075   8.593  13.395  0.00  0.00    +0.000 A 
ENDROOT
BRANCH   7  10
ATOM     10  C   UNL     1      45.213   6.177  12.966  0.00  0.00    +0.000 C 
ATOM     11  O   UNL     1      45.779   5.123  13.243  0.00  0.00    +0.000 OA
ATOM     12  N   UNL     1      43.858   6.259  12.714  0.00  0.00    +0.000 N 
ATOM     13  H   UNL     1      43.425   7.165  12.586  0.00  0.00    +0.000 HD
BRANCH  12  14
ATOM     14  C   UNL     1      43.001   5.093  12.757  0.00  0.00    +0.000 C 
BRANCH  14  15
ATOM     15  C   UNL     1      42.854   4.431  11.388  0.00  0.00    +0.000 C 
BRANCH  15  16
ATOM     16  C   UNL     1      43.472   3.033  11.364  0.00  0.00    +0.000 C 
BRANCH  16  17
ATOM     17  N   UNL     1      44.151   2.751  12.626  0.00  0.00    +0.000 NA
ATOM     18  H   UNL     1      44.210   1.743  12.763  0.00  0.00    +0.000 HD
ATOM     19  H   UNL     1      43.576   3.104  13.392  0.00  0.00    +0.000 HD
ENDBRANCH  16  17
ENDBRANCH  15  16
ENDBRANCH  14  15
ENDBRANCH  12  14
ENDBRANCH   7  10
BRANCH   1  20
ATOM     20  C   UNL     1      50.283   7.891  14.416  0.00  0.00    +0.000 C 
BRANCH  20  24
ATOM     21  C   UNL     1      49.181   6.272  18.236  0.00  0.00    +0.000 A 
ATOM     22  C   UNL     1      49.487   7.634  18.115  0.00  0.00    +0.000 A 
ATOM     23  C   UNL     1      49.807   8.188  16.879  0.00  0.00    +0.000 A 
ATOM     24  C   UNL     1      49.838   7.368  15.757  0.00  0.00    +0.000 A 
ATOM     25  N   UNL     1      49.566   6.043  15.842  0.00  0.00    +0.000 NA
ATOM     26  C   UNL     1      49.238   5.535  17.058  0.00  0.00    +0.000 A 
BRANCH  21  28
ATOM     27  C   UNL     1      48.791   4.151  19.484  0.00  0.00    +0.000 C 
ATOM     28  C   UNL     1      48.770   5.690  19.592  0.00  0.00    +0.000 C 
ATOM     29  C   UNL     1      47.346   6.158  19.964  0.00  0.00    +0.000 C 
ATOM     30  C   UNL     1      49.704   6.092  20.753  0.00  0.00    +0.000 C 
ENDBRANCH  21  28
ENDBRANCH  20  24
ENDBRANCH   1  20
TORSDOF 8
ENDMDL
MODEL 6
REMARK VINA RESULT:    -5.783      4.227      6.701
REMARK INTER + INTRA:          -9.215
REMARK INTER:                  -7.890
REMARK INTRA:                  -1.325
REMARK UNBOUND:                -0.897
REMARK  Name = 
REMARK  11 active torsions:
REMARK  status: ('A' for Active; 'I' for Inactive)
REMARK    1  A    between atoms: C_1  and  C_2
REMARK    2  A    between atoms: C_2  and  C_3
REMARK    3  A    between atoms: C_2  and  C_4
REMARK    4  A    between atoms: C_2  and  C_5
REMARK    5  A    between atoms: C_8  and  C_9
REMARK    6  A    between atoms: C_9  and  N_10
REMARK    7  A    between atoms: C_16  and  C_17
REMARK    8  A    between atoms: N_19  and  C_20
REMARK    9  A    between atoms: C_20  and  C_21
REMARK   10  A    between atoms: C_21  and  C_22
REMARK   11  A    between atoms: C_22  and  N_23
REMARK                            x       y       z     vdW  Elec       q    Type
REMARK                         _______ _______ _______ _____ _____    ______ ____
ROOT
ATOM      1  N   UNL     1      49.069   9.620  13.033  0.00  0.00    +0.000 N 
ATOM      2  C   UNL     1      49.197  10.908  12.564  0.00  0.00    +0.000 A 
ATOM      3  C   UNL     1      47.982  11.305  12.060  0.00  0.00    +0.000 A 
ATOM      4  C   UNL     1      47.080  10.213  12.196  0.00  0.00    +0.000 A 
ATOM      5  C   UNL     1      45.740  10.011  11.814  0.00  0.00    +0.000 A 
ATOM      6  C   UNL     1      45.126   8.772  12.055  0.00  0.00    +0.000 A 
ATOM      7  C   UNL     1      45.827   7.747  12.694  0.00  0.00    +0.000 A 
ATOM      8  C   UNL     1      47.164   7.937  13.090  0.00  0.00    +0.000 A 
ATOM      9  C   UNL     1      47.776   9.175  12.822  0.00  0.00    +0.000 A 
ENDROOT
BRANCH   7  10
ATOM     10  C   UNL     1      45.229   6.398  12.915  0.00  0.00    +0.000 C 
ATOM     11  O   UNL     1      45.953   5.463  13.245  0.00  0.00    +0.000 OA
ATOM     12  N   UNL     1      43.865   6.265  12.738  0.00  0.00    +0.000 N 
ATOM     13  H   UNL     1      43.300   7.086  12.560  0.00  0.00    +0.000 HD
BRANCH  12  14
ATOM     14  C   UNL     1      43.190   5.000  12.931  0.00  0.00    +0.000 C 
BRANCH  14  15
ATOM     15  C   UNL     1      42.866   4.308  11.608  0.00  0.00    +0.000 C 
BRANCH  15  16
ATOM     16  C   UNL     1      43.678   3.028  11.423  0.00  0.00    +0.000 C 
BRANCH  16  17
ATOM     17  N   UNL     1      44.591   2.833  12.547  0.00  0.00    +0.000 NA
ATOM     18  H   UNL     1      44.144   3.147  13.406  0.00  0.00    +0.000 HD
ATOM     19  H   UNL     1      45.403   3.437  12.416  0.00  0.00    +0.000 HD
ENDBRANCH  16  17
ENDBRANCH  15  16
ENDBRANCH  14  15
ENDBRANCH  12  14
ENDBRANCH   7  10
BRANCH   1  20
ATOM     20  C   UNL     1      50.192   8.803  13.484  0.00  0.00    +0.000 C 
BRANCH  20  24
ATOM     21  C   UNL     1      52.965   7.525  10.467  0.00  0.00    +0.000 A 
ATOM     22  C   UNL     1      51.592   7.305  10.294  0.00  0.00    +0.000 A 
ATOM     23  C   UNL     1      50.672   7.747  11.240  0.00  0.00    +0.000 A 
ATOM     24  C   UNL     1      51.132   8.400  12.377  0.00  0.00    +0.000 A 
ATOM     25  N   UNL     1      52.455   8.612  12.585  0.00  0.00    +0.000 NA
ATOM     26  C   UNL     1      53.326   8.186  11.635  0.00  0.00    +0.000 A 
BRANCH  21  28
ATOM     27  C   UNL     1      55.387   7.237   9.955  0.00  0.00    +0.000 C 
ATOM     28  C   UNL     1      53.959   7.087   9.387  0.00  0.00    +0.000 C 
ATOM     29  C   UNL     1      53.812   7.977   8.133  0.00  0.00    +0.000 C 
ATOM     30  C   UNL     1      53.786   5.622   8.935  0.00  0.00    +0.000 C 
ENDBRANCH  21  28
ENDBRANCH  20  24
ENDBRANCH   1  20
TORSDOF 8
ENDMDL
MODEL 7
REMARK VINA RESULT:    -5.376      3.904      7.827
REMARK INTER + INTRA:          -8.631
REMARK INTER:                  -7.604
REMARK INTRA:                  -1.026
REMARK UNBOUND:                -0.897
REMARK  Name = 
REMARK  11 active torsions:
REMARK  status: ('A' for Active; 'I' for Inactive)
REMARK    1  A    between atoms: C_1  and  C_2
REMARK    2  A    between atoms: C_2  and  C_3
REMARK    3  A    between atoms: C_2  and  C_4
REMARK    4  A    between atoms: C_2  and  C_5
REMARK    5  A    between atoms: C_8  and  C_9
REMARK    6  A    between atoms: C_9  and  N_10
REMARK    7  A    between atoms: C_16  and  C_17
REMARK    8  A    between atoms: N_19  and  C_20
REMARK    9  A    between atoms: C_20  and  C_21
REMARK   10  A    between atoms: C_21  and  C_22
REMARK   11  A    between atoms: C_22  and  N_23
REMARK                            x       y       z     vdW  Elec       q    Type
REMARK                         _______ _______ _______ _____ _____    ______ ____
ROOT
ATOM      1  N   UNL     1      46.395   4.854  13.588  0.00  0.00    +0.000 N 
ATOM      2  C   UNL     1      45.026   4.723  13.526  0.00  0.00    +0.000 A 
ATOM      3  C   UNL     1      44.514   5.846  12.924  0.00  0.00    +0.000 A 
ATOM      4  C   UNL     1      45.601   6.715  12.632  0.00  0.00    +0.000 A 
ATOM      5  C   UNL     1      45.687   8.008  12.080  0.00  0.00    +0.000 A 
ATOM      6  C   UNL     1      46.938   8.632  11.959  0.00  0.00    +0.000 A 
ATOM      7  C   UNL     1      48.101   7.970  12.357  0.00  0.00    +0.000 A 
ATOM      8  C   UNL     1      48.033   6.675  12.902  0.00  0.00    +0.000 A 
ATOM      9  C   UNL     1      46.771   6.068  13.040  0.00  0.00    +0.000 A 
ENDROOT
BRANCH   7  10
ATOM     10  C   UNL     1      49.442   8.622  12.299  0.00  0.00    +0.000 C 
ATOM     11  O   UNL     1      49.524   9.843  12.403  0.00  0.00    +0.000 OA
ATOM     12  N   UNL     1      50.544   7.807  12.132  0.00  0.00    +0.000 N 
ATOM     13  H   UNL     1      50.430   6.801  12.147  0.00  0.00    +0.000 HD
BRANCH  12  14
ATOM     14  C   UNL     1      51.887   8.342  12.065  0.00  0.00    +0.000 C 
BRANCH  14  15
ATOM     15  C   UNL     1      52.376   8.503  10.627  0.00  0.00    +0.000 C 
BRANCH  15  16
ATOM     16  C   UNL     1      52.218   7.212   9.825  0.00  0.00    +0.000 C 
BRANCH  16  17
ATOM     17  N   UNL     1      52.928   6.114  10.477  0.00  0.00    +0.000 NA
ATOM     18  H   UNL     1      52.429   5.840  11.322  0.00  0.00    +0.000 HD
ATOM     19  H   UNL     1      53.839   6.454  10.787  0.00  0.00    +0.000 HD
ENDBRANCH  16  17
ENDBRANCH  15  16
ENDBRANCH  14  15
ENDBRANCH  12  14
ENDBRANCH   7  10
BRANCH   1  20
ATOM     20  C   UNL     1      47.269   3.936  14.315  0.00  0.00    +0.000 C 
BRANCH  20  24
ATOM     21  C   UNL     1      48.315   5.514  18.167  0.00  0.00    +0.000 A 
ATOM     22  C   UNL     1      47.212   4.661  18.037  0.00  0.00    +0.000 A 
ATOM     23  C   UNL     1      46.879   4.105  16.805  0.00  0.00    +0.000 A 
ATOM     24  C   UNL     1      47.647   4.421  15.691  0.00  0.00    +0.000 A 
ATOM     25  N   UNL     1      48.709   5.258  15.778  0.00  0.00    +0.000 NA
ATOM     26  C   UNL     1      49.021   5.769  16.997  0.00  0.00    +0.000 A 
BRANCH  21  28
ATOM     27  C   UNL     1      47.449   6.070  20.437  0.00  0.00    +0.000 C 
ATOM     28  C   UNL     1      48.706   6.068  19.541  0.00  0.00    +0.000 C 
ATOM     29  C   UNL     1      49.238   7.512  19.403  0.00  0.00    +0.000 C 
ATOM     30  C   UNL     1      49.794   5.243  20.260  0.00  0.00    +0.000 C 
ENDBRANCH  21  28
ENDBRANCH  20  24
ENDBRANCH   1  20
TORSDOF 8
ENDMDL
MODEL 8
REMARK VINA RESULT:    -5.334      3.851      7.328
REMARK INTER + INTRA:          -8.570
REMARK INTER:                  -7.189
REMARK INTRA:                  -1.382
REMARK UNBOUND:                -0.897
REMARK  Name = 
REMARK  11 active torsions:
REMARK  status: ('A' for Active; 'I' for Inactive)
REMARK    1  A    between atoms: C_1  and  C_2
REMARK    2  A    between atoms: C_2  and  C_3
REMARK    3  A    between atoms: C_2  and  C_4
REMARK    4  A    between atoms: C_2  and  C_5
REMARK    5  A    between atoms: C_8  and  C_9
REMARK    6  A    between atoms: C_9  and  N_10
REMARK    7  A    between atoms: C_16  and  C_17
REMARK    8  A    between atoms: N_19  and  C_20
REMARK    9  A    between atoms: C_20  and  C_21
REMARK   10  A    between atoms: C_21  and  C_22
REMARK   11  A    between atoms: C_22  and  N_23
REMARK                            x       y       z     vdW  Elec       q    Type
REMARK                         _______ _______ _______ _____ _____    ______ ____
ROOT
ATOM      1  N   UNL     1      46.036   4.841  13.427  0.00  0.00    +0.000 N 
ATOM      2  C   UNL     1      44.681   4.602  13.418  0.00  0.00    +0.000 A 
ATOM      3  C   UNL     1      44.058   5.683  12.843  0.00  0.00    +0.000 A 
ATOM      4  C   UNL     1      45.061   6.635  12.513  0.00  0.00    +0.000 A 
ATOM      5  C   UNL     1      45.023   7.933  11.965  0.00  0.00    +0.000 A 
ATOM      6  C   UNL     1      46.215   8.654  11.799  0.00  0.00    +0.000 A 
ATOM      7  C   UNL     1      47.442   8.084  12.147  0.00  0.00    +0.000 A 
ATOM      8  C   UNL     1      47.497   6.786  12.686  0.00  0.00    +0.000 A 
ATOM      9  C   UNL     1      46.294   6.082  12.872  0.00  0.00    +0.000 A 
ENDROOT
BRANCH   7  10
ATOM     10  C   UNL     1      48.724   8.840  12.039  0.00  0.00    +0.000 C 
ATOM     11  O   UNL     1      48.711   9.994  11.618  0.00  0.00    +0.000 OA
ATOM     12  N   UNL     1      49.882   8.196  12.428  0.00  0.00    +0.000 N 
ATOM     13  H   UNL     1      49.827   7.280  12.857  0.00  0.00    +0.000 HD
BRANCH  12  14
ATOM     14  C   UNL     1      51.175   8.844  12.364  0.00  0.00    +0.000 C 
BRANCH  14  15
ATOM     15  C   UNL     1      51.915   8.792  13.699  0.00  0.00    +0.000 C 
BRANCH  15  16
ATOM     16  C   UNL     1      51.153   7.971  14.739  0.00  0.00    +0.000 C 
BRANCH  16  17
ATOM     17  N   UNL     1      50.174   8.804  15.433  0.00  0.00    +0.000 NA
ATOM     18  H   UNL     1      49.731   9.435  14.767  0.00  0.00    +0.000 HD
ATOM     19  H   UNL     1      50.666   9.400  16.099  0.00  0.00    +0.000 HD
ENDBRANCH  16  17
ENDBRANCH  15  16
ENDBRANCH  14  15
ENDBRANCH  12  14
ENDBRANCH   7  10
BRANCH   1  20
ATOM     20  C   UNL     1      47.008   3.993  14.113  0.00  0.00    +0.000 C 
BRANCH  20  24
ATOM     21  C   UNL     1      48.055   5.146  18.114  0.00  0.00    +0.000 A 
ATOM     22  C   UNL     1      48.665   5.776  17.022  0.00  0.00    +0.000 A 
ATOM     23  C   UNL     1      48.311   5.447  15.716  0.00  0.00    +0.000 A 
ATOM     24  C   UNL     1      47.350   4.466  15.503  0.00  0.00    +0.000 A 
ATOM     25  N   UNL     1      46.755   3.822  16.536  0.00  0.00    +0.000 NA
ATOM     26  C   UNL     1      47.107   4.178  17.799  0.00  0.00    +0.000 A 
BRANCH  21  28
ATOM     27  C   UNL     1      49.544   6.608  19.476  0.00  0.00    +0.000 C 
ATOM     28  C   UNL     1      48.411   5.563  19.544  0.00  0.00    +0.000 C 
ATOM     29  C   UNL     1      48.893   4.338  20.353  0.00  0.00    +0.000 C 
ATOM     30  C   UNL     1      47.236   6.194  20.321  0.00  0.00    +0.000 C 
ENDBRANCH  21  28
ENDBRANCH  20  24
ENDBRANCH   1  20
TORSDOF 8
ENDMDL
MODEL 9
REMARK VINA RESULT:    -4.905      9.545     13.146
REMARK INTER + INTRA:          -7.953
REMARK INTER:                  -6.577
REMARK INTRA:                  -1.376
REMARK UNBOUND:                -0.897
REMARK  Name = 
REMARK  11 active torsions:
REMARK  status: ('A' for Active; 'I' for Inactive)
REMARK    1  A    between atoms: C_1  and  C_2
REMARK    2  A    between atoms: C_2  and  C_3
REMARK    3  A    between atoms: C_2  and  C_4
REMARK    4  A    between atoms: C_2  and  C_5
REMARK    5  A    between atoms: C_8  and  C_9
REMARK    6  A    between atoms: C_9  and  N_10
REMARK    7  A    between atoms: C_16  and  C_17
REMARK    8  A    between atoms: N_19  and  C_20
REMARK    9  A    between atoms: C_20  and  C_21
REMARK   10  A    between atoms: C_21  and  C_22
REMARK   11  A    between atoms: C_22  and  N_23
REMARK                            x       y       z     vdW  Elec       q    Type
REMARK                         _______ _______ _______ _____ _____    ______ ____
ROOT
ATOM      1  N   UNL     1      39.419  -3.301  16.807  0.00  0.00    +0.000 N 
ATOM      2  C   UNL     1      40.125  -4.114  17.665  0.00  0.00    +0.000 A 
ATOM      3  C   UNL     1      41.169  -4.671  16.967  0.00  0.00    +0.000 A 
ATOM      4  C   UNL     1      41.088  -4.209  15.625  0.00  0.00    +0.000 A 
ATOM      5  C   UNL     1      41.834  -4.478  14.461  0.00  0.00    +0.000 A 
ATOM      6  C   UNL     1      41.466  -3.884  13.244  0.00  0.00    +0.000 A 
ATOM      7  C   UNL     1      40.382  -3.006  13.185  0.00  0.00    +0.000 A 
ATOM      8  C   UNL     1      39.632  -2.720  14.341  0.00  0.00    +0.000 A 
ATOM      9  C   UNL     1      39.995  -3.340  15.550  0.00  0.00    +0.000 A 
ENDROOT
BRANCH   7  10
ATOM     10  C   UNL     1      39.924  -2.400  11.900  0.00  0.00    +0.000 C 
ATOM     11  O   UNL     1      40.714  -1.741  11.229  0.00  0.00    +0.000 OA
ATOM     12  N   UNL     1      38.614  -2.617  11.520  0.00  0.00    +0.000 N 
ATOM     13  H   UNL     1      38.033  -3.246  12.060  0.00  0.00    +0.000 HD
BRANCH  12  14
ATOM     14  C   UNL     1      38.076  -2.075  10.291  0.00  0.00    +0.000 C 
BRANCH  14  15
ATOM     15  C   UNL     1      36.797  -1.271  10.524  0.00  0.00    +0.000 C 
BRANCH  15  16
ATOM     16  C   UNL     1      37.051  -0.040  11.392  0.00  0.00    +0.000 C 
BRANCH  16  17
ATOM     17  N   UNL     1      38.346   0.555  11.073  0.00  0.00    +0.000 NA
ATOM     18  H   UNL     1      38.302   0.992  10.153  0.00  0.00    +0.000 HD
ATOM     19  H   UNL     1      39.037  -0.191  10.995  0.00  0.00    +0.000 HD
ENDBRANCH  16  17
ENDBRANCH  15  16
ENDBRANCH  14  15
ENDBRANCH  12  14
ENDBRANCH   7  10
BRANCH   1  20
ATOM     20  C   UNL     1      38.143  -2.675  17.144  0.00  0.00    +0.000 C 
BRANCH  20  24
ATOM     21  C   UNL     1      38.292   1.464  18.273  0.00  0.00    +0.000 A 
ATOM     22  C   UNL     1      38.545   0.469  19.226  0.00  0.00    +0.000 A 
ATOM     23  C   UNL     1      38.543  -0.878  18.873  0.00  0.00    +0.000 A 
ATOM     24  C   UNL     1      38.267  -1.231  17.558  0.00  0.00    +0.000 A 
ATOM     25  N   UNL     1      37.998  -0.295  16.615  0.00  0.00    +0.000 NA
ATOM     26  C   UNL     1      38.027   1.011  16.985  0.00  0.00    +0.000 A 
BRANCH  21  28
ATOM     27  C   UNL     1      38.835   3.747  17.434  0.00  0.00    +0.000 C 
ATOM     28  C   UNL     1      38.360   2.943  18.663  0.00  0.00    +0.000 C 
ATOM     29  C   UNL     1      39.360   3.144  19.823  0.00  0.00    +0.000 C 
ATOM     30  C   UNL     1      37.007   3.533  19.115  0.00  0.00    +0.000 C 
ENDBRANCH  21  28
ENDBRANCH  20  24
ENDBRANCH   1  20
TORSDOF 8
ENDMDL
