MODEL 1
REMARK VINA RESULT:    -8.355      0.000      0.000
REMARK INTER + INTRA:         -12.459
REMARK INTER:                 -11.286
REMARK INTRA:                  -1.173
REMARK UNBOUND:                -1.173
REMARK  Name = 
REMARK  6 active torsions:
REMARK  status: ('A' for Active; 'I' for Inactive)
REMARK    1  A    between atoms: C_2  and  C_4
REMARK    2  A    between atoms: C_7  and  N_8
REMARK    3  A    between atoms: N_8  and  C_9
REMARK    4  A    between atoms: C_9  and  C_10
REMARK    5  A    between atoms: C_10  and  C_11
REMARK    6  A    between atoms: C_15  and  N_16
REMARK                            x       y       z     vdW  Elec       q    Type
REMARK                         _______ _______ _______ _____ _____    ______ ____
ROOT
ATOM      1  C   UNL     1      43.036   4.577  11.050  0.00  0.00    +0.000 C 
ENDROOT
BRANCH   1   2
ATOM      2  N   UNL     1      43.780   4.965   9.855  0.00  0.00    +0.000 N 
ATOM      3  H   UNL     1      43.240   5.482   9.165  0.00  0.00    +0.000 HD
BRANCH   2   7
ATOM      4  C   UNL     1      46.247   2.079   7.998  0.00  0.00    +0.000 A 
ATOM      5  C   UNL     1      46.382   3.423   7.649  0.00  0.00    +0.000 A 
ATOM      6  C   UNL     1      45.581   4.390   8.267  0.00  0.00    +0.000 A 
ATOM      7  C   UNL     1      44.652   4.048   9.260  0.00  0.00    +0.000 A 
ATOM      8  C   UNL     1      44.518   2.691   9.584  0.00  0.00    +0.000 A 
ATOM      9  C   UNL     1      45.300   1.712   8.955  0.00  0.00    +0.000 A 
BRANCH   4  11
ATOM     10  N   UNL     1      46.757  -0.278   7.648  0.00  0.00    +0.000 N 
ATOM     11  C   UNL     1      47.060   1.021   7.344  0.00  0.00    +0.000 C 
ATOM     12  O   UNL     1      47.949   1.292   6.542  0.00  0.00    +0.000 OA
ATOM     13  H   UNL     1      47.246  -0.987   7.117  0.00  0.00    +0.000 HD
ATOM     14  H   UNL     1      45.894  -0.538   8.091  0.00  0.00    +0.000 HD
ENDBRANCH   4  11
ENDBRANCH   2   7
ENDBRANCH   1   2
BRANCH   1  15
ATOM     15  C   UNL     1      43.221   5.592  12.183  0.00  0.00    +0.000 C 
BRANCH  15  16
ATOM     16  C   UNL     1      44.627   5.493  12.723  0.00  0.00    +0.000 A 
ATOM     17  C   UNL     1      45.114   4.286  13.233  0.00  0.00    +0.000 A 
ATOM     18  C   UNL     1      46.443   4.192  13.626  0.00  0.00    +0.000 A 
ATOM     19  C   UNL     1      47.296   5.294  13.495  0.00  0.00    +0.000 A 
ATOM     20  C   UNL     1      46.851   6.516  12.972  0.00  0.00    +0.000 A 
ATOM     21  C   UNL     1      45.497   6.593  12.615  0.00  0.00    +0.000 A 
BRANCH  20  22
ATOM     22  N   UNL     1      47.713   7.587  12.838  0.00  0.00    +0.000 N 
ATOM     23  C   UNL     1      47.334   8.925  13.300  0.00  0.00    +0.000 C 
ATOM     24  C   UNL     1      47.661   9.937  12.204  0.00  0.00    +0.000 C 
ATOM     25  C   UNL     1      49.122   9.828  11.764  0.00  0.00    +0.000 C 
ATOM     26  C   UNL     1      49.489   8.390  11.397  0.00  0.00    +0.000 C 
ATOM     27  C   UNL     1      49.130   7.414  12.518  0.00  0.00    +0.000 C 
ENDBRANCH  20  22
ENDBRANCH  15  16
ENDBRANCH   1  15
TORSDOF 6
ENDMDL
MODEL 2
REMARK VINA RESULT:    -8.345      2.388      3.872
REMARK INTER + INTRA:         -12.445
REMARK INTER:                 -11.535
REMARK INTRA:                  -0.911
REMARK UNBOUND:                -1.173
REMARK  Name = 
REMARK  6 active torsions:
REMARK  status: ('A' for Active; 'I' for Inactive)
REMARK    1  A    between atoms: C_2  and  C_4
REMARK    2  A    between atoms: C_7  and  N_8
REMARK    3  A    between atoms: N_8  and  C_9
REMARK    4  A    between atoms: C_9  and  C_10
REMARK    5  A    between atoms: C_10  and  C_11
REMARK    6  A    between atoms: C_15  and  N_16
REMARK                            x       y       z     vdW  Elec       q    Type
REMARK                         _______ _______ _______ _____ _____    ______ ____
ROOT
ATOM      1  C   UNL     1      44.352   5.572  11.081  0.00  0.00    +0.000 C 
ENDROOT
BRANCH   1   2
ATOM      2  N   UNL     1      43.769   4.821   9.972  0.00  0.00    +0.000 N 
ATOM      3  H   UNL     1      42.852   4.424  10.160  0.00  0.00    +0.000 HD
BRANCH   2   7
ATOM      4  C   UNL     1      46.379   2.297   7.807  0.00  0.00    +0.000 A 
ATOM      5  C   UNL     1      45.452   1.734   8.684  0.00  0.00    +0.000 A 
ATOM      6  C   UNL     1      44.572   2.559   9.395  0.00  0.00    +0.000 A 
ATOM      7  C   UNL     1      44.576   3.951   9.233  0.00  0.00    +0.000 A 
ATOM      8  C   UNL     1      45.527   4.499   8.361  0.00  0.00    +0.000 A 
ATOM      9  C   UNL     1      46.427   3.685   7.660  0.00  0.00    +0.000 A 
BRANCH   4  11
ATOM     10  N   UNL     1      48.452   2.082   6.545  0.00  0.00    +0.000 N 
ATOM     11  C   UNL     1      47.346   1.457   7.055  0.00  0.00    +0.000 C 
ATOM     12  O   UNL     1      47.183   0.249   6.917  0.00  0.00    +0.000 OA
ATOM     13  H   UNL     1      49.152   1.481   6.129  0.00  0.00    +0.000 HD
ATOM     14  H   UNL     1      48.740   2.995   6.847  0.00  0.00    +0.000 HD
ENDBRANCH   4  11
ENDBRANCH   2   7
ENDBRANCH   1   2
BRANCH   1  15
ATOM     15  C   UNL     1      44.818   4.642  12.206  0.00  0.00    +0.000 C 
BRANCH  15  16
ATOM     16  C   UNL     1      46.071   5.200  12.834  0.00  0.00    +0.000 A 
ATOM     17  C   UNL     1      46.792   6.222  12.208  0.00  0.00    +0.000 A 
ATOM     18  C   UNL     1      47.881   6.792  12.855  0.00  0.00    +0.000 A 
ATOM     19  C   UNL     1      48.244   6.360  14.137  0.00  0.00    +0.000 A 
ATOM     20  C   UNL     1      47.536   5.351  14.806  0.00  0.00    +0.000 A 
ATOM     21  C   UNL     1      46.463   4.770  14.116  0.00  0.00    +0.000 A 
BRANCH  20  22
ATOM     22  N   UNL     1      47.903   4.951  16.076  0.00  0.00    +0.000 N 
ATOM     23  C   UNL     1      48.900   5.702  16.846  0.00  0.00    +0.000 C 
ATOM     24  C   UNL     1      49.911   4.719  17.434  0.00  0.00    +0.000 C 
ATOM     25  C   UNL     1      49.214   3.618  18.235  0.00  0.00    +0.000 C 
ATOM     26  C   UNL     1      48.113   2.944  17.418  0.00  0.00    +0.000 C 
ATOM     27  C   UNL     1      47.135   3.967  16.839  0.00  0.00    +0.000 C 
ENDBRANCH  20  22
ENDBRANCH  15  16
ENDBRANCH   1  15
TORSDOF 6
ENDMDL
MODEL 3
REMARK VINA RESULT:    -7.618      1.134      1.577
REMARK INTER + INTRA:         -11.463
REMARK INTER:                 -10.530
REMARK INTRA:                  -0.932
REMARK UNBOUND:                -1.173
REMARK  Name = 
REMARK  6 active torsions:
REMARK  status: ('A' for Active; 'I' for Inactive)
REMARK    1  A    between atoms: C_2  and  C_4
REMARK    2  A    between atoms: C_7  and  N_8
REMARK    3  A    between atoms: N_8  and  C_9
REMARK    4  A    between atoms: C_9  and  C_10
REMARK    5  A    between atoms: C_10  and  C_11
REMARK    6  A    between atoms: C_15  and  N_16
REMARK                            x       y       z     vdW  Elec       q    Type
REMARK                         _______ _______ _______ _____ _____    ______ ____
ROOT
ATOM      1  C   UNL     1      43.731   5.249  11.166  0.00  0.00    +0.000 C 
ENDROOT
BRANCH   1   2
ATOM      2  N   UNL     1      43.599   4.862   9.764  0.00  0.00    +0.000 N 
ATOM      3  H   UNL     1      42.647   4.663   9.463  0.00  0.00    +0.000 HD
BRANCH   2   7
ATOM      4  C   UNL     1      46.229   2.051   8.018  0.00  0.00    +0.000 A 
ATOM      5  C   UNL     1      46.320   3.394   7.652  0.00  0.00    +0.000 A 
ATOM      6  C   UNL     1      45.464   4.337   8.234  0.00  0.00    +0.000 A 
ATOM      7  C   UNL     1      44.522   3.973   9.207  0.00  0.00    +0.000 A 
ATOM      8  C   UNL     1      44.435   2.616   9.548  0.00  0.00    +0.000 A 
ATOM      9  C   UNL     1      45.272   1.660   8.956  0.00  0.00    +0.000 A 
BRANCH   4  11
ATOM     10  N   UNL     1      46.758  -0.292   7.604  0.00  0.00    +0.000 N 
ATOM     11  C   UNL     1      47.102   1.018   7.403  0.00  0.00    +0.000 C 
ATOM     12  O   UNL     1      48.074   1.317   6.717  0.00  0.00    +0.000 OA
ATOM     13  H   UNL     1      47.297  -0.979   7.093  0.00  0.00    +0.000 HD
ATOM     14  H   UNL     1      45.850  -0.563   7.937  0.00  0.00    +0.000 HD
ENDBRANCH   4  11
ENDBRANCH   2   7
ENDBRANCH   1   2
BRANCH   1  15
ATOM     15  C   UNL     1      44.510   6.558  11.317  0.00  0.00    +0.000 C 
BRANCH  15  16
ATOM     16  C   UNL     1      45.648   6.358  12.289  0.00  0.00    +0.000 A 
ATOM     17  C   UNL     1      45.654   5.273  13.169  0.00  0.00    +0.000 A 
ATOM     18  C   UNL     1      46.761   5.050  13.979  0.00  0.00    +0.000 A 
ATOM     19  C   UNL     1      47.873   5.897  13.899  0.00  0.00    +0.000 A 
ATOM     20  C   UNL     1      47.914   6.985  13.016  0.00  0.00    +0.000 A 
ATOM     21  C   UNL     1      46.770   7.206  12.236  0.00  0.00    +0.000 A 
BRANCH  20  22
ATOM     22  N   UNL     1      49.028   7.798  12.944  0.00  0.00    +0.000 N 
ATOM     23  C   UNL     1      49.467   8.365  11.665  0.00  0.00    +0.000 C 
ATOM     24  C   UNL     1      50.973   8.149  11.522  0.00  0.00    +0.000 C 
ATOM     25  C   UNL     1      51.731   8.696  12.732  0.00  0.00    +0.000 C 
ATOM     26  C   UNL     1      51.159   8.154  14.042  0.00  0.00    +0.000 C 
ATOM     27  C   UNL     1      49.649   8.381  14.133  0.00  0.00    +0.000 C 
ENDBRANCH  20  22
ENDBRANCH  15  16
ENDBRANCH   1  15
TORSDOF 6
ENDMDL
MODEL 4
REMARK VINA RESULT:    -7.240      1.619      2.318
REMARK INTER + INTRA:         -10.953
REMARK INTER:                 -10.017
REMARK INTRA:                  -0.937
REMARK UNBOUND:                -1.173
REMARK  Name = 
REMARK  6 active torsions:
REMARK  status: ('A' for Active; 'I' for Inactive)
REMARK    1  A    between atoms: C_2  and  C_4
REMARK    2  A    between atoms: C_7  and  N_8
REMARK    3  A    between atoms: N_8  and  C_9
REMARK    4  A    between atoms: C_9  and  C_10
REMARK    5  A    between atoms: C_10  and  C_11
REMARK    6  A    between atoms: C_15  and  N_16
REMARK                            x       y       z     vdW  Elec       q    Type
REMARK                         _______ _______ _______ _____ _____    ______ ____
ROOT
ATOM      1  C   UNL     1      43.442   5.091  11.017  0.00  0.00    +0.000 C 
ENDROOT
BRANCH   1   2
ATOM      2  N   UNL     1      43.622   3.723  10.536  0.00  0.00    +0.000 N 
ATOM      3  H   UNL     1      43.574   3.007  11.257  0.00  0.00    +0.000 HD
BRANCH   2   7
ATOM      4  C   UNL     1      46.501   2.773   7.589  0.00  0.00    +0.000 A 
ATOM      5  C   UNL     1      46.172   4.110   7.821  0.00  0.00    +0.000 A 
ATOM      6  C   UNL     1      45.231   4.438   8.804  0.00  0.00    +0.000 A 
ATOM      7  C   UNL     1      44.619   3.453   9.593  0.00  0.00    +0.000 A 
ATOM      8  C   UNL     1      44.948   2.116   9.332  0.00  0.00    +0.000 A 
ATOM      9  C   UNL     1      45.873   1.775   8.336  0.00  0.00    +0.000 A 
BRANCH   4  11
ATOM     10  N   UNL     1      47.479   3.126   5.385  0.00  0.00    +0.000 N 
ATOM     11  C   UNL     1      47.474   2.385   6.536  0.00  0.00    +0.000 C 
ATOM     12  O   UNL     1      48.262   1.458   6.694  0.00  0.00    +0.000 OA
ATOM     13  H   UNL     1      48.215   2.919   4.724  0.00  0.00    +0.000 HD
ATOM     14  H   UNL     1      47.035   4.025   5.324  0.00  0.00    +0.000 HD
ENDBRANCH   4  11
ENDBRANCH   2   7
ENDBRANCH   1   2
BRANCH   1  15
ATOM     15  C   UNL     1      44.160   5.317  12.350  0.00  0.00    +0.000 C 
BRANCH  15  16
ATOM     16  C   UNL     1      45.085   6.504  12.229  0.00  0.00    +0.000 A 
ATOM     17  C   UNL     1      44.612   7.736  11.768  0.00  0.00    +0.000 A 
ATOM     18  C   UNL     1      45.455   8.840  11.766  0.00  0.00    +0.000 A 
ATOM     19  C   UNL     1      46.767   8.724  12.241  0.00  0.00    +0.000 A 
ATOM     20  C   UNL     1      47.274   7.511  12.728  0.00  0.00    +0.000 A 
ATOM     21  C   UNL     1      46.412   6.406  12.687  0.00  0.00    +0.000 A 
BRANCH  20  22
ATOM     22  N   UNL     1      48.567   7.424  13.206  0.00  0.00    +0.000 N 
ATOM     23  C   UNL     1      48.838   6.967  14.572  0.00  0.00    +0.000 C 
ATOM     24  C   UNL     1      49.831   7.927  15.225  0.00  0.00    +0.000 C 
ATOM     25  C   UNL     1      51.088   8.094  14.370  0.00  0.00    +0.000 C 
ATOM     26  C   UNL     1      50.739   8.464  12.928  0.00  0.00    +0.000 C 
ATOM     27  C   UNL     1      49.733   7.484  12.324  0.00  0.00    +0.000 C 
ENDBRANCH  20  22
ENDBRANCH  15  16
ENDBRANCH   1  15
TORSDOF 6
ENDMDL
MODEL 5
REMARK VINA RESULT:    -7.121      3.048      6.943
REMARK INTER + INTRA:         -10.793
REMARK INTER:                  -9.600
REMARK INTRA:                  -1.193
REMARK UNBOUND:                -1.173
REMARK  Name = 
REMARK  6 active torsions:
REMARK  status: ('A' for Active; 'I' for Inactive)
REMARK    1  A    between atoms: C_2  and  C_4
REMARK    2  A    between atoms: C_7  and  N_8
REMARK    3  A    between atoms: N_8  and  C_9
REMARK    4  A    between atoms: C_9  and  C_10
REMARK    5  A    between atoms: C_10  and  C_11
REMARK    6  A    between atoms: C_15  and  N_16
REMARK                            x       y       z     vdW  Elec       q    Type
REMARK                         _______ _______ _______ _____ _____    ______ ____
ROOT
ATOM      1  C   UNL     1      45.883   7.660  12.826  0.00  0.00    +0.000 C 
ENDROOT
BRANCH   1   2
ATOM      2  N   UNL     1      47.140   6.918  12.802  0.00  0.00    +0.000 N 
ATOM      3  H   UNL     1      47.444   6.622  11.877  0.00  0.00    +0.000 HD
BRANCH   2   7
ATOM      4  C   UNL     1      47.778   4.090  15.879  0.00  0.00    +0.000 A 
ATOM      5  C   UNL     1      47.079   3.710  14.733  0.00  0.00    +0.000 A 
ATOM      6  C   UNL     1      46.874   4.634  13.700  0.00  0.00    +0.000 A 
ATOM      7  C   UNL     1      47.379   5.940  13.772  0.00  0.00    +0.000 A 
ATOM      8  C   UNL     1      48.062   6.307  14.939  0.00  0.00    +0.000 A 
ATOM      9  C   UNL     1      48.254   5.398  15.988  0.00  0.00    +0.000 A 
BRANCH   4  11
ATOM     10  N   UNL     1      46.891   2.786  17.737  0.00  0.00    +0.000 N 
ATOM     11  C   UNL     1      47.991   3.147  17.007  0.00  0.00    +0.000 C 
ATOM     12  O   UNL     1      49.098   2.683  17.261  0.00  0.00    +0.000 OA
ATOM     13  H   UNL     1      47.032   2.064  18.431  0.00  0.00    +0.000 HD
ATOM     14  H   UNL     1      45.954   2.942  17.409  0.00  0.00    +0.000 HD
ENDBRANCH   4  11
ENDBRANCH   2   7
ENDBRANCH   1   2
BRANCH   1  15
ATOM     15  C   UNL     1      45.113   7.504  11.511  0.00  0.00    +0.000 C 
BRANCH  15  16
ATOM     16  C   UNL     1      44.702   6.062  11.335  0.00  0.00    +0.000 A 
ATOM     17  C   UNL     1      43.765   5.476  12.191  0.00  0.00    +0.000 A 
ATOM     18  C   UNL     1      43.324   4.182  11.945  0.00  0.00    +0.000 A 
ATOM     19  C   UNL     1      43.801   3.475  10.834  0.00  0.00    +0.000 A 
ATOM     20  C   UNL     1      44.727   4.034   9.942  0.00  0.00    +0.000 A 
ATOM     21  C   UNL     1      45.180   5.328  10.234  0.00  0.00    +0.000 A 
BRANCH  20  22
ATOM     22  N   UNL     1      45.172   3.323   8.845  0.00  0.00    +0.000 N 
ATOM     23  C   UNL     1      44.904   1.888   8.715  0.00  0.00    +0.000 C 
ATOM     24  C   UNL     1      46.198   1.178   8.324  0.00  0.00    +0.000 C 
ATOM     25  C   UNL     1      46.820   1.804   7.074  0.00  0.00    +0.000 C 
ATOM     26  C   UNL     1      46.976   3.317   7.226  0.00  0.00    +0.000 C 
ATOM     27  C   UNL     1      45.659   3.980   7.633  0.00  0.00    +0.000 C 
ENDBRANCH  20  22
ENDBRANCH  15  16
ENDBRANCH   1  15
TORSDOF 6
ENDMDL
MODEL 6
REMARK VINA RESULT:    -6.695      2.567      6.990
REMARK INTER + INTRA:         -10.217
REMARK INTER:                  -9.341
REMARK INTRA:                  -0.875
REMARK UNBOUND:                -1.173
REMARK  Name = 
REMARK  6 active torsions:
REMARK  status: ('A' for Active; 'I' for Inactive)
REMARK    1  A    between atoms: C_2  and  C_4
REMARK    2  A    between atoms: C_7  and  N_8
REMARK    3  A    between atoms: N_8  and  C_9
REMARK    4  A    between atoms: C_9  and  C_10
REMARK    5  A    between atoms: C_10  and  C_11
REMARK    6  A    between atoms: C_15  and  N_16
REMARK                            x       y       z     vdW  Elec       q    Type
REMARK                         _______ _______ _______ _____ _____    ______ ____
ROOT
ATOM      1  C   UNL     1      45.142   7.090  12.892  0.00  0.00    +0.000 C 
ENDROOT
BRANCH   1   2
ATOM      2  N   UNL     1      46.015   8.242  13.105  0.00  0.00    +0.000 N 
ATOM      3  H   UNL     1      45.560   9.146  13.005  0.00  0.00    +0.000 HD
BRANCH   2   7
ATOM      4  C   UNL     1      49.957   8.391  11.586  0.00  0.00    +0.000 A 
ATOM      5  C   UNL     1      49.460   7.187  12.086  0.00  0.00    +0.000 A 
ATOM      6  C   UNL     1      48.151   7.121  12.579  0.00  0.00    +0.000 A 
ATOM      7  C   UNL     1      47.302   8.237  12.561  0.00  0.00    +0.000 A 
ATOM      8  C   UNL     1      47.826   9.442  12.071  0.00  0.00    +0.000 A 
ATOM      9  C   UNL     1      49.141   9.524  11.596  0.00  0.00    +0.000 A 
BRANCH   4  11
ATOM     10  N   UNL     1      52.105   7.365  11.067  0.00  0.00    +0.000 N 
ATOM     11  C   UNL     1      51.349   8.506  11.080  0.00  0.00    +0.000 C 
ATOM     12  O   UNL     1      51.800   9.568  10.664  0.00  0.00    +0.000 OA
ATOM     13  H   UNL     1      53.011   7.435  10.623  0.00  0.00    +0.000 HD
ATOM     14  H   UNL     1      51.699   6.451  11.159  0.00  0.00    +0.000 HD
ENDBRANCH   4  11
ENDBRANCH   2   7
ENDBRANCH   1   2
BRANCH   1  15
ATOM     15  C   UNL     1      44.883   6.849  11.402  0.00  0.00    +0.000 C 
BRANCH  15  16
ATOM     16  C   UNL     1      44.639   5.378  11.165  0.00  0.00    +0.000 A 
ATOM     17  C   UNL     1      43.802   4.646  12.012  0.00  0.00    +0.000 A 
ATOM     18  C   UNL     1      43.508   3.322  11.712  0.00  0.00    +0.000 A 
ATOM     19  C   UNL     1      44.033   2.729  10.557  0.00  0.00    +0.000 A 
ATOM     20  C   UNL     1      44.861   3.434   9.673  0.00  0.00    +0.000 A 
ATOM     21  C   UNL     1      45.168   4.758  10.018  0.00  0.00    +0.000 A 
BRANCH  20  22
ATOM     22  N   UNL     1      45.355   2.832   8.532  0.00  0.00    +0.000 N 
ATOM     23  C   UNL     1      45.388   1.372   8.402  0.00  0.00    +0.000 C 
ATOM     24  C   UNL     1      46.766   0.954   7.895  0.00  0.00    +0.000 C 
ATOM     25  C   UNL     1      47.136   1.696   6.609  0.00  0.00    +0.000 C 
ATOM     26  C   UNL     1      46.979   3.207   6.773  0.00  0.00    +0.000 C 
ATOM     27  C   UNL     1      45.590   3.576   7.295  0.00  0.00    +0.000 C 
ENDBRANCH  20  22
ENDBRANCH  15  16
ENDBRANCH   1  15
TORSDOF 6
ENDMDL
MODEL 7
REMARK VINA RESULT:    -6.644      4.366      8.156
REMARK INTER + INTRA:         -10.149
REMARK INTER:                  -9.584
REMARK INTRA:                  -0.565
REMARK UNBOUND:                -1.173
REMARK  Name = 
REMARK  6 active torsions:
REMARK  status: ('A' for Active; 'I' for Inactive)
REMARK    1  A    between atoms: C_2  and  C_4
REMARK    2  A    between atoms: C_7  and  N_8
REMARK    3  A    between atoms: N_8  and  C_9
REMARK    4  A    between atoms: C_9  and  C_10
REMARK    5  A    between atoms: C_10  and  C_11
REMARK    6  A    between atoms: C_15  and  N_16
REMARK                            x       y       z     vdW  Elec       q    Type
REMARK                         _______ _______ _______ _____ _____    ______ ____
ROOT
ATOM      1  C   UNL     1      47.108   5.688  13.716  0.00  0.00    +0.000 C 
ENDROOT
BRANCH   1   2
ATOM      2  N   UNL     1      46.786   4.808  14.836  0.00  0.00    +0.000 N 
ATOM      3  H   UNL     1      45.795   4.743  15.057  0.00  0.00    +0.000 HD
BRANCH   2   7
ATOM      4  C   UNL     1      49.260   4.723  18.263  0.00  0.00    +0.000 A 
ATOM      5  C   UNL     1      49.340   5.805  17.386  0.00  0.00    +0.000 A 
ATOM      6  C   UNL     1      48.516   5.852  16.256  0.00  0.00    +0.000 A 
ATOM      7  C   UNL     1      47.580   4.843  15.987  0.00  0.00    +0.000 A 
ATOM      8  C   UNL     1      47.527   3.756  16.869  0.00  0.00    +0.000 A 
ATOM      9  C   UNL     1      48.363   3.688  17.992  0.00  0.00    +0.000 A 
BRANCH   4  11
ATOM     10  N   UNL     1      51.406   4.151  19.265  0.00  0.00    +0.000 N 
ATOM     11  C   UNL     1      50.137   4.625  19.458  0.00  0.00    +0.000 C 
ATOM     12  O   UNL     1      49.758   4.979  20.570  0.00  0.00    +0.000 OA
ATOM     13  H   UNL     1      52.024   4.190  20.064  0.00  0.00    +0.000 HD
ATOM     14  H   UNL     1      51.824   4.093  18.353  0.00  0.00    +0.000 HD
ENDBRANCH   4  11
ENDBRANCH   2   7
ENDBRANCH   1   2
BRANCH   1  15
ATOM     15  C   UNL     1      45.844   6.162  12.992  0.00  0.00    +0.000 C 
BRANCH  15  16
ATOM     16  C   UNL     1      45.148   4.978  12.366  0.00  0.00    +0.000 A 
ATOM     17  C   UNL     1      44.057   4.374  12.997  0.00  0.00    +0.000 A 
ATOM     18  C   UNL     1      43.367   3.355  12.352  0.00  0.00    +0.000 A 
ATOM     19  C   UNL     1      43.750   2.948  11.068  0.00  0.00    +0.000 A 
ATOM     20  C   UNL     1      44.827   3.541  10.394  0.00  0.00    +0.000 A 
ATOM     21  C   UNL     1      45.526   4.543  11.082  0.00  0.00    +0.000 A 
BRANCH  20  22
ATOM     22  N   UNL     1      45.177   3.133   9.121  0.00  0.00    +0.000 N 
ATOM     23  C   UNL     1      45.139   1.717   8.745  0.00  0.00    +0.000 C 
ATOM     24  C   UNL     1      46.441   1.362   8.030  0.00  0.00    +0.000 C 
ATOM     25  C   UNL     1      46.706   2.305   6.855  0.00  0.00    +0.000 C 
ATOM     26  C   UNL     1      46.626   3.770   7.286  0.00  0.00    +0.000 C 
ATOM     27  C   UNL     1      45.313   4.073   8.009  0.00  0.00    +0.000 C 
ENDBRANCH  20  22
ENDBRANCH  15  16
ENDBRANCH   1  15
TORSDOF 6
ENDMDL
MODEL 8
REMARK VINA RESULT:    -6.389      2.620      7.120
REMARK INTER + INTRA:          -9.804
REMARK INTER:                  -8.749
REMARK INTRA:                  -1.055
REMARK UNBOUND:                -1.173
REMARK  Name = 
REMARK  6 active torsions:
REMARK  status: ('A' for Active; 'I' for Inactive)
REMARK    1  A    between atoms: C_2  and  C_4
REMARK    2  A    between atoms: C_7  and  N_8
REMARK    3  A    between atoms: N_8  and  C_9
REMARK    4  A    between atoms: C_9  and  C_10
REMARK    5  A    between atoms: C_10  and  C_11
REMARK    6  A    between atoms: C_15  and  N_16
REMARK                            x       y       z     vdW  Elec       q    Type
REMARK                         _______ _______ _______ _____ _____    ______ ____
ROOT
ATOM      1  C   UNL     1      47.177   4.777  13.650  0.00  0.00    +0.000 C 
ENDROOT
BRANCH   1   2
ATOM      2  N   UNL     1      47.586   6.054  14.230  0.00  0.00    +0.000 N 
ATOM      3  H   UNL     1      47.065   6.333  15.058  0.00  0.00    +0.000 HD
BRANCH   2   7
ATOM      4  C   UNL     1      48.325   9.459  11.837  0.00  0.00    +0.000 A 
ATOM      5  C   UNL     1      49.348   8.533  12.046  0.00  0.00    +0.000 A 
ATOM      6  C   UNL     1      49.111   7.394  12.824  0.00  0.00    +0.000 A 
ATOM      7  C   UNL     1      47.852   7.137  13.387  0.00  0.00    +0.000 A 
ATOM      8  C   UNL     1      46.844   8.088  13.181  0.00  0.00    +0.000 A 
ATOM      9  C   UNL     1      47.076   9.243  12.421  0.00  0.00    +0.000 A 
BRANCH   4  11
ATOM     10  N   UNL     1      49.839  11.001  10.710  0.00  0.00    +0.000 N 
ATOM     11  C   UNL     1      48.547  10.693  11.039  0.00  0.00    +0.000 C 
ATOM     12  O   UNL     1      47.614  11.396  10.663  0.00  0.00    +0.000 OA
ATOM     13  H   UNL     1      49.966  11.782  10.080  0.00  0.00    +0.000 HD
ATOM     14  H   UNL     1      50.585  10.332  10.781  0.00  0.00    +0.000 HD
ENDBRANCH   4  11
ENDBRANCH   2   7
ENDBRANCH   1   2
BRANCH   1  15
ATOM     15  C   UNL     1      45.742   4.414  14.043  0.00  0.00    +0.000 C 
BRANCH  15  16
ATOM     16  C   UNL     1      44.851   4.496  12.827  0.00  0.00    +0.000 A 
ATOM     17  C   UNL     1      43.684   5.265  12.846  0.00  0.00    +0.000 A 
ATOM     18  C   UNL     1      42.937   5.410  11.684  0.00  0.00    +0.000 A 
ATOM     19  C   UNL     1      43.361   4.805  10.494  0.00  0.00    +0.000 A 
ATOM     20  C   UNL     1      44.534   4.041  10.429  0.00  0.00    +0.000 A 
ATOM     21  C   UNL     1      45.250   3.883  11.625  0.00  0.00    +0.000 A 
BRANCH  20  22
ATOM     22  N   UNL     1      44.941   3.466   9.241  0.00  0.00    +0.000 N 
ATOM     23  C   UNL     1      44.775   2.029   9.003  0.00  0.00    +0.000 C 
ATOM     24  C   UNL     1      46.083   1.466   8.451  0.00  0.00    +0.000 C 
ATOM     25  C   UNL     1      46.549   2.246   7.220  0.00  0.00    +0.000 C 
ATOM     26  C   UNL     1      46.599   3.748   7.497  0.00  0.00    +0.000 C 
ATOM     27  C   UNL     1      45.273   4.262   8.060  0.00  0.00    +0.000 C 
ENDBRANCH  20  22
ENDBRANCH  15  16
ENDBRANCH   1  15
TORSDOF 6
ENDMDL
MODEL 9
REMARK VINA RESULT:    -6.143      4.109      6.796
REMARK INTER + INTRA:          -9.471
REMARK INTER:                  -8.087
REMARK INTRA:                  -1.384
REMARK UNBOUND:                -1.173
REMARK  Name = 
REMARK  6 active torsions:
REMARK  status: ('A' for Active; 'I' for Inactive)
REMARK    1  A    between atoms: C_2  and  C_4
REMARK    2  A    between atoms: C_7  and  N_8
REMARK    3  A    between atoms: N_8  and  C_9
REMARK    4  A    between atoms: C_9  and  C_10
REMARK    5  A    between atoms: C_10  and  C_11
REMARK    6  A    between atoms: C_15  and  N_16
REMARK                            x       y       z     vdW  Elec       q    Type
REMARK                         _______ _______ _______ _____ _____    ______ ____
ROOT
ATOM      1  C   UNL     1      49.538   7.922  13.736  0.00  0.00    +0.000 C 
ENDROOT
BRANCH   1   2
ATOM      2  N   UNL     1      48.639   7.681  12.610  0.00  0.00    +0.000 N 
ATOM      3  H   UNL     1      48.481   8.486  12.009  0.00  0.00    +0.000 HD
BRANCH   2   7
ATOM      4  C   UNL     1      45.066   5.456  13.011  0.00  0.00    +0.000 A 
ATOM      5  C   UNL     1      46.266   4.915  13.474  0.00  0.00    +0.000 A 
ATOM      6  C   UNL     1      47.453   5.648  13.361  0.00  0.00    +0.000 A 
ATOM      7  C   UNL     1      47.471   6.939  12.811  0.00  0.00    +0.000 A 
ATOM      8  C   UNL     1      46.258   7.456  12.336  0.00  0.00    +0.000 A 
ATOM      9  C   UNL     1      45.068   6.723  12.424  0.00  0.00    +0.000 A 
BRANCH   4  11
ATOM     10  N   UNL     1      42.632   5.424  13.113  0.00  0.00    +0.000 N 
ATOM     11  C   UNL     1      43.791   4.697  13.090  0.00  0.00    +0.000 C 
ATOM     12  O   UNL     1      43.768   3.471  13.104  0.00  0.00    +0.000 OA
ATOM     13  H   UNL     1      41.772   4.895  13.060  0.00  0.00    +0.000 HD
ATOM     14  H   UNL     1      42.601   6.394  12.853  0.00  0.00    +0.000 HD
ENDBRANCH   4  11
ENDBRANCH   2   7
ENDBRANCH   1   2
BRANCH   1  15
ATOM     15  C   UNL     1      48.979   8.988  14.683  0.00  0.00    +0.000 C 
BRANCH  15  16
ATOM     16  C   UNL     1      48.760   8.383  16.049  0.00  0.00    +0.000 A 
ATOM     17  C   UNL     1      48.265   9.157  17.103  0.00  0.00    +0.000 A 
ATOM     18  C   UNL     1      47.971   8.554  18.320  0.00  0.00    +0.000 A 
ATOM     19  C   UNL     1      48.152   7.175  18.484  0.00  0.00    +0.000 A 
ATOM     20  C   UNL     1      48.628   6.362  17.446  0.00  0.00    +0.000 A 
ATOM     21  C   UNL     1      48.949   7.002  16.241  0.00  0.00    +0.000 A 
BRANCH  20  22
ATOM     22  N   UNL     1      48.785   5.001  17.627  0.00  0.00    +0.000 N 
ATOM     23  C   UNL     1      49.945   4.463  18.343  0.00  0.00    +0.000 C 
ATOM     24  C   UNL     1      50.535   3.312  17.531  0.00  0.00    +0.000 C 
ATOM     25  C   UNL     1      49.473   2.262  17.200  0.00  0.00    +0.000 C 
ATOM     26  C   UNL     1      48.242   2.897  16.553  0.00  0.00    +0.000 C 
ATOM     27  C   UNL     1      47.697   4.052  17.395  0.00  0.00    +0.000 C 
ENDBRANCH  20  22
ENDBRANCH  15  16
ENDBRANCH   1  15
TORSDOF 6
ENDMDL
