MODEL 1
REMARK VINA RESULT:    -8.238      0.000      0.000
REMARK INTER + INTRA:         -11.627
REMARK INTER:                 -10.646
REMARK INTRA:                  -0.981
REMARK UNBOUND:                -0.981
REMARK  Name = 
REMARK  7 active torsions:
REMARK  status: ('A' for Active; 'I' for Inactive)
REMARK    1  A    between atoms: C_1  and  N_2
REMARK    2  A    between atoms: N_2  and  C_3
REMARK    3  A    between atoms: C_4  and  C_6
REMARK    4  A    between atoms: C_9  and  C_10
REMARK    5  A    between atoms: C_10  and  N_11
REMARK    6  A    between atoms: N_11  and  C_12
REMARK    7  A    between atoms: C_15  and  C_16
REMARK                            x       y       z     vdW  Elec       q    Type
REMARK                         _______ _______ _______ _____ _____    ______ ____
ROOT
ATOM      1  C   UNL     1      43.899   3.676  12.395  0.00  0.00    +0.000 C 
ENDROOT
BRANCH   1   5
ATOM      2  C   UNL     1      47.236   6.063  13.581  0.00  0.00    +0.000 A 
ATOM      3  N   UNL     1      47.335   4.700  13.613  0.00  0.00    +0.000 NA
ATOM      4  C   UNL     1      46.267   3.980  13.200  0.00  0.00    +0.000 A 
ATOM      5  C   UNL     1      45.066   4.542  12.787  0.00  0.00    +0.000 A 
ATOM      6  C   UNL     1      44.998   5.938  12.735  0.00  0.00    +0.000 A 
ATOM      7  C   UNL     1      46.093   6.718  13.125  0.00  0.00    +0.000 A 
ATOM      8 CL   UNL     1      45.941   8.428  12.943  0.00  0.00    +0.000 Cl
BRANCH   2  12
ATOM      9  C   UNL     1      50.471   8.102  13.927  0.00  0.00    +0.000 C 
ATOM     10  N   UNL     1      49.389   7.357  13.307  0.00  0.00    +0.000 N 
ATOM     11  C   UNL     1      49.286   7.399  11.855  0.00  0.00    +0.000 C 
ATOM     12  C   UNL     1      48.411   6.814  14.152  0.00  0.00    +0.000 C 
ATOM     13  O   UNL     1      48.506   6.919  15.379  0.00  0.00    +0.000 OA
ENDBRANCH   2  12
ENDBRANCH   1   5
BRANCH   1  14
ATOM     14  N   UNL     1      43.512   3.957  11.023  0.00  0.00    +0.000 N 
ATOM     15  H   UNL     1      42.524   3.802  10.838  0.00  0.00    +0.000 HD
BRANCH  14  16
ATOM     16  C   UNL     1      44.297   3.503   9.958  0.00  0.00    +0.000 A 
ATOM     17  C   UNL     1      44.609   2.159   9.725  0.00  0.00    +0.000 A 
ATOM     18  C   UNL     1      45.445   1.779   8.664  0.00  0.00    +0.000 A 
ATOM     19  C   UNL     1      46.026   2.743   7.830  0.00  0.00    +0.000 A 
ATOM     20  C   UNL     1      45.751   4.092   8.082  0.00  0.00    +0.000 A 
ATOM     21  C   UNL     1      44.908   4.460   9.135  0.00  0.00    +0.000 A 
BRANCH  19  22
ATOM     22  C   UNL     1      46.941   2.355   6.695  0.00  0.00    +0.000 C 
ATOM     23  F   UNL     1      48.233   2.749   6.875  0.00  0.00    +0.000 F 
ATOM     24  F   UNL     1      46.987   1.008   6.499  0.00  0.00    +0.000 F 
ATOM     25  F   UNL     1      46.551   2.892   5.505  0.00  0.00    +0.000 F 
ENDBRANCH  19  22
ENDBRANCH  14  16
ENDBRANCH   1  14
TORSDOF 5
ENDMDL
MODEL 2
REMARK VINA RESULT:    -8.041      1.267      1.785
REMARK INTER + INTRA:         -11.372
REMARK INTER:                 -10.667
REMARK INTRA:                  -0.705
REMARK UNBOUND:                -0.981
REMARK  Name = 
REMARK  7 active torsions:
REMARK  status: ('A' for Active; 'I' for Inactive)
REMARK    1  A    between atoms: C_1  and  N_2
REMARK    2  A    between atoms: N_2  and  C_3
REMARK    3  A    between atoms: C_4  and  C_6
REMARK    4  A    between atoms: C_9  and  C_10
REMARK    5  A    between atoms: C_10  and  N_11
REMARK    6  A    between atoms: N_11  and  C_12
REMARK    7  A    between atoms: C_15  and  C_16
REMARK                            x       y       z     vdW  Elec       q    Type
REMARK                         _______ _______ _______ _____ _____    ______ ____
ROOT
ATOM      1  C   UNL     1      43.776   3.385  11.972  0.00  0.00    +0.000 C 
ENDROOT
BRANCH   1   5
ATOM      2  C   UNL     1      47.135   5.350  13.730  0.00  0.00    +0.000 A 
ATOM      3  N   UNL     1      47.121   3.986  13.640  0.00  0.00    +0.000 NA
ATOM      4  C   UNL     1      46.053   3.405  13.048  0.00  0.00    +0.000 A 
ATOM      5  C   UNL     1      44.956   4.105  12.567  0.00  0.00    +0.000 A 
ATOM      6  C   UNL     1      45.005   5.501  12.644  0.00  0.00    +0.000 A 
ATOM      7  C   UNL     1      46.107   6.142  13.222  0.00  0.00    +0.000 A 
ATOM      8 CL   UNL     1      46.113   7.869  13.192  0.00  0.00    +0.000 Cl
BRANCH   2  12
ATOM      9  C   UNL     1      49.588   6.287  16.532  0.00  0.00    +0.000 C 
ATOM     10  N   UNL     1      48.425   5.719  15.871  0.00  0.00    +0.000 N 
ATOM     11  C   UNL     1      47.595   4.800  16.637  0.00  0.00    +0.000 C 
ATOM     12  C   UNL     1      48.293   5.940  14.492  0.00  0.00    +0.000 C 
ATOM     13  O   UNL     1      49.108   6.641  13.884  0.00  0.00    +0.000 OA
ENDBRANCH   2  12
ENDBRANCH   1   5
BRANCH   1  14
ATOM     14  N   UNL     1      43.579   3.810  10.596  0.00  0.00    +0.000 N 
ATOM     15  H   UNL     1      42.609   3.768  10.292  0.00  0.00    +0.000 HD
BRANCH  14  16
ATOM     16  C   UNL     1      44.440   3.366   9.587  0.00  0.00    +0.000 A 
ATOM     17  C   UNL     1      44.819   2.031   9.403  0.00  0.00    +0.000 A 
ATOM     18  C   UNL     1      45.727   1.664   8.400  0.00  0.00    +0.000 A 
ATOM     19  C   UNL     1      46.314   2.633   7.576  0.00  0.00    +0.000 A 
ATOM     20  C   UNL     1      45.971   3.974   7.780  0.00  0.00    +0.000 A 
ATOM     21  C   UNL     1      45.056   4.330   8.776  0.00  0.00    +0.000 A 
BRANCH  19  22
ATOM     22  C   UNL     1      47.306   2.259   6.502  0.00  0.00    +0.000 C 
ATOM     23  F   UNL     1      46.986   2.745   5.269  0.00  0.00    +0.000 F 
ATOM     24  F   UNL     1      48.560   2.717   6.768  0.00  0.00    +0.000 F 
ATOM     25  F   UNL     1      47.425   0.911   6.350  0.00  0.00    +0.000 F 
ENDBRANCH  19  22
ENDBRANCH  14  16
ENDBRANCH   1  14
TORSDOF 5
ENDMDL
MODEL 3
REMARK VINA RESULT:    -7.696      1.552      2.052
REMARK INTER + INTRA:         -10.926
REMARK INTER:                 -10.231
REMARK INTRA:                  -0.695
REMARK UNBOUND:                -0.981
REMARK  Name = 
REMARK  7 active torsions:
REMARK  status: ('A' for Active; 'I' for Inactive)
REMARK    1  A    between atoms: C_1  and  N_2
REMARK    2  A    between atoms: N_2  and  C_3
REMARK    3  A    between atoms: C_4  and  C_6
REMARK    4  A    between atoms: C_9  and  C_10
REMARK    5  A    between atoms: C_10  and  N_11
REMARK    6  A    between atoms: N_11  and  C_12
REMARK    7  A    between atoms: C_15  and  C_16
REMARK                            x       y       z     vdW  Elec       q    Type
REMARK                         _______ _______ _______ _____ _____    ______ ____
ROOT
ATOM      1  C   UNL     1      43.292   5.284  11.186  0.00  0.00    +0.000 C 
ENDROOT
BRANCH   1   5
ATOM      2  C   UNL     1      47.030   6.580  12.794  0.00  0.00    +0.000 A 
ATOM      3  N   UNL     1      46.459   7.277  11.766  0.00  0.00    +0.000 NA
ATOM      4  C   UNL     1      45.260   6.852  11.306  0.00  0.00    +0.000 A 
ATOM      5  C   UNL     1      44.598   5.731  11.787  0.00  0.00    +0.000 A 
ATOM      6  C   UNL     1      45.187   5.051  12.858  0.00  0.00    +0.000 A 
ATOM      7  C   UNL     1      46.413   5.477  13.382  0.00  0.00    +0.000 A 
ATOM      8 CL   UNL     1      47.015   4.625  14.757  0.00  0.00    +0.000 Cl
BRANCH   2  12
ATOM      9  C   UNL     1      49.946   8.505  14.387  0.00  0.00    +0.000 C 
ATOM     10  N   UNL     1      48.588   8.157  14.009  0.00  0.00    +0.000 N 
ATOM     11  C   UNL     1      47.501   8.875  14.659  0.00  0.00    +0.000 C 
ATOM     12  C   UNL     1      48.411   7.028  13.195  0.00  0.00    +0.000 C 
ATOM     13  O   UNL     1      49.385   6.395  12.773  0.00  0.00    +0.000 OA
ENDBRANCH   2  12
ENDBRANCH   1   5
BRANCH   1  14
ATOM     14  N   UNL     1      43.396   3.903  10.749  0.00  0.00    +0.000 N 
ATOM     15  H   UNL     1      43.400   3.232  11.514  0.00  0.00    +0.000 HD
BRANCH  14  16
ATOM     16  C   UNL     1      44.316   3.539   9.760  0.00  0.00    +0.000 A 
ATOM     17  C   UNL     1      44.788   4.403   8.765  0.00  0.00    +0.000 A 
ATOM     18  C   UNL     1      45.673   3.956   7.774  0.00  0.00    +0.000 A 
ATOM     19  C   UNL     1      46.081   2.617   7.728  0.00  0.00    +0.000 A 
ATOM     20  C   UNL     1      45.582   1.738   8.696  0.00  0.00    +0.000 A 
ATOM     21  C   UNL     1      44.708   2.195   9.688  0.00  0.00    +0.000 A 
BRANCH  19  22
ATOM     22  C   UNL     1      47.021   2.113   6.660  0.00  0.00    +0.000 C 
ATOM     23  F   UNL     1      48.329   2.414   6.896  0.00  0.00    +0.000 F 
ATOM     24  F   UNL     1      46.970   0.760   6.516  0.00  0.00    +0.000 F 
ATOM     25  F   UNL     1      46.737   2.630   5.432  0.00  0.00    +0.000 F 
ENDBRANCH  19  22
ENDBRANCH  14  16
ENDBRANCH   1  14
TORSDOF 5
ENDMDL
MODEL 4
REMARK VINA RESULT:    -7.512      1.900      2.265
REMARK INTER + INTRA:         -10.688
REMARK INTER:                  -9.906
REMARK INTRA:                  -0.782
REMARK UNBOUND:                -0.981
REMARK  Name = 
REMARK  7 active torsions:
REMARK  status: ('A' for Active; 'I' for Inactive)
REMARK    1  A    between atoms: C_1  and  N_2
REMARK    2  A    between atoms: N_2  and  C_3
REMARK    3  A    between atoms: C_4  and  C_6
REMARK    4  A    between atoms: C_9  and  C_10
REMARK    5  A    between atoms: C_10  and  N_11
REMARK    6  A    between atoms: N_11  and  C_12
REMARK    7  A    between atoms: C_15  and  C_16
REMARK                            x       y       z     vdW  Elec       q    Type
REMARK                         _______ _______ _______ _____ _____    ______ ____
ROOT
ATOM      1  C   UNL     1      44.089   5.159  11.569  0.00  0.00    +0.000 C 
ENDROOT
BRANCH   1   5
ATOM      2  C   UNL     1      47.017   8.229  12.058  0.00  0.00    +0.000 A 
ATOM      3  N   UNL     1      47.417   6.928  11.931  0.00  0.00    +0.000 NA
ATOM      4  C   UNL     1      46.461   5.989  11.746  0.00  0.00    +0.000 A 
ATOM      5  C   UNL     1      45.100   6.263  11.721  0.00  0.00    +0.000 A 
ATOM      6  C   UNL     1      44.716   7.604  11.824  0.00  0.00    +0.000 A 
ATOM      7  C   UNL     1      45.678   8.608  11.986  0.00  0.00    +0.000 A 
ATOM      8 CL   UNL     1      45.110  10.239  12.018  0.00  0.00    +0.000 Cl
BRANCH   2  12
ATOM      9  C   UNL     1      49.568  10.413  13.919  0.00  0.00    +0.000 C 
ATOM     10  N   UNL     1      48.480   9.477  13.698  0.00  0.00    +0.000 N 
ATOM     11  C   UNL     1      47.990   8.727  14.845  0.00  0.00    +0.000 C 
ATOM     12  C   UNL     1      48.110   9.218  12.370  0.00  0.00    +0.000 C 
ATOM     13  O   UNL     1      48.655   9.812  11.435  0.00  0.00    +0.000 OA
ENDBRANCH   2  12
ENDBRANCH   1   5
BRANCH   1  14
ATOM     14  N   UNL     1      43.790   4.951  10.163  0.00  0.00    +0.000 N 
ATOM     15  H   UNL     1      42.794   4.877   9.964  0.00  0.00    +0.000 HD
BRANCH  14  16
ATOM     16  C   UNL     1      44.520   4.024   9.412  0.00  0.00    +0.000 A 
ATOM     17  C   UNL     1      44.513   2.643   9.640  0.00  0.00    +0.000 A 
ATOM     18  C   UNL     1      45.310   1.776   8.878  0.00  0.00    +0.000 A 
ATOM     19  C   UNL     1      46.169   2.274   7.891  0.00  0.00    +0.000 A 
ATOM     20  C   UNL     1      46.211   3.658   7.684  0.00  0.00    +0.000 A 
ATOM     21  C   UNL     1      45.405   4.514   8.441  0.00  0.00    +0.000 A 
BRANCH  19  22
ATOM     22  C   UNL     1      47.046   1.358   7.073  0.00  0.00    +0.000 C 
ATOM     23  F   UNL     1      46.893   1.513   5.728  0.00  0.00    +0.000 F 
ATOM     24  F   UNL     1      48.372   1.548   7.320  0.00  0.00    +0.000 F 
ATOM     25  F   UNL     1      46.804   0.042   7.326  0.00  0.00    +0.000 F 
ENDBRANCH  19  22
ENDBRANCH  14  16
ENDBRANCH   1  14
TORSDOF 5
ENDMDL
MODEL 5
REMARK VINA RESULT:    -6.097      3.563      4.500
REMARK INTER + INTRA:          -8.860
REMARK INTER:                  -8.083
REMARK INTRA:                  -0.777
REMARK UNBOUND:                -0.981
REMARK  Name = 
REMARK  7 active torsions:
REMARK  status: ('A' for Active; 'I' for Inactive)
REMARK    1  A    between atoms: C_1  and  N_2
REMARK    2  A    between atoms: N_2  and  C_3
REMARK    3  A    between atoms: C_4  and  C_6
REMARK    4  A    between atoms: C_9  and  C_10
REMARK    5  A    between atoms: C_10  and  N_11
REMARK    6  A    between atoms: N_11  and  C_12
REMARK    7  A    between atoms: C_15  and  C_16
REMARK                            x       y       z     vdW  Elec       q    Type
REMARK                         _______ _______ _______ _____ _____    ______ ____
ROOT
ATOM      1  C   UNL     1      47.382   6.652  13.391  0.00  0.00    +0.000 C 
ENDROOT
BRANCH   1   5
ATOM      2  C   UNL     1      48.948   5.359  17.148  0.00  0.00    +0.000 A 
ATOM      3  N   UNL     1      49.398   6.524  16.593  0.00  0.00    +0.000 NA
ATOM      4  C   UNL     1      48.854   6.915  15.418  0.00  0.00    +0.000 A 
ATOM      5  C   UNL     1      47.900   6.184  14.724  0.00  0.00    +0.000 A 
ATOM      6  C   UNL     1      47.433   5.010  15.324  0.00  0.00    +0.000 A 
ATOM      7  C   UNL     1      47.950   4.587  16.555  0.00  0.00    +0.000 A 
ATOM      8 CL   UNL     1      47.248   3.173  17.254  0.00  0.00    +0.000 Cl
BRANCH   2  12
ATOM      9  C   UNL     1      49.914   4.811  20.823  0.00  0.00    +0.000 C 
ATOM     10  N   UNL     1      49.199   5.310  19.662  0.00  0.00    +0.000 N 
ATOM     11  C   UNL     1      47.944   6.012  19.892  0.00  0.00    +0.000 C 
ATOM     12  C   UNL     1      49.661   4.915  18.398  0.00  0.00    +0.000 C 
ATOM     13  O   UNL     1      50.674   4.217  18.286  0.00  0.00    +0.000 OA
ENDBRANCH   2  12
ENDBRANCH   1   5
BRANCH   1  14
ATOM     14  N   UNL     1      46.011   6.206  13.208  0.00  0.00    +0.000 N 
ATOM     15  H   UNL     1      45.574   5.872  14.064  0.00  0.00    +0.000 HD
BRANCH  14  16
ATOM     16  C   UNL     1      45.668   5.395  12.122  0.00  0.00    +0.000 A 
ATOM     17  C   UNL     1      45.238   4.068  12.232  0.00  0.00    +0.000 A 
ATOM     18  C   UNL     1      44.959   3.296  11.095  0.00  0.00    +0.000 A 
ATOM     19  C   UNL     1      45.142   3.821   9.810  0.00  0.00    +0.000 A 
ATOM     20  C   UNL     1      45.611   5.135   9.691  0.00  0.00    +0.000 A 
ATOM     21  C   UNL     1      45.876   5.901  10.831  0.00  0.00    +0.000 A 
BRANCH  19  22
ATOM     22  C   UNL     1      44.863   3.001   8.575  0.00  0.00    +0.000 C 
ATOM     23  F   UNL     1      45.988   2.602   7.918  0.00  0.00    +0.000 F 
ATOM     24  F   UNL     1      44.169   1.862   8.851  0.00  0.00    +0.000 F 
ATOM     25  F   UNL     1      44.118   3.679   7.658  0.00  0.00    +0.000 F 
ENDBRANCH  19  22
ENDBRANCH  14  16
ENDBRANCH   1  14
TORSDOF 5
ENDMDL
MODEL 6
REMARK VINA RESULT:    -5.880      2.143      3.210
REMARK INTER + INTRA:          -8.580
REMARK INTER:                  -7.978
REMARK INTRA:                  -0.603
REMARK UNBOUND:                -0.981
REMARK  Name = 
REMARK  7 active torsions:
REMARK  status: ('A' for Active; 'I' for Inactive)
REMARK    1  A    between atoms: C_1  and  N_2
REMARK    2  A    between atoms: N_2  and  C_3
REMARK    3  A    between atoms: C_4  and  C_6
REMARK    4  A    between atoms: C_9  and  C_10
REMARK    5  A    between atoms: C_10  and  N_11
REMARK    6  A    between atoms: N_11  and  C_12
REMARK    7  A    between atoms: C_15  and  C_16
REMARK                            x       y       z     vdW  Elec       q    Type
REMARK                         _______ _______ _______ _____ _____    ______ ____
ROOT
ATOM      1  C   UNL     1      45.535   7.699  12.596  0.00  0.00    +0.000 C 
ENDROOT
BRANCH   1   5
ATOM      2  C   UNL     1      49.344   7.495  14.519  0.00  0.00    +0.000 A 
ATOM      3  N   UNL     1      48.952   6.485  13.686  0.00  0.00    +0.000 NA
ATOM      4  C   UNL     1      47.753   6.602  13.072  0.00  0.00    +0.000 A 
ATOM      5  C   UNL     1      46.881   7.664  13.270  0.00  0.00    +0.000 A 
ATOM      6  C   UNL     1      47.314   8.699  14.104  0.00  0.00    +0.000 A 
ATOM      7  C   UNL     1      48.562   8.629  14.734  0.00  0.00    +0.000 A 
ATOM      8 CL   UNL     1      49.042   9.995  15.675  0.00  0.00    +0.000 Cl
BRANCH   2  12
ATOM      9  C   UNL     1      53.041   7.550  15.552  0.00  0.00    +0.000 C 
ATOM     10  N   UNL     1      51.843   7.778  14.764  0.00  0.00    +0.000 N 
ATOM     11  C   UNL     1      51.942   8.688  13.632  0.00  0.00    +0.000 C 
ATOM     12  C   UNL     1      50.635   7.265  15.259  0.00  0.00    +0.000 C 
ATOM     13  O   UNL     1      50.612   6.595  16.297  0.00  0.00    +0.000 OA
ENDBRANCH   2  12
ENDBRANCH   1   5
BRANCH   1  14
ATOM     14  N   UNL     1      44.815   6.466  12.866  0.00  0.00    +0.000 N 
ATOM     15  H   UNL     1      44.975   6.097  13.801  0.00  0.00    +0.000 HD
BRANCH  14  16
ATOM     16  C   UNL     1      44.790   5.438  11.919  0.00  0.00    +0.000 A 
ATOM     17  C   UNL     1      44.465   4.107  12.207  0.00  0.00    +0.000 A 
ATOM     18  C   UNL     1      44.510   3.116  11.216  0.00  0.00    +0.000 A 
ATOM     19  C   UNL     1      44.922   3.424   9.914  0.00  0.00    +0.000 A 
ATOM     20  C   UNL     1      45.287   4.744   9.627  0.00  0.00    +0.000 A 
ATOM     21  C   UNL     1      45.229   5.728  10.620  0.00  0.00    +0.000 A 
BRANCH  19  22
ATOM     22  C   UNL     1      44.992   2.368   8.838  0.00  0.00    +0.000 C 
ATOM     23  F   UNL     1      44.157   1.312   9.053  0.00  0.00    +0.000 F 
ATOM     24  F   UNL     1      44.668   2.854   7.608  0.00  0.00    +0.000 F 
ATOM     25  F   UNL     1      46.239   1.836   8.712  0.00  0.00    +0.000 F 
ENDBRANCH  19  22
ENDBRANCH  14  16
ENDBRANCH   1  14
TORSDOF 5
ENDMDL
MODEL 7
REMARK VINA RESULT:    -5.759      2.443      3.764
REMARK INTER + INTRA:          -8.423
REMARK INTER:                  -7.621
REMARK INTRA:                  -0.802
REMARK UNBOUND:                -0.981
REMARK  Name = 
REMARK  7 active torsions:
REMARK  status: ('A' for Active; 'I' for Inactive)
REMARK    1  A    between atoms: C_1  and  N_2
REMARK    2  A    between atoms: N_2  and  C_3
REMARK    3  A    between atoms: C_4  and  C_6
REMARK    4  A    between atoms: C_9  and  C_10
REMARK    5  A    between atoms: C_10  and  N_11
REMARK    6  A    between atoms: N_11  and  C_12
REMARK    7  A    between atoms: C_15  and  C_16
REMARK                            x       y       z     vdW  Elec       q    Type
REMARK                         _______ _______ _______ _____ _____    ______ ____
ROOT
ATOM      1  C   UNL     1      45.826   7.880  12.615  0.00  0.00    +0.000 C 
ENDROOT
BRANCH   1   5
ATOM      2  C   UNL     1      49.959   8.446  13.531  0.00  0.00    +0.000 A 
ATOM      3  N   UNL     1      49.016   8.668  14.496  0.00  0.00    +0.000 NA
ATOM      4  C   UNL     1      47.721   8.446  14.175  0.00  0.00    +0.000 A 
ATOM      5  C   UNL     1      47.291   8.051  12.916  0.00  0.00    +0.000 A 
ATOM      6  C   UNL     1      48.274   7.803  11.954  0.00  0.00    +0.000 A 
ATOM      7  C   UNL     1      49.628   7.991  12.256  0.00  0.00    +0.000 A 
ATOM      8 CL   UNL     1      50.770   7.576  11.028  0.00  0.00    +0.000 Cl
BRANCH   2  12
ATOM      9  C   UNL     1      53.260  10.354  13.980  0.00  0.00    +0.000 C 
ATOM     10  N   UNL     1      51.905  10.058  13.550  0.00  0.00    +0.000 N 
ATOM     11  C   UNL     1      51.130  11.142  12.964  0.00  0.00    +0.000 C 
ATOM     12  C   UNL     1      51.371   8.810  13.906  0.00  0.00    +0.000 C 
ATOM     13  O   UNL     1      52.057   7.979  14.510  0.00  0.00    +0.000 OA
ENDBRANCH   2  12
ENDBRANCH   1   5
BRANCH   1  14
ATOM     14  N   UNL     1      45.387   6.558  13.026  0.00  0.00    +0.000 N 
ATOM     15  H   UNL     1      45.863   6.210  13.856  0.00  0.00    +0.000 HD
BRANCH  14  16
ATOM     16  C   UNL     1      45.221   5.540  12.081  0.00  0.00    +0.000 A 
ATOM     17  C   UNL     1      44.991   4.197  12.399  0.00  0.00    +0.000 A 
ATOM     18  C   UNL     1      44.885   3.219  11.399  0.00  0.00    +0.000 A 
ATOM     19  C   UNL     1      45.047   3.555  10.050  0.00  0.00    +0.000 A 
ATOM     20  C   UNL     1      45.318   4.890   9.725  0.00  0.00    +0.000 A 
ATOM     21  C   UNL     1      45.411   5.860  10.729  0.00  0.00    +0.000 A 
BRANCH  19  22
ATOM     22  C   UNL     1      44.953   2.515   8.960  0.00  0.00    +0.000 C 
ATOM     23  F   UNL     1      44.195   1.435   9.300  0.00  0.00    +0.000 F 
ATOM     24  F   UNL     1      44.405   3.008   7.815  0.00  0.00    +0.000 F 
ATOM     25  F   UNL     1      46.171   2.019   8.608  0.00  0.00    +0.000 F 
ENDBRANCH  19  22
ENDBRANCH  14  16
ENDBRANCH   1  14
TORSDOF 5
ENDMDL
MODEL 8
REMARK VINA RESULT:    -5.536      4.767      5.963
REMARK INTER + INTRA:          -8.135
REMARK INTER:                  -7.509
REMARK INTRA:                  -0.626
REMARK UNBOUND:                -0.981
REMARK  Name = 
REMARK  7 active torsions:
REMARK  status: ('A' for Active; 'I' for Inactive)
REMARK    1  A    between atoms: C_1  and  N_2
REMARK    2  A    between atoms: N_2  and  C_3
REMARK    3  A    between atoms: C_4  and  C_6
REMARK    4  A    between atoms: C_9  and  C_10
REMARK    5  A    between atoms: C_10  and  N_11
REMARK    6  A    between atoms: N_11  and  C_12
REMARK    7  A    between atoms: C_15  and  C_16
REMARK                            x       y       z     vdW  Elec       q    Type
REMARK                         _______ _______ _______ _____ _____    ______ ____
ROOT
ATOM      1  C   UNL     1      47.183   4.017  16.151  0.00  0.00    +0.000 C 
ENDROOT
BRANCH   1   5
ATOM      2  C   UNL     1      50.841   4.277  18.340  0.00  0.00    +0.000 A 
ATOM      3  N   UNL     1      49.941   5.304  18.403  0.00  0.00    +0.000 NA
ATOM      4  C   UNL     1      48.782   5.170  17.721  0.00  0.00    +0.000 A 
ATOM      5  C   UNL     1      48.470   4.073  16.930  0.00  0.00    +0.000 A 
ATOM      6  C   UNL     1      49.393   3.022  16.902  0.00  0.00    +0.000 A 
ATOM      7  C   UNL     1      50.592   3.110  17.619  0.00  0.00    +0.000 A 
ATOM      8 CL   UNL     1      51.624   1.727  17.591  0.00  0.00    +0.000 Cl
BRANCH   2  12
ATOM      9  C   UNL     1      54.460   5.336  19.066  0.00  0.00    +0.000 C 
ATOM     10  N   UNL     1      53.233   5.093  18.327  0.00  0.00    +0.000 N 
ATOM     11  C   UNL     1      53.135   5.638  16.981  0.00  0.00    +0.000 C 
ATOM     12  C   UNL     1      52.159   4.523  19.027  0.00  0.00    +0.000 C 
ATOM     13  O   UNL     1      52.281   4.190  20.210  0.00  0.00    +0.000 OA
ENDBRANCH   2  12
ENDBRANCH   1   5
BRANCH   1  14
ATOM     14  N   UNL     1      47.151   5.089  15.170  0.00  0.00    +0.000 N 
ATOM     15  H   UNL     1      46.933   5.999  15.568  0.00  0.00    +0.000 HD
BRANCH  14  16
ATOM     16  C   UNL     1      46.501   4.909  13.945  0.00  0.00    +0.000 A 
ATOM     17  C   UNL     1      45.923   5.943  13.200  0.00  0.00    +0.000 A 
ATOM     18  C   UNL     1      45.241   5.683  12.002  0.00  0.00    +0.000 A 
ATOM     19  C   UNL     1      45.086   4.372  11.536  0.00  0.00    +0.000 A 
ATOM     20  C   UNL     1      45.627   3.328  12.297  0.00  0.00    +0.000 A 
ATOM     21  C   UNL     1      46.314   3.598  13.485  0.00  0.00    +0.000 A 
BRANCH  19  22
ATOM     22  C   UNL     1      44.342   4.071  10.258  0.00  0.00    +0.000 C 
ATOM     23  F   UNL     1      43.338   4.952   9.990  0.00  0.00    +0.000 F 
ATOM     24  F   UNL     1      45.155   4.089   9.165  0.00  0.00    +0.000 F 
ATOM     25  F   UNL     1      43.762   2.839  10.271  0.00  0.00    +0.000 F 
ENDBRANCH  19  22
ENDBRANCH  14  16
ENDBRANCH   1  14
TORSDOF 5
ENDMDL
MODEL 9
REMARK VINA RESULT:    -5.271      2.571      3.719
REMARK INTER + INTRA:          -7.793
REMARK INTER:                  -6.973
REMARK INTRA:                  -0.820
REMARK UNBOUND:                -0.981
REMARK  Name = 
REMARK  7 active torsions:
REMARK  status: ('A' for Active; 'I' for Inactive)
REMARK    1  A    between atoms: C_1  and  N_2
REMARK    2  A    between atoms: N_2  and  C_3
REMARK    3  A    between atoms: C_4  and  C_6
REMARK    4  A    between atoms: C_9  and  C_10
REMARK    5  A    between atoms: C_10  and  N_11
REMARK    6  A    between atoms: N_11  and  C_12
REMARK    7  A    between atoms: C_15  and  C_16
REMARK                            x       y       z     vdW  Elec       q    Type
REMARK                         _______ _______ _______ _____ _____    ______ ____
ROOT
ATOM      1  C   UNL     1      47.079   6.205  13.881  0.00  0.00    +0.000 C 
ENDROOT
BRANCH   1   5
ATOM      2  C   UNL     1      49.927   9.231  12.894  0.00  0.00    +0.000 A 
ATOM      3  N   UNL     1      50.310   8.167  13.662  0.00  0.00    +0.000 NA
ATOM      4  C   UNL     1      49.387   7.215  13.926  0.00  0.00    +0.000 A 
ATOM      5  C   UNL     1      48.067   7.275  13.499  0.00  0.00    +0.000 A 
ATOM      6  C   UNL     1      47.706   8.357  12.691  0.00  0.00    +0.000 A 
ATOM      7  C   UNL     1      48.641   9.348  12.370  0.00  0.00    +0.000 A 
ATOM      8 CL   UNL     1      48.121  10.597  11.297  0.00  0.00    +0.000 Cl
BRANCH   2  12
ATOM      9  C   UNL     1      52.838  11.346  11.552  0.00  0.00    +0.000 C 
ATOM     10  N   UNL     1      51.898  10.245  11.680  0.00  0.00    +0.000 N 
ATOM     11  C   UNL     1      51.863   9.259  10.610  0.00  0.00    +0.000 C 
ATOM     12  C   UNL     1      50.960  10.314  12.721  0.00  0.00    +0.000 C 
ATOM     13  O   UNL     1      50.978  11.249  13.527  0.00  0.00    +0.000 OA
ENDBRANCH   2  12
ENDBRANCH   1   5
BRANCH   1  14
ATOM     14  N   UNL     1      45.864   6.353  13.099  0.00  0.00    +0.000 N 
ATOM     15  H   UNL     1      45.035   6.532  13.663  0.00  0.00    +0.000 HD
BRANCH  14  16
ATOM     16  C   UNL     1      45.577   5.464  12.058  0.00  0.00    +0.000 A 
ATOM     17  C   UNL     1      45.205   4.128  12.241  0.00  0.00    +0.000 A 
ATOM     18  C   UNL     1      44.981   3.278  11.148  0.00  0.00    +0.000 A 
ATOM     19  C   UNL     1      45.164   3.735   9.837  0.00  0.00    +0.000 A 
ATOM     20  C   UNL     1      45.576   5.059   9.646  0.00  0.00    +0.000 A 
ATOM     21  C   UNL     1      45.786   5.902  10.742  0.00  0.00    +0.000 A 
BRANCH  19  22
ATOM     22  C   UNL     1      44.945   2.831   8.648  0.00  0.00    +0.000 C 
ATOM     23  F   UNL     1      46.099   2.358   8.100  0.00  0.00    +0.000 F 
ATOM     24  F   UNL     1      44.203   1.732   8.959  0.00  0.00    +0.000 F 
ATOM     25  F   UNL     1      44.281   3.455   7.636  0.00  0.00    +0.000 F 
ENDBRANCH  19  22
ENDBRANCH  14  16
ENDBRANCH   1  14
TORSDOF 5
ENDMDL
