MODEL 1
REMARK VINA RESULT:    -7.708      0.000      0.000
REMARK INTER + INTRA:         -10.503
REMARK INTER:                  -9.961
REMARK INTRA:                  -0.542
REMARK UNBOUND:                -0.542
REMARK  Name = 
REMARK  8 active torsions:
REMARK  status: ('A' for Active; 'I' for Inactive)
REMARK    1  A    between atoms: C_1  and  N_2
REMARK    2  A    between atoms: C_3  and  C_5
REMARK    3  A    between atoms: C_8  and  C_9
REMARK    4  A    between atoms: C_9  and  N_10
REMARK    5  A    between atoms: C_9  and  C_11
REMARK    6  A    between atoms: C_11  and  C_12
REMARK    7  A    between atoms: C_15  and  O_16
REMARK    8  A    between atoms: C_19  and  C_20
REMARK                            x       y       z     vdW  Elec       q    Type
REMARK                         _______ _______ _______ _____ _____    ______ ____
ROOT
ATOM      1  C   UNL     1      44.695   3.051  10.686  0.00  0.00    +0.000 C 
ENDROOT
BRANCH   1   5
ATOM      2  C   UNL     1      45.888   6.746  12.510  0.00  0.00    +0.000 A 
ATOM      3  C   UNL     1      45.216   6.793  11.305  0.00  0.00    +0.000 A 
ATOM      4  C   UNL     1      44.840   5.590  10.718  0.00  0.00    +0.000 A 
ATOM      5  C   UNL     1      45.172   4.358  11.314  0.00  0.00    +0.000 A 
ATOM      6  C   UNL     1      45.894   4.413  12.523  0.00  0.00    +0.000 A 
ATOM      7  C   UNL     1      46.356   3.197  13.276  0.00  0.00    +0.000 C 
ATOM      8  N   UNL     1      46.223   5.587  13.138  0.00  0.00    +0.000 NA
BRANCH   2  11
ATOM      9  C   UNL     1      47.836   9.118  14.731  0.00  0.00    +0.000 C 
ATOM     10  N   UNL     1      47.357   7.961  14.024  0.00  0.00    +0.000 N 
ATOM     11  C   UNL     1      46.263   8.031  13.186  0.00  0.00    +0.000 C 
ATOM     12  O   UNL     1      45.618   9.059  13.004  0.00  0.00    +0.000 OA
ATOM     13  H   UNL     1      47.790   7.050  14.144  0.00  0.00    +0.000 HD
ENDBRANCH   2  11
ENDBRANCH   1   5
BRANCH   1  14
ATOM     14  N   UNL     1      43.511   2.567  11.423  0.00  0.00    +0.000 NA
ATOM     15  H   UNL     1      43.264   1.634  11.088  0.00  0.00    +0.000 HD
ATOM     16  H   UNL     1      42.711   3.160  11.207  0.00  0.00    +0.000 HD
ENDBRANCH   1  14
BRANCH   1  17
ATOM     17  C   UNL     1      44.349   3.084   9.180  0.00  0.00    +0.000 C 
BRANCH  17  18
ATOM     18  C   UNL     1      45.514   2.708   8.303  0.00  0.00    +0.000 A 
ATOM     19  N   UNL     1      46.001   1.455   8.404  0.00  0.00    +0.000 NA
ATOM     20  C   UNL     1      47.018   1.139   7.572  0.00  0.00    +0.000 A 
ATOM     21  C   UNL     1      47.550   2.016   6.658  0.00  0.00    +0.000 A 
ATOM     22  C   UNL     1      46.984   3.268   6.634  0.00  0.00    +0.000 A 
ATOM     23  N   UNL     1      45.968   3.639   7.442  0.00  0.00    +0.000 NA
BRANCH  21  24
ATOM     24  O   UNL     1      48.564   1.705   5.811  0.00  0.00    +0.000 OA
ATOM     25  H   UNL     1      48.289   0.976   5.231  0.00  0.00    +0.000 HD
ENDBRANCH  21  24
ENDBRANCH  17  18
ENDBRANCH   1  17
TORSDOF 6
ENDMDL
MODEL 2
REMARK VINA RESULT:    -7.643      2.121      2.768
REMARK INTER + INTRA:         -10.419
REMARK INTER:                 -10.473
REMARK INTRA:                   0.054
REMARK UNBOUND:                -0.542
REMARK  Name = 
REMARK  8 active torsions:
REMARK  status: ('A' for Active; 'I' for Inactive)
REMARK    1  A    between atoms: C_1  and  N_2
REMARK    2  A    between atoms: C_3  and  C_5
REMARK    3  A    between atoms: C_8  and  C_9
REMARK    4  A    between atoms: C_9  and  N_10
REMARK    5  A    between atoms: C_9  and  C_11
REMARK    6  A    between atoms: C_11  and  C_12
REMARK    7  A    between atoms: C_15  and  O_16
REMARK    8  A    between atoms: C_19  and  C_20
REMARK                            x       y       z     vdW  Elec       q    Type
REMARK                         _______ _______ _______ _____ _____    ______ ____
ROOT
ATOM      1  C   UNL     1      44.703   4.703   9.925  0.00  0.00    +0.000 C 
ENDROOT
BRANCH   1   5
ATOM      2  C   UNL     1      46.462   4.461  13.830  0.00  0.00    +0.000 A 
ATOM      3  C   UNL     1      46.250   3.290  13.129  0.00  0.00    +0.000 A 
ATOM      4  C   UNL     1      45.673   3.379  11.867  0.00  0.00    +0.000 A 
ATOM      5  C   UNL     1      45.277   4.621  11.337  0.00  0.00    +0.000 A 
ATOM      6  C   UNL     1      45.498   5.755  12.146  0.00  0.00    +0.000 A 
ATOM      7  C   UNL     1      45.108   7.152  11.749  0.00  0.00    +0.000 C 
ATOM      8  N   UNL     1      46.112   5.690  13.363  0.00  0.00    +0.000 NA
BRANCH   2  11
ATOM      9  C   UNL     1      48.340   5.667  16.892  0.00  0.00    +0.000 C 
ATOM     10  N   UNL     1      47.679   5.579  15.617  0.00  0.00    +0.000 N 
ATOM     11  C   UNL     1      47.125   4.396  15.174  0.00  0.00    +0.000 C 
ATOM     12  O   UNL     1      47.175   3.348  15.810  0.00  0.00    +0.000 OA
ATOM     13  H   UNL     1      47.628   6.377  14.991  0.00  0.00    +0.000 HD
ENDBRANCH   2  11
ENDBRANCH   1   5
BRANCH   1  14
ATOM     14  N   UNL     1      45.632   5.472   9.072  0.00  0.00    +0.000 NA
ATOM     15  H   UNL     1      45.224   6.386   8.870  0.00  0.00    +0.000 HD
ATOM     16  H   UNL     1      45.729   5.005   8.171  0.00  0.00    +0.000 HD
ENDBRANCH   1  14
BRANCH   1  17
ATOM     17  C   UNL     1      44.391   3.364   9.219  0.00  0.00    +0.000 C 
BRANCH  17  18
ATOM     18  C   UNL     1      45.487   2.925   8.285  0.00  0.00    +0.000 A 
ATOM     19  N   UNL     1      46.058   1.722   8.502  0.00  0.00    +0.000 NA
ATOM     20  C   UNL     1      47.007   1.341   7.620  0.00  0.00    +0.000 A 
ATOM     21  C   UNL     1      47.396   2.106   6.546  0.00  0.00    +0.000 A 
ATOM     22  C   UNL     1      46.755   3.314   6.414  0.00  0.00    +0.000 A 
ATOM     23  N   UNL     1      45.800   3.746   7.264  0.00  0.00    +0.000 NA
BRANCH  21  24
ATOM     24  O   UNL     1      48.341   1.729   5.649  0.00  0.00    +0.000 OA
ATOM     25  H   UNL     1      48.555   0.790   5.780  0.00  0.00    +0.000 HD
ENDBRANCH  21  24
ENDBRANCH  17  18
ENDBRANCH   1  17
TORSDOF 6
ENDMDL
MODEL 3
REMARK VINA RESULT:    -6.949      2.004      6.391
REMARK INTER + INTRA:          -9.523
REMARK INTER:                  -9.230
REMARK INTRA:                  -0.293
REMARK UNBOUND:                -0.542
REMARK  Name = 
REMARK  8 active torsions:
REMARK  status: ('A' for Active; 'I' for Inactive)
REMARK    1  A    between atoms: C_1  and  N_2
REMARK    2  A    between atoms: C_3  and  C_5
REMARK    3  A    between atoms: C_8  and  C_9
REMARK    4  A    between atoms: C_9  and  N_10
REMARK    5  A    between atoms: C_9  and  C_11
REMARK    6  A    between atoms: C_11  and  C_12
REMARK    7  A    between atoms: C_15  and  O_16
REMARK    8  A    between atoms: C_19  and  C_20
REMARK                            x       y       z     vdW  Elec       q    Type
REMARK                         _______ _______ _______ _____ _____    ______ ____
ROOT
ATOM      1  C   UNL     1      43.424   5.617  11.504  0.00  0.00    +0.000 C 
ENDROOT
BRANCH   1   5
ATOM      2  C   UNL     1      45.555   2.970   8.885  0.00  0.00    +0.000 A 
ATOM      3  C   UNL     1      45.615   4.328   8.641  0.00  0.00    +0.000 A 
ATOM      4  C   UNL     1      44.915   5.177   9.491  0.00  0.00    +0.000 A 
ATOM      5  C   UNL     1      44.133   4.665  10.544  0.00  0.00    +0.000 A 
ATOM      6  C   UNL     1      44.103   3.263  10.687  0.00  0.00    +0.000 A 
ATOM      7  C   UNL     1      43.297   2.548  11.736  0.00  0.00    +0.000 C 
ATOM      8  N   UNL     1      44.827   2.420   9.894  0.00  0.00    +0.000 NA
BRANCH   2  11
ATOM      9  C   UNL     1      47.878   1.871   6.102  0.00  0.00    +0.000 C 
ATOM     10  N   UNL     1      47.072   2.641   7.010  0.00  0.00    +0.000 N 
ATOM     11  C   UNL     1      46.338   2.037   8.010  0.00  0.00    +0.000 C 
ATOM     12  O   UNL     1      46.302   0.823   8.181  0.00  0.00    +0.000 OA
ATOM     13  H   UNL     1      46.994   3.650   6.924  0.00  0.00    +0.000 HD
ENDBRANCH   2  11
ENDBRANCH   1   5
BRANCH   1  14
ATOM     14  N   UNL     1      41.969   5.375  11.435  0.00  0.00    +0.000 NA
ATOM     15  H   UNL     1      41.648   5.527  10.477  0.00  0.00    +0.000 HD
ATOM     16  H   UNL     1      41.483   6.067  12.004  0.00  0.00    +0.000 HD
ENDBRANCH   1  14
BRANCH   1  17
ATOM     17  C   UNL     1      43.856   5.564  12.986  0.00  0.00    +0.000 C 
BRANCH  17  18
ATOM     18  C   UNL     1      45.324   5.834  13.179  0.00  0.00    +0.000 A 
ATOM     19  N   UNL     1      46.091   4.837  13.667  0.00  0.00    +0.000 NA
ATOM     20  C   UNL     1      47.410   5.100  13.787  0.00  0.00    +0.000 A 
ATOM     21  C   UNL     1      47.979   6.302  13.439  0.00  0.00    +0.000 A 
ATOM     22  C   UNL     1      47.113   7.251  12.953  0.00  0.00    +0.000 A 
ATOM     23  N   UNL     1      45.787   7.045  12.812  0.00  0.00    +0.000 NA
BRANCH  21  24
ATOM     24  O   UNL     1      49.304   6.572  13.546  0.00  0.00    +0.000 OA
ATOM     25  H   UNL     1      49.774   5.777  13.847  0.00  0.00    +0.000 HD
ENDBRANCH  21  24
ENDBRANCH  17  18
ENDBRANCH   1  17
TORSDOF 6
ENDMDL
MODEL 4
REMARK VINA RESULT:    -6.802      2.023      2.757
REMARK INTER + INTRA:          -9.332
REMARK INTER:                  -8.620
REMARK INTRA:                  -0.712
REMARK UNBOUND:                -0.542
REMARK  Name = 
REMARK  8 active torsions:
REMARK  status: ('A' for Active; 'I' for Inactive)
REMARK    1  A    between atoms: C_1  and  N_2
REMARK    2  A    between atoms: C_3  and  C_5
REMARK    3  A    between atoms: C_8  and  C_9
REMARK    4  A    between atoms: C_9  and  N_10
REMARK    5  A    between atoms: C_9  and  C_11
REMARK    6  A    between atoms: C_11  and  C_12
REMARK    7  A    between atoms: C_15  and  O_16
REMARK    8  A    between atoms: C_19  and  C_20
REMARK                            x       y       z     vdW  Elec       q    Type
REMARK                         _______ _______ _______ _____ _____    ______ ____
ROOT
ATOM      1  C   UNL     1      43.893   4.908  12.391  0.00  0.00    +0.000 C 
ENDROOT
BRANCH   1   5
ATOM      2  C   UNL     1      47.681   6.664  13.372  0.00  0.00    +0.000 A 
ATOM      3  C   UNL     1      46.670   7.489  12.919  0.00  0.00    +0.000 A 
ATOM      4  C   UNL     1      45.448   6.909  12.597  0.00  0.00    +0.000 A 
ATOM      5  C   UNL     1      45.260   5.517  12.688  0.00  0.00    +0.000 A 
ATOM      6  C   UNL     1      46.365   4.755  13.122  0.00  0.00    +0.000 A 
ATOM      7  C   UNL     1      46.348   3.257  13.246  0.00  0.00    +0.000 C 
ATOM      8  N   UNL     1      47.553   5.315  13.493  0.00  0.00    +0.000 NA
BRANCH   2  11
ATOM      9  C   UNL     1      50.702   7.417  15.531  0.00  0.00    +0.000 C 
ATOM     10  N   UNL     1      49.454   6.917  15.021  0.00  0.00    +0.000 N 
ATOM     11  C   UNL     1      48.994   7.272  13.770  0.00  0.00    +0.000 C 
ATOM     12  O   UNL     1      49.592   8.041  13.024  0.00  0.00    +0.000 OA
ATOM     13  H   UNL     1      48.857   6.313  15.579  0.00  0.00    +0.000 HD
ENDBRANCH   2  11
ENDBRANCH   1   5
BRANCH   1  14
ATOM     14  N   UNL     1      42.884   5.539  13.265  0.00  0.00    +0.000 NA
ATOM     15  H   UNL     1      42.666   4.907  14.037  0.00  0.00    +0.000 HD
ATOM     16  H   UNL     1      42.014   5.656  12.749  0.00  0.00    +0.000 HD
ENDBRANCH   1  14
BRANCH   1  17
ATOM     17  C   UNL     1      43.392   4.994  10.931  0.00  0.00    +0.000 C 
BRANCH  17  18
ATOM     18  C   UNL     1      44.183   4.127   9.988  0.00  0.00    +0.000 A 
ATOM     19  N   UNL     1      45.016   4.735   9.119  0.00  0.00    +0.000 NA
ATOM     20  C   UNL     1      45.742   3.925   8.318  0.00  0.00    +0.000 A 
ATOM     21  C   UNL     1      45.666   2.553   8.358  0.00  0.00    +0.000 A 
ATOM     22  C   UNL     1      44.787   2.032   9.276  0.00  0.00    +0.000 A 
ATOM     23  N   UNL     1      44.037   2.793  10.102  0.00  0.00    +0.000 NA
BRANCH  21  24
ATOM     24  O   UNL     1      46.397   1.731   7.564  0.00  0.00    +0.000 OA
ATOM     25  H   UNL     1      45.876   0.939   7.352  0.00  0.00    +0.000 HD
ENDBRANCH  21  24
ENDBRANCH  17  18
ENDBRANCH   1  17
TORSDOF 6
ENDMDL
MODEL 5
REMARK VINA RESULT:    -6.139      4.369      6.740
REMARK INTER + INTRA:          -8.475
REMARK INTER:                  -7.605
REMARK INTRA:                  -0.870
REMARK UNBOUND:                -0.542
REMARK  Name = 
REMARK  8 active torsions:
REMARK  status: ('A' for Active; 'I' for Inactive)
REMARK    1  A    between atoms: C_1  and  N_2
REMARK    2  A    between atoms: C_3  and  C_5
REMARK    3  A    between atoms: C_8  and  C_9
REMARK    4  A    between atoms: C_9  and  N_10
REMARK    5  A    between atoms: C_9  and  C_11
REMARK    6  A    between atoms: C_11  and  C_12
REMARK    7  A    between atoms: C_15  and  O_16
REMARK    8  A    between atoms: C_19  and  C_20
REMARK                            x       y       z     vdW  Elec       q    Type
REMARK                         _______ _______ _______ _____ _____    ______ ____
ROOT
ATOM      1  C   UNL     1      47.026   5.370  13.220  0.00  0.00    +0.000 C 
ENDROOT
BRANCH   1   5
ATOM      2  C   UNL     1      44.846   8.775  11.786  0.00  0.00    +0.000 A 
ATOM      3  C   UNL     1      45.722   8.950  12.839  0.00  0.00    +0.000 A 
ATOM      4  C   UNL     1      46.419   7.838  13.301  0.00  0.00    +0.000 A 
ATOM      5  C   UNL     1      46.205   6.565  12.741  0.00  0.00    +0.000 A 
ATOM      6  C   UNL     1      45.261   6.481  11.697  0.00  0.00    +0.000 A 
ATOM      7  C   UNL     1      44.889   5.198  11.008  0.00  0.00    +0.000 C 
ATOM      8  N   UNL     1      44.610   7.572  11.197  0.00  0.00    +0.000 NA
BRANCH   2  11
ATOM      9  C   UNL     1      42.717  10.813   9.405  0.00  0.00    +0.000 C 
ATOM     10  N   UNL     1      43.464   9.762  10.042  0.00  0.00    +0.000 N 
ATOM     11  C   UNL     1      44.117   9.967  11.240  0.00  0.00    +0.000 C 
ATOM     12  O   UNL     1      44.129  11.045  11.826  0.00  0.00    +0.000 OA
ATOM     13  H   UNL     1      43.559   8.845   9.614  0.00  0.00    +0.000 HD
ENDBRANCH   2  11
ENDBRANCH   1   5
BRANCH   1  14
ATOM     14  N   UNL     1      48.265   5.861  13.856  0.00  0.00    +0.000 NA
ATOM     15  H   UNL     1      48.827   6.354  13.161  0.00  0.00    +0.000 HD
ATOM     16  H   UNL     1      48.828   5.068  14.158  0.00  0.00    +0.000 HD
ENDBRANCH   1  14
BRANCH   1  17
ATOM     17  C   UNL     1      46.333   4.393  14.196  0.00  0.00    +0.000 C 
BRANCH  17  18
ATOM     18  C   UNL     1      47.199   4.028  15.373  0.00  0.00    +0.000 A 
ATOM     19  N   UNL     1      47.187   4.848  16.444  0.00  0.00    +0.000 NA
ATOM     20  C   UNL     1      47.941   4.468  17.497  0.00  0.00    +0.000 A 
ATOM     21  C   UNL     1      48.690   3.316  17.518  0.00  0.00    +0.000 A 
ATOM     22  C   UNL     1      48.635   2.550  16.379  0.00  0.00    +0.000 A 
ATOM     23  N   UNL     1      47.899   2.880  15.296  0.00  0.00    +0.000 NA
BRANCH  21  24
ATOM     24  O   UNL     1      49.443   2.920  18.575  0.00  0.00    +0.000 OA
ATOM     25  H   UNL     1      49.520   1.951  18.573  0.00  0.00    +0.000 HD
ENDBRANCH  21  24
ENDBRANCH  17  18
ENDBRANCH   1  17
TORSDOF 6
ENDMDL
MODEL 6
REMARK VINA RESULT:    -6.098      1.979      6.770
REMARK INTER + INTRA:          -8.423
REMARK INTER:                  -7.877
REMARK INTRA:                  -0.546
REMARK UNBOUND:                -0.542
REMARK  Name = 
REMARK  8 active torsions:
REMARK  status: ('A' for Active; 'I' for Inactive)
REMARK    1  A    between atoms: C_1  and  N_2
REMARK    2  A    between atoms: C_3  and  C_5
REMARK    3  A    between atoms: C_8  and  C_9
REMARK    4  A    between atoms: C_9  and  N_10
REMARK    5  A    between atoms: C_9  and  C_11
REMARK    6  A    between atoms: C_11  and  C_12
REMARK    7  A    between atoms: C_15  and  O_16
REMARK    8  A    between atoms: C_19  and  C_20
REMARK                            x       y       z     vdW  Elec       q    Type
REMARK                         _______ _______ _______ _____ _____    ______ ____
ROOT
ATOM      1  C   UNL     1      43.643   4.845  11.483  0.00  0.00    +0.000 C 
ENDROOT
BRANCH   1   5
ATOM      2  C   UNL     1      45.858   2.870   8.385  0.00  0.00    +0.000 A 
ATOM      3  C   UNL     1      44.963   2.128   9.130  0.00  0.00    +0.000 A 
ATOM      4  C   UNL     1      44.255   2.776  10.137  0.00  0.00    +0.000 A 
ATOM      5  C   UNL     1      44.475   4.138  10.416  0.00  0.00    +0.000 A 
ATOM      6  C   UNL     1      45.438   4.800   9.627  0.00  0.00    +0.000 A 
ATOM      7  C   UNL     1      45.819   6.243   9.810  0.00  0.00    +0.000 C 
ATOM      8  N   UNL     1      46.101   4.192   8.600  0.00  0.00    +0.000 NA
BRANCH   2  11
ATOM      9  C   UNL     1      47.666   2.531   5.073  0.00  0.00    +0.000 C 
ATOM     10  N   UNL     1      46.945   3.031   6.213  0.00  0.00    +0.000 N 
ATOM     11  C   UNL     1      46.599   2.206   7.263  0.00  0.00    +0.000 C 
ATOM     12  O   UNL     1      46.855   1.007   7.291  0.00  0.00    +0.000 OA
ATOM     13  H   UNL     1      46.640   3.999   6.265  0.00  0.00    +0.000 HD
ENDBRANCH   2  11
ENDBRANCH   1   5
BRANCH   1  14
ATOM     14  N   UNL     1      42.211   4.591  11.223  0.00  0.00    +0.000 NA
ATOM     15  H   UNL     1      41.652   5.058  11.938  0.00  0.00    +0.000 HD
ATOM     16  H   UNL     1      42.020   3.596  11.326  0.00  0.00    +0.000 HD
ENDBRANCH   1  14
BRANCH   1  17
ATOM     17  C   UNL     1      43.940   4.483  12.955  0.00  0.00    +0.000 C 
BRANCH  17  18
ATOM     18  C   UNL     1      45.302   4.940  13.407  0.00  0.00    +0.000 A 
ATOM     19  N   UNL     1      45.708   6.173  13.043  0.00  0.00    +0.000 NA
ATOM     20  C   UNL     1      46.916   6.566  13.502  0.00  0.00    +0.000 A 
ATOM     21  C   UNL     1      47.716   5.783  14.300  0.00  0.00    +0.000 A 
ATOM     22  C   UNL     1      47.212   4.544  14.613  0.00  0.00    +0.000 A 
ATOM     23  N   UNL     1      46.013   4.099  14.184  0.00  0.00    +0.000 NA
BRANCH  21  24
ATOM     24  O   UNL     1      48.927   6.172  14.773  0.00  0.00    +0.000 OA
ATOM     25  H   UNL     1      48.825   6.520  15.675  0.00  0.00    +0.000 HD
ENDBRANCH  21  24
ENDBRANCH  17  18
ENDBRANCH   1  17
TORSDOF 6
ENDMDL
MODEL 7
REMARK VINA RESULT:    -6.020      3.691      5.391
REMARK INTER + INTRA:          -8.322
REMARK INTER:                  -7.701
REMARK INTRA:                  -0.622
REMARK UNBOUND:                -0.542
REMARK  Name = 
REMARK  8 active torsions:
REMARK  status: ('A' for Active; 'I' for Inactive)
REMARK    1  A    between atoms: C_1  and  N_2
REMARK    2  A    between atoms: C_3  and  C_5
REMARK    3  A    between atoms: C_8  and  C_9
REMARK    4  A    between atoms: C_9  and  N_10
REMARK    5  A    between atoms: C_9  and  C_11
REMARK    6  A    between atoms: C_11  and  C_12
REMARK    7  A    between atoms: C_15  and  O_16
REMARK    8  A    between atoms: C_19  and  C_20
REMARK                            x       y       z     vdW  Elec       q    Type
REMARK                         _______ _______ _______ _____ _____    ______ ____
ROOT
ATOM      1  C   UNL     1      45.521   7.811  12.634  0.00  0.00    +0.000 C 
ENDROOT
BRANCH   1   5
ATOM      2  C   UNL     1      49.775   7.954  12.097  0.00  0.00    +0.000 A 
ATOM      3  C   UNL     1      49.022   9.033  11.679  0.00  0.00    +0.000 A 
ATOM      4  C   UNL     1      47.643   8.974  11.851  0.00  0.00    +0.000 A 
ATOM      5  C   UNL     1      47.029   7.830  12.396  0.00  0.00    +0.000 A 
ATOM      6  C   UNL     1      47.879   6.764  12.755  0.00  0.00    +0.000 A 
ATOM      7  C   UNL     1      47.390   5.460  13.320  0.00  0.00    +0.000 C 
ATOM      8  N   UNL     1      49.238   6.829  12.642  0.00  0.00    +0.000 NA
BRANCH   2  11
ATOM      9  C   UNL     1      53.206   7.331  10.616  0.00  0.00    +0.000 C 
ATOM     10  N   UNL     1      51.791   7.351  10.873  0.00  0.00    +0.000 N 
ATOM     11  C   UNL     1      51.268   8.013  11.965  0.00  0.00    +0.000 C 
ATOM     12  O   UNL     1      51.958   8.600  12.792  0.00  0.00    +0.000 OA
ATOM     13  H   UNL     1      51.137   6.852  10.277  0.00  0.00    +0.000 HD
ENDBRANCH   2  11
ENDBRANCH   1   5
BRANCH   1  14
ATOM     14  N   UNL     1      45.084   9.156  13.059  0.00  0.00    +0.000 NA
ATOM     15  H   UNL     1      44.072   9.232  12.944  0.00  0.00    +0.000 HD
ATOM     16  H   UNL     1      45.488   9.855  12.439  0.00  0.00    +0.000 HD
ENDBRANCH   1  14
BRANCH   1  17
ATOM     17  C   UNL     1      44.633   7.363  11.452  0.00  0.00    +0.000 C 
BRANCH  17  18
ATOM     18  C   UNL     1      44.203   5.923  11.555  0.00  0.00    +0.000 A 
ATOM     19  N   UNL     1      43.721   5.491  12.739  0.00  0.00    +0.000 NA
ATOM     20  C   UNL     1      43.305   4.207  12.783  0.00  0.00    +0.000 A 
ATOM     21  C   UNL     1      43.349   3.357  11.704  0.00  0.00    +0.000 A 
ATOM     22  C   UNL     1      43.857   3.894  10.545  0.00  0.00    +0.000 A 
ATOM     23  N   UNL     1      44.288   5.168  10.442  0.00  0.00    +0.000 NA
BRANCH  21  24
ATOM     24  O   UNL     1      42.925   2.069  11.735  0.00  0.00    +0.000 OA
ATOM     25  H   UNL     1      43.633   1.503  12.085  0.00  0.00    +0.000 HD
ENDBRANCH  21  24
ENDBRANCH  17  18
ENDBRANCH   1  17
TORSDOF 6
ENDMDL
MODEL 8
REMARK VINA RESULT:    -5.811      4.260      5.769
REMARK INTER + INTRA:          -8.051
REMARK INTER:                  -7.366
REMARK INTRA:                  -0.686
REMARK UNBOUND:                -0.542
REMARK  Name = 
REMARK  8 active torsions:
REMARK  status: ('A' for Active; 'I' for Inactive)
REMARK    1  A    between atoms: C_1  and  N_2
REMARK    2  A    between atoms: C_3  and  C_5
REMARK    3  A    between atoms: C_8  and  C_9
REMARK    4  A    between atoms: C_9  and  N_10
REMARK    5  A    between atoms: C_9  and  C_11
REMARK    6  A    between atoms: C_11  and  C_12
REMARK    7  A    between atoms: C_15  and  O_16
REMARK    8  A    between atoms: C_19  and  C_20
REMARK                            x       y       z     vdW  Elec       q    Type
REMARK                         _______ _______ _______ _____ _____    ______ ____
ROOT
ATOM      1  C   UNL     1      47.031   4.602  14.001  0.00  0.00    +0.000 C 
ENDROOT
BRANCH   1   5
ATOM      2  C   UNL     1      48.445   5.037  18.028  0.00  0.00    +0.000 A 
ATOM      3  C   UNL     1      47.576   4.003  17.743  0.00  0.00    +0.000 A 
ATOM      4  C   UNL     1      47.118   3.874  16.436  0.00  0.00    +0.000 A 
ATOM      5  C   UNL     1      47.495   4.797  15.442  0.00  0.00    +0.000 A 
ATOM      6  C   UNL     1      48.354   5.842  15.840  0.00  0.00    +0.000 A 
ATOM      7  C   UNL     1      48.829   6.930  14.917  0.00  0.00    +0.000 C 
ATOM      8  N   UNL     1      48.854   5.950  17.106  0.00  0.00    +0.000 NA
BRANCH   2  11
ATOM      9  C   UNL     1      51.002   5.026  20.823  0.00  0.00    +0.000 C 
ATOM     10  N   UNL     1      50.342   4.927  19.549  0.00  0.00    +0.000 N 
ATOM     11  C   UNL     1      48.990   5.169  19.419  0.00  0.00    +0.000 C 
ATOM     12  O   UNL     1      48.262   5.456  20.363  0.00  0.00    +0.000 OA
ATOM     13  H   UNL     1      50.845   4.646  18.712  0.00  0.00    +0.000 HD
ENDBRANCH   2  11
ENDBRANCH   1   5
BRANCH   1  14
ATOM     14  N   UNL     1      47.064   3.162  13.675  0.00  0.00    +0.000 NA
ATOM     15  H   UNL     1      47.070   3.047  12.661  0.00  0.00    +0.000 HD
ATOM     16  H   UNL     1      46.205   2.722  14.000  0.00  0.00    +0.000 HD
ENDBRANCH   1  14
BRANCH   1  17
ATOM     17  C   UNL     1      45.633   5.150  13.636  0.00  0.00    +0.000 C 
BRANCH  17  18
ATOM     18  C   UNL     1      45.225   4.822  12.224  0.00  0.00    +0.000 A 
ATOM     19  N   UNL     1      45.737   5.573  11.228  0.00  0.00    +0.000 NA
ATOM     20  C   UNL     1      45.383   5.223   9.972  0.00  0.00    +0.000 A 
ATOM     21  C   UNL     1      44.553   4.165   9.684  0.00  0.00    +0.000 A 
ATOM     22  C   UNL     1      44.085   3.464  10.769  0.00  0.00    +0.000 A 
ATOM     23  N   UNL     1      44.404   3.768  12.045  0.00  0.00    +0.000 NA
BRANCH  21  24
ATOM     24  O   UNL     1      44.200   3.800   8.426  0.00  0.00    +0.000 OA
ATOM     25  H   UNL     1      44.083   4.595   7.879  0.00  0.00    +0.000 HD
ENDBRANCH  21  24
ENDBRANCH  17  18
ENDBRANCH   1  17
TORSDOF 6
ENDMDL
MODEL 9
REMARK VINA RESULT:    -5.608      4.172      7.425
REMARK INTER + INTRA:          -7.789
REMARK INTER:                  -7.573
REMARK INTRA:                  -0.216
REMARK UNBOUND:                -0.542
REMARK  Name = 
REMARK  8 active torsions:
REMARK  status: ('A' for Active; 'I' for Inactive)
REMARK    1  A    between atoms: C_1  and  N_2
REMARK    2  A    between atoms: C_3  and  C_5
REMARK    3  A    between atoms: C_8  and  C_9
REMARK    4  A    between atoms: C_9  and  N_10
REMARK    5  A    between atoms: C_9  and  C_11
REMARK    6  A    between atoms: C_11  and  C_12
REMARK    7  A    between atoms: C_15  and  O_16
REMARK    8  A    between atoms: C_19  and  C_20
REMARK                            x       y       z     vdW  Elec       q    Type
REMARK                         _______ _______ _______ _____ _____    ______ ____
ROOT
ATOM      1  C   UNL     1      48.304   6.085  15.129  0.00  0.00    +0.000 C 
ENDROOT
BRANCH   1   5
ATOM      2  C   UNL     1      45.656   5.136  11.890  0.00  0.00    +0.000 A 
ATOM      3  C   UNL     1      45.476   4.492  13.099  0.00  0.00    +0.000 A 
ATOM      4  C   UNL     1      46.344   4.801  14.140  0.00  0.00    +0.000 A 
ATOM      5  C   UNL     1      47.402   5.712  13.956  0.00  0.00    +0.000 A 
ATOM      6  C   UNL     1      47.528   6.287  12.675  0.00  0.00    +0.000 A 
ATOM      7  C   UNL     1      48.616   7.253  12.296  0.00  0.00    +0.000 C 
ATOM      8  N   UNL     1      46.651   6.034  11.659  0.00  0.00    +0.000 NA
BRANCH   2  11
ATOM      9  C   UNL     1      44.489   4.036   8.458  0.00  0.00    +0.000 C 
ATOM     10  N   UNL     1      45.281   4.360   9.614  0.00  0.00    +0.000 N 
ATOM     11  C   UNL     1      44.705   4.854  10.766  0.00  0.00    +0.000 C 
ATOM     12  O   UNL     1      43.503   5.071  10.879  0.00  0.00    +0.000 OA
ATOM     13  H   UNL     1      46.293   4.265   9.607  0.00  0.00    +0.000 HD
ENDBRANCH   2  11
ENDBRANCH   1   5
BRANCH   1  14
ATOM     14  N   UNL     1      48.216   7.540  15.361  0.00  0.00    +0.000 NA
ATOM     15  H   UNL     1      49.158   7.922  15.463  0.00  0.00    +0.000 HD
ATOM     16  H   UNL     1      47.748   7.715  16.249  0.00  0.00    +0.000 HD
ENDBRANCH   1  14
BRANCH   1  17
ATOM     17  C   UNL     1      48.040   5.363  16.470  0.00  0.00    +0.000 C 
BRANCH  17  18
ATOM     18  C   UNL     1      48.930   4.166  16.676  0.00  0.00    +0.000 A 
ATOM     19  N   UNL     1      50.122   4.360  17.275  0.00  0.00    +0.000 NA
ATOM     20  C   UNL     1      50.875   3.258  17.482  0.00  0.00    +0.000 A 
ATOM     21  C   UNL     1      50.481   1.991  17.121  0.00  0.00    +0.000 A 
ATOM     22  C   UNL     1      49.250   1.900  16.517  0.00  0.00    +0.000 A 
ATOM     23  N   UNL     1      48.456   2.966  16.285  0.00  0.00    +0.000 NA
BRANCH  21  24
ATOM     24  O   UNL     1      51.226   0.877  17.334  0.00  0.00    +0.000 OA
ATOM     25  H   UNL     1      50.722   0.252  17.882  0.00  0.00    +0.000 HD
ENDBRANCH  21  24
ENDBRANCH  17  18
ENDBRANCH   1  17
TORSDOF 6
ENDMDL
