MODEL 1
REMARK VINA RESULT:    -8.387      0.000      0.000
REMARK INTER + INTRA:          -9.896
REMARK INTER:                 -10.349
REMARK INTRA:                   0.452
REMARK UNBOUND:                 0.452
REMARK  Name = 
REMARK  4 active torsions:
REMARK  status: ('A' for Active; 'I' for Inactive)
REMARK    1  A    between atoms: C_2  and  C_3
REMARK    2  A    between atoms: C_6  and  C_7
REMARK    3  A    between atoms: C_7  and  N_8
REMARK    4  A    between atoms: C_12  and  C_13
REMARK                            x       y       z     vdW  Elec       q    Type
REMARK                         _______ _______ _______ _____ _____    ______ ____
ROOT
ATOM      1  N   UNL     1      44.530   5.294   9.798  0.00  0.00    +0.000 N 
ATOM      2  C   UNL     1      45.238   4.329   9.082  0.00  0.00    +0.000 A 
ATOM      3  N   UNL     1      45.160   3.036   9.426  0.00  0.00    +0.000 NA
ATOM      4  C   UNL     1      45.842   2.143   8.681  0.00  0.00    +0.000 A 
ATOM      5  C   UNL     1      46.615   2.497   7.603  0.00  0.00    +0.000 A 
ATOM      6  C   UNL     1      46.665   3.844   7.345  0.00  0.00    +0.000 A 
ATOM      7  N   UNL     1      45.983   4.774   8.058  0.00  0.00    +0.000 NA
ATOM      8  H   UNL     1      44.883   6.203   9.530  0.00  0.00    +0.000 HD
ENDROOT
BRANCH   5   9
ATOM      9  C   UNL     1      47.344   1.464   6.849  0.00  0.00    +0.000 C 
ATOM     10  N   UNL     1      48.308   1.869   5.968  0.00  0.00    +0.000 N 
ATOM     11  O   UNL     1      47.076   0.274   6.972  0.00  0.00    +0.000 OA
ATOM     12  H   UNL     1      48.407   2.815   5.638  0.00  0.00    +0.000 HD
ATOM     13  H   UNL     1      48.712   1.136   5.393  0.00  0.00    +0.000 HD
ENDBRANCH   5   9
BRANCH   1  14
ATOM     14  C   UNL     1      44.079   5.050  11.179  0.00  0.00    +0.000 C 
ATOM     15  C   UNL     1      42.692   5.486  11.619  0.00  0.00    +0.000 C 
ATOM     16  C   UNL     1      42.953   4.040  11.353  0.00  0.00    +0.000 C 
BRANCH  14  20
ATOM     17  C   UNL     1      47.081   5.079  14.256  0.00  0.00    +0.000 A 
ATOM     18  C   UNL     1      46.859   6.254  13.553  0.00  0.00    +0.000 A 
ATOM     19  C   UNL     1      45.911   6.249  12.524  0.00  0.00    +0.000 A 
ATOM     20  C   UNL     1      45.201   5.082  12.212  0.00  0.00    +0.000 A 
ATOM     21  C   UNL     1      45.548   3.952  12.961  0.00  0.00    +0.000 A 
ATOM     22  N   UNL     1      46.459   3.916  13.966  0.00  0.00    +0.000 NA
BRANCH  17  24
ATOM     23  N   UNL     1      48.733   5.016  16.260  0.00  0.00    +0.000 NA
ATOM     24  C   UNL     1      47.976   5.048  15.380  0.00  0.00    +0.000 C 
ENDBRANCH  17  24
ENDBRANCH  14  20
ENDBRANCH   1  14
TORSDOF 4
ENDMDL
MODEL 2
REMARK VINA RESULT:    -7.808      3.051      6.816
REMARK INTER + INTRA:          -9.181
REMARK INTER:                  -9.278
REMARK INTRA:                   0.096
REMARK UNBOUND:                 0.452
REMARK  Name = 
REMARK  4 active torsions:
REMARK  status: ('A' for Active; 'I' for Inactive)
REMARK    1  A    between atoms: C_2  and  C_3
REMARK    2  A    between atoms: C_6  and  C_7
REMARK    3  A    between atoms: C_7  and  N_8
REMARK    4  A    between atoms: C_12  and  C_13
REMARK                            x       y       z     vdW  Elec       q    Type
REMARK                         _______ _______ _______ _____ _____    ______ ____
ROOT
ATOM      1  N   UNL     1      44.393   5.959  10.824  0.00  0.00    +0.000 N 
ATOM      2  C   UNL     1      45.259   6.639  11.679  0.00  0.00    +0.000 A 
ATOM      3  N   UNL     1      46.358   6.036  12.153  0.00  0.00    +0.000 NA
ATOM      4  C   UNL     1      47.175   6.750  12.952  0.00  0.00    +0.000 A 
ATOM      5  C   UNL     1      46.929   8.053  13.309  0.00  0.00    +0.000 A 
ATOM      6  C   UNL     1      45.766   8.579  12.806  0.00  0.00    +0.000 A 
ATOM      7  N   UNL     1      44.923   7.902  11.987  0.00  0.00    +0.000 NA
ATOM      8  H   UNL     1      43.538   6.495  10.756  0.00  0.00    +0.000 HD
ENDROOT
BRANCH   5   9
ATOM      9  C   UNL     1      47.862   8.761  14.200  0.00  0.00    +0.000 C 
ATOM     10  N   UNL     1      47.437   9.073  15.461  0.00  0.00    +0.000 N 
ATOM     11  O   UNL     1      48.978   9.098  13.820  0.00  0.00    +0.000 OA
ATOM     12  H   UNL     1      46.473   9.051  15.752  0.00  0.00    +0.000 HD
ATOM     13  H   UNL     1      48.068   9.652  16.006  0.00  0.00    +0.000 HD
ENDBRANCH   5   9
BRANCH   1  14
ATOM     14  C   UNL     1      44.354   4.488  10.779  0.00  0.00    +0.000 C 
ATOM     15  C   UNL     1      44.305   3.684  12.067  0.00  0.00    +0.000 C 
ATOM     16  C   UNL     1      43.063   3.832  11.252  0.00  0.00    +0.000 C 
BRANCH  14  20
ATOM     17  C   UNL     1      46.577   2.692   7.568  0.00  0.00    +0.000 A 
ATOM     18  C   UNL     1      46.434   4.072   7.568  0.00  0.00    +0.000 A 
ATOM     19  C   UNL     1      45.682   4.666   8.587  0.00  0.00    +0.000 A 
ATOM     20  C   UNL     1      45.087   3.884   9.586  0.00  0.00    +0.000 A 
ATOM     21  C   UNL     1      45.265   2.503   9.449  0.00  0.00    +0.000 A 
ATOM     22  N   UNL     1      45.987   1.888   8.479  0.00  0.00    +0.000 NA
BRANCH  17  24
ATOM     23  N   UNL     1      48.122   1.527   5.833  0.00  0.00    +0.000 NA
ATOM     24  C   UNL     1      47.412   2.036   6.600  0.00  0.00    +0.000 C 
ENDBRANCH  17  24
ENDBRANCH  14  20
ENDBRANCH   1  14
TORSDOF 4
ENDMDL
MODEL 3
REMARK VINA RESULT:    -7.357      2.681      6.625
REMARK INTER + INTRA:          -8.625
REMARK INTER:                  -8.402
REMARK INTRA:                  -0.224
REMARK UNBOUND:                 0.452
REMARK  Name = 
REMARK  4 active torsions:
REMARK  status: ('A' for Active; 'I' for Inactive)
REMARK    1  A    between atoms: C_2  and  C_3
REMARK    2  A    between atoms: C_6  and  C_7
REMARK    3  A    between atoms: C_7  and  N_8
REMARK    4  A    between atoms: C_12  and  C_13
REMARK                            x       y       z     vdW  Elec       q    Type
REMARK                         _______ _______ _______ _____ _____    ______ ____
ROOT
ATOM      1  N   UNL     1      45.482   5.741  11.867  0.00  0.00    +0.000 N 
ATOM      2  C   UNL     1      46.098   5.225  13.007  0.00  0.00    +0.000 A 
ATOM      3  N   UNL     1      46.108   3.905  13.235  0.00  0.00    +0.000 NA
ATOM      4  C   UNL     1      46.744   3.460  14.337  0.00  0.00    +0.000 A 
ATOM      5  C   UNL     1      47.365   4.292  15.236  0.00  0.00    +0.000 A 
ATOM      6  C   UNL     1      47.275   5.629  14.941  0.00  0.00    +0.000 A 
ATOM      7  N   UNL     1      46.660   6.119  13.836  0.00  0.00    +0.000 NA
ATOM      8  H   UNL     1      45.394   6.741  11.985  0.00  0.00    +0.000 HD
ENDROOT
BRANCH   5   9
ATOM      9  C   UNL     1      48.023   3.730  16.425  0.00  0.00    +0.000 C 
ATOM     10  N   UNL     1      47.281   2.942  17.261  0.00  0.00    +0.000 N 
ATOM     11  O   UNL     1      49.193   3.985  16.689  0.00  0.00    +0.000 OA
ATOM     12  H   UNL     1      46.276   2.894  17.244  0.00  0.00    +0.000 HD
ATOM     13  H   UNL     1      47.741   2.662  18.122  0.00  0.00    +0.000 HD
ENDBRANCH   5   9
BRANCH   1  14
ATOM     14  C   UNL     1      44.447   4.984  11.143  0.00  0.00    +0.000 C 
ATOM     15  C   UNL     1      43.223   4.465  11.878  0.00  0.00    +0.000 C 
ATOM     16  C   UNL     1      43.092   5.663  10.996  0.00  0.00    +0.000 C 
BRANCH  14  20
ATOM     17  C   UNL     1      46.107   2.559   8.005  0.00  0.00    +0.000 A 
ATOM     18  C   UNL     1      46.189   3.938   7.874  0.00  0.00    +0.000 A 
ATOM     19  C   UNL     1      45.621   4.738   8.870  0.00  0.00    +0.000 A 
ATOM     20  C   UNL     1      44.983   4.160   9.976  0.00  0.00    +0.000 A 
ATOM     21  C   UNL     1      44.925   2.762   9.969  0.00  0.00    +0.000 A 
ATOM     22  N   UNL     1      45.463   1.951   9.025  0.00  0.00    +0.000 NA
BRANCH  17  24
ATOM     23  N   UNL     1      47.252   0.948   6.318  0.00  0.00    +0.000 NA
ATOM     24  C   UNL     1      46.750   1.687   7.060  0.00  0.00    +0.000 C 
ENDBRANCH  17  24
ENDBRANCH  14  20
ENDBRANCH   1  14
TORSDOF 4
ENDMDL
MODEL 4
REMARK VINA RESULT:    -6.916      2.949      6.673
REMARK INTER + INTRA:          -8.081
REMARK INTER:                  -8.528
REMARK INTRA:                   0.447
REMARK UNBOUND:                 0.452
REMARK  Name = 
REMARK  4 active torsions:
REMARK  status: ('A' for Active; 'I' for Inactive)
REMARK    1  A    between atoms: C_2  and  C_3
REMARK    2  A    between atoms: C_6  and  C_7
REMARK    3  A    between atoms: C_7  and  N_8
REMARK    4  A    between atoms: C_12  and  C_13
REMARK                            x       y       z     vdW  Elec       q    Type
REMARK                         _______ _______ _______ _____ _____    ______ ____
ROOT
ATOM      1  N   UNL     1      44.505   4.545  12.819  0.00  0.00    +0.000 N 
ATOM      2  C   UNL     1      45.671   5.163  13.269  0.00  0.00    +0.000 A 
ATOM      3  N   UNL     1      46.019   6.373  12.810  0.00  0.00    +0.000 NA
ATOM      4  C   UNL     1      47.140   6.936  13.301  0.00  0.00    +0.000 A 
ATOM      5  C   UNL     1      47.942   6.327  14.234  0.00  0.00    +0.000 A 
ATOM      6  C   UNL     1      47.529   5.077  14.622  0.00  0.00    +0.000 A 
ATOM      7  N   UNL     1      46.400   4.480  14.165  0.00  0.00    +0.000 NA
ATOM      8  H   UNL     1      44.533   3.577  13.109  0.00  0.00    +0.000 HD
ENDROOT
BRANCH   5   9
ATOM      9  C   UNL     1      49.161   7.000  14.710  0.00  0.00    +0.000 C 
ATOM     10  N   UNL     1      50.103   7.357  13.785  0.00  0.00    +0.000 N 
ATOM     11  O   UNL     1      49.354   7.206  15.903  0.00  0.00    +0.000 OA
ATOM     12  H   UNL     1      50.127   7.006  12.842  0.00  0.00    +0.000 HD
ATOM     13  H   UNL     1      50.972   7.722  14.162  0.00  0.00    +0.000 HD
ENDBRANCH   5   9
BRANCH   1  14
ATOM     14  C   UNL     1      43.881   4.920  11.539  0.00  0.00    +0.000 C 
ATOM     15  C   UNL     1      42.378   5.120  11.450  0.00  0.00    +0.000 C 
ATOM     16  C   UNL     1      43.273   6.314  11.466  0.00  0.00    +0.000 C 
BRANCH  14  20
ATOM     17  C   UNL     1      45.801   3.532   7.952  0.00  0.00    +0.000 A 
ATOM     18  C   UNL     1      45.043   2.624   8.677  0.00  0.00    +0.000 A 
ATOM     19  C   UNL     1      44.443   3.053   9.865  0.00  0.00    +0.000 A 
ATOM     20  C   UNL     1      44.603   4.371  10.313  0.00  0.00    +0.000 A 
ATOM     21  C   UNL     1      45.428   5.175   9.519  0.00  0.00    +0.000 A 
ATOM     22  N   UNL     1      46.026   4.799   8.361  0.00  0.00    +0.000 NA
BRANCH  17  24
ATOM     23  N   UNL     1      46.861   2.880   5.671  0.00  0.00    +0.000 NA
ATOM     24  C   UNL     1      46.365   3.174   6.679  0.00  0.00    +0.000 C 
ENDBRANCH  17  24
ENDBRANCH  14  20
ENDBRANCH   1  14
TORSDOF 4
ENDMDL
MODEL 5
REMARK VINA RESULT:    -6.398      3.808      6.716
REMARK INTER + INTRA:          -7.441
REMARK INTER:                  -7.693
REMARK INTRA:                   0.251
REMARK UNBOUND:                 0.452
REMARK  Name = 
REMARK  4 active torsions:
REMARK  status: ('A' for Active; 'I' for Inactive)
REMARK    1  A    between atoms: C_2  and  C_3
REMARK    2  A    between atoms: C_6  and  C_7
REMARK    3  A    between atoms: C_7  and  N_8
REMARK    4  A    between atoms: C_12  and  C_13
REMARK                            x       y       z     vdW  Elec       q    Type
REMARK                         _______ _______ _______ _____ _____    ______ ____
ROOT
ATOM      1  N   UNL     1      47.172   3.695  15.847  0.00  0.00    +0.000 N 
ATOM      2  C   UNL     1      46.838   4.434  14.713  0.00  0.00    +0.000 A 
ATOM      3  N   UNL     1      47.625   5.436  14.299  0.00  0.00    +0.000 NA
ATOM      4  C   UNL     1      47.268   6.097  13.180  0.00  0.00    +0.000 A 
ATOM      5  C   UNL     1      46.139   5.801  12.458  0.00  0.00    +0.000 A 
ATOM      6  C   UNL     1      45.375   4.783  12.973  0.00  0.00    +0.000 A 
ATOM      7  N   UNL     1      45.704   4.083  14.086  0.00  0.00    +0.000 NA
ATOM      8  H   UNL     1      46.365   3.147  16.112  0.00  0.00    +0.000 HD
ENDROOT
BRANCH   5   9
ATOM      9  C   UNL     1      45.808   6.580  11.254  0.00  0.00    +0.000 C 
ATOM     10  N   UNL     1      45.712   5.916  10.063  0.00  0.00    +0.000 N 
ATOM     11  O   UNL     1      45.657   7.796  11.301  0.00  0.00    +0.000 OA
ATOM     12  H   UNL     1      46.060   4.984   9.908  0.00  0.00    +0.000 HD
ATOM     13  H   UNL     1      45.588   6.502   9.243  0.00  0.00    +0.000 HD
ENDBRANCH   5   9
BRANCH   1  14
ATOM     14  C   UNL     1      48.074   4.236  16.879  0.00  0.00    +0.000 C 
ATOM     15  C   UNL     1      48.114   5.729  17.154  0.00  0.00    +0.000 C 
ATOM     16  C   UNL     1      47.408   4.829  18.114  0.00  0.00    +0.000 C 
BRANCH  14  20
ATOM     17  C   UNL     1      51.594   1.855  17.522  0.00  0.00    +0.000 A 
ATOM     18  C   UNL     1      51.658   3.206  17.831  0.00  0.00    +0.000 A 
ATOM     19  C   UNL     1      50.531   3.999  17.592  0.00  0.00    +0.000 A 
ATOM     20  C   UNL     1      49.364   3.441  17.054  0.00  0.00    +0.000 A 
ATOM     21  C   UNL     1      49.441   2.079  16.742  0.00  0.00    +0.000 A 
ATOM     22  N   UNL     1      50.513   1.276  16.959  0.00  0.00    +0.000 NA
BRANCH  17  24
ATOM     23  N   UNL     1      53.590   0.296  18.104  0.00  0.00    +0.000 NA
ATOM     24  C   UNL     1      52.689   0.975  17.830  0.00  0.00    +0.000 C 
ENDBRANCH  17  24
ENDBRANCH  14  20
ENDBRANCH   1  14
TORSDOF 4
ENDMDL
MODEL 6
REMARK VINA RESULT:    -5.969      3.645      5.247
REMARK INTER + INTRA:          -6.912
REMARK INTER:                  -6.657
REMARK INTRA:                  -0.256
REMARK UNBOUND:                 0.452
REMARK  Name = 
REMARK  4 active torsions:
REMARK  status: ('A' for Active; 'I' for Inactive)
REMARK    1  A    between atoms: C_2  and  C_3
REMARK    2  A    between atoms: C_6  and  C_7
REMARK    3  A    between atoms: C_7  and  N_8
REMARK    4  A    between atoms: C_12  and  C_13
REMARK                            x       y       z     vdW  Elec       q    Type
REMARK                         _______ _______ _______ _____ _____    ______ ____
ROOT
ATOM      1  N   UNL     1      46.550   8.213  12.553  0.00  0.00    +0.000 N 
ATOM      2  C   UNL     1      45.895   7.007  12.304  0.00  0.00    +0.000 A 
ATOM      3  N   UNL     1      46.488   5.840  12.594  0.00  0.00    +0.000 NA
ATOM      4  C   UNL     1      45.796   4.707  12.360  0.00  0.00    +0.000 A 
ATOM      5  C   UNL     1      44.529   4.693  11.833  0.00  0.00    +0.000 A 
ATOM      6  C   UNL     1      44.014   5.930  11.536  0.00  0.00    +0.000 A 
ATOM      7  N   UNL     1      44.668   7.095  11.768  0.00  0.00    +0.000 NA
ATOM      8  H   UNL     1      46.043   8.947  12.078  0.00  0.00    +0.000 HD
ENDROOT
BRANCH   5   9
ATOM      9  C   UNL     1      43.846   3.412  11.592  0.00  0.00    +0.000 C 
ATOM     10  N   UNL     1      43.746   2.530  12.632  0.00  0.00    +0.000 N 
ATOM     11  O   UNL     1      43.408   3.120  10.485  0.00  0.00    +0.000 OA
ATOM     12  H   UNL     1      44.286   2.593  13.478  0.00  0.00    +0.000 HD
ATOM     13  H   UNL     1      43.363   1.619  12.398  0.00  0.00    +0.000 HD
ENDBRANCH   5   9
BRANCH   1  14
ATOM     14  C   UNL     1      48.016   8.281  12.673  0.00  0.00    +0.000 C 
ATOM     15  C   UNL     1      48.901   7.826  11.525  0.00  0.00    +0.000 C 
ATOM     16  C   UNL     1      48.722   9.288  11.774  0.00  0.00    +0.000 C 
BRANCH  14  20
ATOM     17  C   UNL     1      49.357   7.512  16.684  0.00  0.00    +0.000 A 
ATOM     18  C   UNL     1      48.584   8.643  16.463  0.00  0.00    +0.000 A 
ATOM     19  C   UNL     1      48.172   8.924  15.156  0.00  0.00    +0.000 A 
ATOM     20  C   UNL     1      48.532   8.082  14.095  0.00  0.00    +0.000 A 
ATOM     21  C   UNL     1      49.352   7.002  14.440  0.00  0.00    +0.000 A 
ATOM     22  N   UNL     1      49.772   6.694  15.693  0.00  0.00    +0.000 NA
BRANCH  17  24
ATOM     23  N   UNL     1      50.021   6.849  19.108  0.00  0.00    +0.000 NA
ATOM     24  C   UNL     1      49.733   7.124  18.017  0.00  0.00    +0.000 C 
ENDBRANCH  17  24
ENDBRANCH  14  20
ENDBRANCH   1  14
TORSDOF 4
ENDMDL
MODEL 7
REMARK VINA RESULT:    -5.863      5.045      6.508
REMARK INTER + INTRA:          -6.781
REMARK INTER:                  -6.613
REMARK INTRA:                  -0.168
REMARK UNBOUND:                 0.452
REMARK  Name = 
REMARK  4 active torsions:
REMARK  status: ('A' for Active; 'I' for Inactive)
REMARK    1  A    between atoms: C_2  and  C_3
REMARK    2  A    between atoms: C_6  and  C_7
REMARK    3  A    between atoms: C_7  and  N_8
REMARK    4  A    between atoms: C_12  and  C_13
REMARK                            x       y       z     vdW  Elec       q    Type
REMARK                         _______ _______ _______ _____ _____    ______ ____
ROOT
ATOM      1  N   UNL     1      47.583   8.969  12.879  0.00  0.00    +0.000 N 
ATOM      2  C   UNL     1      46.348   9.184  12.268  0.00  0.00    +0.000 A 
ATOM      3  N   UNL     1      45.628   8.151  11.810  0.00  0.00    +0.000 NA
ATOM      4  C   UNL     1      44.429   8.415  11.255  0.00  0.00    +0.000 A 
ATOM      5  C   UNL     1      43.921   9.684  11.127  0.00  0.00    +0.000 A 
ATOM      6  C   UNL     1      44.740  10.683  11.591  0.00  0.00    +0.000 A 
ATOM      7  N   UNL     1      45.946  10.461  12.170  0.00  0.00    +0.000 NA
ATOM      8  H   UNL     1      48.053   9.861  12.955  0.00  0.00    +0.000 HD
ENDROOT
BRANCH   5   9
ATOM      9  C   UNL     1      42.610   9.892  10.493  0.00  0.00    +0.000 C 
ATOM     10  N   UNL     1      41.501   9.414  11.135  0.00  0.00    +0.000 N 
ATOM     11  O   UNL     1      42.506  10.445   9.403  0.00  0.00    +0.000 OA
ATOM     12  H   UNL     1      41.530   8.748  11.889  0.00  0.00    +0.000 HD
ATOM     13  H   UNL     1      40.630   9.484  10.617  0.00  0.00    +0.000 HD
ENDBRANCH   5   9
BRANCH   1  14
ATOM     14  C   UNL     1      48.356   7.739  12.639  0.00  0.00    +0.000 C 
ATOM     15  C   UNL     1      48.647   7.283  11.220  0.00  0.00    +0.000 C 
ATOM     16  C   UNL     1      49.736   7.918  12.020  0.00  0.00    +0.000 C 
BRANCH  14  20
ATOM     17  C   UNL     1      47.594   4.756  15.640  0.00  0.00    +0.000 A 
ATOM     18  C   UNL     1      48.356   5.859  15.998  0.00  0.00    +0.000 A 
ATOM     19  C   UNL     1      48.642   6.818  15.021  0.00  0.00    +0.000 A 
ATOM     20  C   UNL     1      48.168   6.670  13.711  0.00  0.00    +0.000 A 
ATOM     21  C   UNL     1      47.452   5.494  13.464  0.00  0.00    +0.000 A 
ATOM     22  N   UNL     1      47.152   4.540  14.382  0.00  0.00    +0.000 NA
BRANCH  17  24
ATOM     23  N   UNL     1      46.841   3.031  17.431  0.00  0.00    +0.000 NA
ATOM     24  C   UNL     1      47.193   3.785  16.621  0.00  0.00    +0.000 C 
ENDBRANCH  17  24
ENDBRANCH  14  20
ENDBRANCH   1  14
TORSDOF 4
ENDMDL
MODEL 8
REMARK VINA RESULT:    -5.614      4.163      7.205
REMARK INTER + INTRA:          -6.474
REMARK INTER:                  -6.203
REMARK INTRA:                  -0.271
REMARK UNBOUND:                 0.452
REMARK  Name = 
REMARK  4 active torsions:
REMARK  status: ('A' for Active; 'I' for Inactive)
REMARK    1  A    between atoms: C_2  and  C_3
REMARK    2  A    between atoms: C_6  and  C_7
REMARK    3  A    between atoms: C_7  and  N_8
REMARK    4  A    between atoms: C_12  and  C_13
REMARK                            x       y       z     vdW  Elec       q    Type
REMARK                         _______ _______ _______ _____ _____    ______ ____
ROOT
ATOM      1  N   UNL     1      47.854   7.924  12.205  0.00  0.00    +0.000 N 
ATOM      2  C   UNL     1      48.563   7.564  13.350  0.00  0.00    +0.000 A 
ATOM      3  N   UNL     1      47.940   6.962  14.373  0.00  0.00    +0.000 NA
ATOM      4  C   UNL     1      48.680   6.609  15.442  0.00  0.00    +0.000 A 
ATOM      5  C   UNL     1      50.029   6.846  15.536  0.00  0.00    +0.000 A 
ATOM      6  C   UNL     1      50.577   7.496  14.458  0.00  0.00    +0.000 A 
ATOM      7  N   UNL     1      49.873   7.856  13.357  0.00  0.00    +0.000 NA
ATOM      8  H   UNL     1      48.438   8.543  11.658  0.00  0.00    +0.000 HD
ENDROOT
BRANCH   5   9
ATOM      9  C   UNL     1      50.765   6.445  16.745  0.00  0.00    +0.000 C 
ATOM     10  N   UNL     1      50.881   7.354  17.760  0.00  0.00    +0.000 N 
ATOM     11  O   UNL     1      51.295   5.343  16.835  0.00  0.00    +0.000 OA
ATOM     12  H   UNL     1      50.693   8.337  17.660  0.00  0.00    +0.000 HD
ATOM     13  H   UNL     1      51.483   7.077  18.530  0.00  0.00    +0.000 HD
ENDBRANCH   5   9
BRANCH   1  14
ATOM     14  C   UNL     1      46.393   8.112  12.232  0.00  0.00    +0.000 C 
ATOM     15  C   UNL     1      45.773   9.157  13.142  0.00  0.00    +0.000 C 
ATOM     16  C   UNL     1      45.872   9.432  11.678  0.00  0.00    +0.000 C 
BRANCH  14  20
ATOM     17  C   UNL     1      44.247   4.432  11.658  0.00  0.00    +0.000 A 
ATOM     18  C   UNL     1      45.132   4.830  10.666  0.00  0.00    +0.000 A 
ATOM     19  C   UNL     1      45.809   6.044  10.824  0.00  0.00    +0.000 A 
ATOM     20  C   UNL     1      45.599   6.839  11.958  0.00  0.00    +0.000 A 
ATOM     21  C   UNL     1      44.649   6.351  12.862  0.00  0.00    +0.000 A 
ATOM     22  N   UNL     1      43.973   5.181  12.748  0.00  0.00    +0.000 NA
BRANCH  17  24
ATOM     23  N   UNL     1      43.067   2.118  11.587  0.00  0.00    +0.000 NA
ATOM     24  C   UNL     1      43.592   3.154  11.595  0.00  0.00    +0.000 C 
ENDBRANCH  17  24
ENDBRANCH  14  20
ENDBRANCH   1  14
TORSDOF 4
ENDMDL
MODEL 9
REMARK VINA RESULT:    -5.575      5.376      7.270
REMARK INTER + INTRA:          -6.426
REMARK INTER:                  -6.177
REMARK INTRA:                  -0.249
REMARK UNBOUND:                 0.452
REMARK  Name = 
REMARK  4 active torsions:
REMARK  status: ('A' for Active; 'I' for Inactive)
REMARK    1  A    between atoms: C_2  and  C_3
REMARK    2  A    between atoms: C_6  and  C_7
REMARK    3  A    between atoms: C_7  and  N_8
REMARK    4  A    between atoms: C_12  and  C_13
REMARK                            x       y       z     vdW  Elec       q    Type
REMARK                         _______ _______ _______ _____ _____    ______ ____
ROOT
ATOM      1  N   UNL     1      47.508   4.912  15.700  0.00  0.00    +0.000 N 
ATOM      2  C   UNL     1      47.951   5.821  14.740  0.00  0.00    +0.000 A 
ATOM      3  N   UNL     1      49.173   6.362  14.829  0.00  0.00    +0.000 NA
ATOM      4  C   UNL     1      49.560   7.212  13.857  0.00  0.00    +0.000 A 
ATOM      5  C   UNL     1      48.761   7.555  12.795  0.00  0.00    +0.000 A 
ATOM      6  C   UNL     1      47.514   6.981  12.802  0.00  0.00    +0.000 A 
ATOM      7  N   UNL     1      47.090   6.110  13.751  0.00  0.00    +0.000 NA
ATOM      8  H   UNL     1      46.511   4.792  15.580  0.00  0.00    +0.000 HD
ENDROOT
BRANCH   5   9
ATOM      9  C   UNL     1      49.249   8.503  11.782  0.00  0.00    +0.000 C 
ATOM     10  N   UNL     1      50.516   8.332  11.296  0.00  0.00    +0.000 N 
ATOM     11  O   UNL     1      48.562   9.446  11.404  0.00  0.00    +0.000 OA
ATOM     12  H   UNL     1      51.211   7.747  11.730  0.00  0.00    +0.000 HD
ATOM     13  H   UNL     1      50.852   9.065  10.680  0.00  0.00    +0.000 HD
ENDBRANCH   5   9
BRANCH   1  14
ATOM     14  C   UNL     1      48.105   4.863  17.045  0.00  0.00    +0.000 C 
ATOM     15  C   UNL     1      48.085   6.093  17.937  0.00  0.00    +0.000 C 
ATOM     16  C   UNL     1      47.139   4.972  18.218  0.00  0.00    +0.000 C 
BRANCH  14  20
ATOM     17  C   UNL     1      51.330   2.063  17.533  0.00  0.00    +0.000 A 
ATOM     18  C   UNL     1      51.580   3.399  17.816  0.00  0.00    +0.000 A 
ATOM     19  C   UNL     1      50.550   4.325  17.626  0.00  0.00    +0.000 A 
ATOM     20  C   UNL     1      49.293   3.914  17.162  0.00  0.00    +0.000 A 
ATOM     21  C   UNL     1      49.182   2.550  16.869  0.00  0.00    +0.000 A 
ATOM     22  N   UNL     1      50.155   1.620  17.040  0.00  0.00    +0.000 NA
BRANCH  17  24
ATOM     23  N   UNL     1      53.096   0.211  17.986  0.00  0.00    +0.000 NA
ATOM     24  C   UNL     1      52.321   1.055  17.795  0.00  0.00    +0.000 C 
ENDBRANCH  17  24
ENDBRANCH  14  20
ENDBRANCH   1  14
TORSDOF 4
ENDMDL
