MODEL 1
REMARK VINA RESULT:    -7.755      0.000      0.000
REMARK INTER + INTRA:         -12.543
REMARK INTER:                 -11.609
REMARK INTRA:                  -0.934
REMARK UNBOUND:                -0.934
REMARK  Name = 
REMARK  9 active torsions:
REMARK  status: ('A' for Active; 'I' for Inactive)
REMARK    1  A    between atoms: C_2  and  C_21
REMARK    2  A    between atoms: N_3  and  C_4
REMARK    3  A    between atoms: C_4  and  C_5
REMARK    4  A    between atoms: C_8  and  C_9
REMARK    5  A    between atoms: C_9  and  N_10
REMARK    6  A    between atoms: N_10  and  CA_11
REMARK    7  A    between atoms: CA_11  and  C_12
REMARK    8  A    between atoms: CA_11  and  C_14
REMARK    9  A    between atoms: C_12  and  O_13
REMARK                            x       y       z     vdW  Elec       q    Type
REMARK                         _______ _______ _______ _____ _____    ______ ____
ROOT
ATOM      1  C   UNL     1      46.340   7.917  12.961  0.00  0.00    +0.000 A 
ATOM      2  C   UNL     1      46.056   6.590  13.308  0.00  0.00    +0.000 A 
ATOM      3  C   UNL     1      44.988   5.910  12.717  0.00  0.00    +0.000 A 
ATOM      4  C   UNL     1      44.184   6.543  11.761  0.00  0.00    +0.000 A 
ATOM      5  C   UNL     1      44.486   7.862  11.393  0.00  0.00    +0.000 A 
ATOM      6  C   UNL     1      45.558   8.540  11.981  0.00  0.00    +0.000 A 
ENDROOT
BRANCH   1   7
ATOM      7  C   UNL     1      47.475   8.649  13.626  0.00  0.00    +0.000 C 
BRANCH   7  10
ATOM      8  O   UNL     1      49.584   6.824  13.970  0.00  0.00    +0.000 OA
ATOM      9  C   UNL     1      48.925   7.161  14.949  0.00  0.00    +0.000 C 
ATOM     10  N   UNL     1      47.864   8.024  14.863  0.00  0.00    +0.000 N 
ATOM     11  H   UNL     1      47.469   8.415  15.712  0.00  0.00    +0.000 HD
BRANCH   9  12
ATOM     12  C   UNL     1      49.200   6.604  16.278  0.00  0.00    +0.000 A 
ATOM     13  C   UNL     1      49.935   7.343  17.196  0.00  0.00    +0.000 A 
ATOM     14  S   UNL     1      50.153   6.553  18.691  0.00  0.00    +0.000 S 
ATOM     15  C   UNL     1      49.243   5.211  18.177  0.00  0.00    +0.000 A 
ATOM     16  N   UNL     1      49.002   4.167  19.011  0.00  0.00    +0.000 NA
ATOM     17  C   UNL     1      48.263   3.238  18.507  0.00  0.00    +0.000 A 
ATOM     18  N   UNL     1      47.757   3.248  17.230  0.00  0.00    +0.000 N 
ATOM     19  C   UNL     1      48.040   4.242  16.329  0.00  0.00    +0.000 A 
ATOM     20  O   UNL     1      47.696   4.149  15.154  0.00  0.00    +0.000 OA
ATOM     21  C   UNL     1      48.813   5.345  16.868  0.00  0.00    +0.000 A 
ATOM     22  H   UNL     1      47.221   2.470  16.886  0.00  0.00    +0.000 HD
ENDBRANCH   9  12
ENDBRANCH   7  10
ENDBRANCH   1   7
BRANCH   4  23
ATOM     23  C   UNL     1      43.036   5.819  11.099  0.00  0.00    +0.000 C 
BRANCH  23  24
ATOM     24  N   UNL     1      43.381   5.006   9.933  0.00  0.00    +0.000 NA
ATOM     25  H   UNL     1      43.829   5.603   9.228  0.00  0.00    +0.000 HD
BRANCH  24  26
ATOM     26  CA  UNL     1      44.319   3.877  10.176  0.00  0.00    +0.000 C 
BRANCH  26  27
ATOM     27  C   UNL     1      44.742   3.345   8.780  0.00  0.00    +0.000 C 
ATOM     28  C   UNL     1      45.642   2.119   8.786  0.00  0.00    +0.000 C 
ATOM     29  C   UNL     1      46.354   2.253   7.462  0.00  0.00    +0.000 C 
ATOM     30  C   UNL     1      46.558   3.748   7.354  0.00  0.00    +0.000 C 
ATOM     31  O   UNL     1      45.494   4.374   8.085  0.00  0.00    +0.000 OA
ENDBRANCH  26  27
BRANCH  26  32
ATOM     32  C   UNL     1      43.692   2.775  11.050  0.00  0.00    +0.000 C 
BRANCH  32  33
ATOM     33  O   UNL     1      44.472   2.538  12.220  0.00  0.00    +0.000 OA
ATOM     34  H   UNL     1      44.520   1.566  12.303  0.00  0.00    +0.000 HD
ENDBRANCH  32  33
ENDBRANCH  26  32
ENDBRANCH  24  26
ENDBRANCH  23  24
ENDBRANCH   4  23
TORSDOF 9
ENDMDL
MODEL 2
REMARK VINA RESULT:    -7.361      3.097      4.108
REMARK INTER + INTRA:         -11.953
REMARK INTER:                 -10.786
REMARK INTRA:                  -1.167
REMARK UNBOUND:                -0.934
REMARK  Name = 
REMARK  9 active torsions:
REMARK  status: ('A' for Active; 'I' for Inactive)
REMARK    1  A    between atoms: C_2  and  C_21
REMARK    2  A    between atoms: N_3  and  C_4
REMARK    3  A    between atoms: C_4  and  C_5
REMARK    4  A    between atoms: C_8  and  C_9
REMARK    5  A    between atoms: C_9  and  N_10
REMARK    6  A    between atoms: N_10  and  CA_11
REMARK    7  A    between atoms: CA_11  and  C_12
REMARK    8  A    between atoms: CA_11  and  C_14
REMARK    9  A    between atoms: C_12  and  O_13
REMARK                            x       y       z     vdW  Elec       q    Type
REMARK                         _______ _______ _______ _____ _____    ______ ____
ROOT
ATOM      1  C   UNL     1      48.403   5.700  16.368  0.00  0.00    +0.000 A 
ATOM      2  C   UNL     1      47.595   4.558  16.446  0.00  0.00    +0.000 A 
ATOM      3  C   UNL     1      46.830   4.147  15.351  0.00  0.00    +0.000 A 
ATOM      4  C   UNL     1      46.863   4.869  14.151  0.00  0.00    +0.000 A 
ATOM      5  C   UNL     1      47.694   5.995  14.064  0.00  0.00    +0.000 A 
ATOM      6  C   UNL     1      48.462   6.403  15.159  0.00  0.00    +0.000 A 
ENDROOT
BRANCH   1   7
ATOM      7  C   UNL     1      49.200   6.148  17.564  0.00  0.00    +0.000 C 
BRANCH   7  10
ATOM      8  O   UNL     1      51.814   6.150  16.534  0.00  0.00    +0.000 OA
ATOM      9  C   UNL     1      51.504   5.300  17.364  0.00  0.00    +0.000 C 
ATOM     10  N   UNL     1      50.243   5.213  17.894  0.00  0.00    +0.000 N 
ATOM     11  H   UNL     1      50.082   4.621  18.702  0.00  0.00    +0.000 HD
BRANCH   9  12
ATOM     12  C   UNL     1      52.460   4.275  17.796  0.00  0.00    +0.000 A 
ATOM     13  C   UNL     1      53.696   4.656  18.302  0.00  0.00    +0.000 A 
ATOM     14  S   UNL     1      54.679   3.342  18.765  0.00  0.00    +0.000 S 
ATOM     15  C   UNL     1      53.473   2.220  18.339  0.00  0.00    +0.000 A 
ATOM     16  N   UNL     1      53.658   0.887  18.528  0.00  0.00    +0.000 NA
ATOM     17  C   UNL     1      52.647   0.155  18.202  0.00  0.00    +0.000 A 
ATOM     18  N   UNL     1      51.469   0.634  17.682  0.00  0.00    +0.000 N 
ATOM     19  C   UNL     1      51.270   1.961  17.402  0.00  0.00    +0.000 A 
ATOM     20  O   UNL     1      50.266   2.338  16.802  0.00  0.00    +0.000 OA
ATOM     21  C   UNL     1      52.351   2.836  17.812  0.00  0.00    +0.000 A 
ATOM     22  H   UNL     1      50.737   0.002  17.411  0.00  0.00    +0.000 HD
ENDBRANCH   9  12
ENDBRANCH   7  10
ENDBRANCH   1   7
BRANCH   4  23
ATOM     23  C   UNL     1      46.058   4.432  12.951  0.00  0.00    +0.000 C 
BRANCH  23  24
ATOM     24  N   UNL     1      44.735   3.877  13.238  0.00  0.00    +0.000 NA
ATOM     25  H   UNL     1      44.283   4.444  13.964  0.00  0.00    +0.000 HD
BRANCH  24  26
ATOM     26  CA  UNL     1      43.783   3.830  12.096  0.00  0.00    +0.000 C 
BRANCH  26  27
ATOM     27  C   UNL     1      44.643   3.805  10.804  0.00  0.00    +0.000 C 
ATOM     28  C   UNL     1      44.147   4.680   9.663  0.00  0.00    +0.000 C 
ATOM     29  C   UNL     1      44.736   3.984   8.461  0.00  0.00    +0.000 C 
ATOM     30  C   UNL     1      44.614   2.525   8.841  0.00  0.00    +0.000 C 
ATOM     31  O   UNL     1      44.667   2.454  10.273  0.00  0.00    +0.000 OA
ENDBRANCH  26  27
BRANCH  26  32
ATOM     32  C   UNL     1      42.794   5.010  12.110  0.00  0.00    +0.000 C 
BRANCH  32  33
ATOM     33  O   UNL     1      42.783   5.659  13.380  0.00  0.00    +0.000 OA
ATOM     34  H   UNL     1      41.963   6.192  13.388  0.00  0.00    +0.000 HD
ENDBRANCH  32  33
ENDBRANCH  26  32
ENDBRANCH  24  26
ENDBRANCH  23  24
ENDBRANCH   4  23
TORSDOF 9
ENDMDL
MODEL 3
REMARK VINA RESULT:    -7.304      1.983      2.489
REMARK INTER + INTRA:         -11.868
REMARK INTER:                 -11.141
REMARK INTRA:                  -0.727
REMARK UNBOUND:                -0.934
REMARK  Name = 
REMARK  9 active torsions:
REMARK  status: ('A' for Active; 'I' for Inactive)
REMARK    1  A    between atoms: C_2  and  C_21
REMARK    2  A    between atoms: N_3  and  C_4
REMARK    3  A    between atoms: C_4  and  C_5
REMARK    4  A    between atoms: C_8  and  C_9
REMARK    5  A    between atoms: C_9  and  N_10
REMARK    6  A    between atoms: N_10  and  CA_11
REMARK    7  A    between atoms: CA_11  and  C_12
REMARK    8  A    between atoms: CA_11  and  C_14
REMARK    9  A    between atoms: C_12  and  O_13
REMARK                            x       y       z     vdW  Elec       q    Type
REMARK                         _______ _______ _______ _____ _____    ______ ____
ROOT
ATOM      1  C   UNL     1      47.132   6.662  13.377  0.00  0.00    +0.000 A 
ATOM      2  C   UNL     1      46.294   5.594  13.722  0.00  0.00    +0.000 A 
ATOM      3  C   UNL     1      45.083   5.393  13.055  0.00  0.00    +0.000 A 
ATOM      4  C   UNL     1      44.688   6.253  12.023  0.00  0.00    +0.000 A 
ATOM      5  C   UNL     1      45.541   7.305  11.659  0.00  0.00    +0.000 A 
ATOM      6  C   UNL     1      46.755   7.503  12.324  0.00  0.00    +0.000 A 
ENDROOT
BRANCH   1   7
ATOM      7  C   UNL     1      48.421   6.886  14.122  0.00  0.00    +0.000 C 
BRANCH   7  10
ATOM      8  O   UNL     1      50.501   6.303  15.919  0.00  0.00    +0.000 OA
ATOM      9  C   UNL     1      49.352   6.374  16.344  0.00  0.00    +0.000 C 
ATOM     10  N   UNL     1      48.278   6.627  15.531  0.00  0.00    +0.000 N 
ATOM     11  H   UNL     1      47.382   6.857  15.945  0.00  0.00    +0.000 HD
BRANCH   9  12
ATOM     12  C   UNL     1      49.048   6.128  17.758  0.00  0.00    +0.000 A 
ATOM     13  C   UNL     1      49.385   4.909  18.333  0.00  0.00    +0.000 A 
ATOM     14  S   UNL     1      48.971   4.794  19.983  0.00  0.00    +0.000 S 
ATOM     15  C   UNL     1      48.361   6.382  19.997  0.00  0.00    +0.000 A 
ATOM     16  N   UNL     1      47.880   6.937  21.139  0.00  0.00    +0.000 NA
ATOM     17  C   UNL     1      47.490   8.161  21.017  0.00  0.00    +0.000 A 
ATOM     18  N   UNL     1      47.519   8.877  19.844  0.00  0.00    +0.000 N 
ATOM     19  C   UNL     1      47.922   8.332  18.653  0.00  0.00    +0.000 A 
ATOM     20  O   UNL     1      47.797   8.949  17.599  0.00  0.00    +0.000 OA
ATOM     21  C   UNL     1      48.434   6.978  18.749  0.00  0.00    +0.000 A 
ATOM     22  H   UNL     1      47.160   9.815  19.810  0.00  0.00    +0.000 HD
ENDBRANCH   9  12
ENDBRANCH   7  10
ENDBRANCH   1   7
BRANCH   4  23
ATOM     23  C   UNL     1      43.391   6.041  11.280  0.00  0.00    +0.000 C 
BRANCH  23  24
ATOM     24  N   UNL     1      43.448   5.119  10.146  0.00  0.00    +0.000 NA
ATOM     25  H   UNL     1      43.869   5.599   9.343  0.00  0.00    +0.000 HD
BRANCH  24  26
ATOM     26  CA  UNL     1      44.245   3.879  10.350  0.00  0.00    +0.000 C 
BRANCH  26  27
ATOM     27  C   UNL     1      44.659   3.383   8.938  0.00  0.00    +0.000 C 
ATOM     28  C   UNL     1      45.535   2.139   8.908  0.00  0.00    +0.000 C 
ATOM     29  C   UNL     1      46.251   2.299   7.589  0.00  0.00    +0.000 C 
ATOM     30  C   UNL     1      46.485   3.793   7.528  0.00  0.00    +0.000 C 
ATOM     31  O   UNL     1      45.433   4.417   8.277  0.00  0.00    +0.000 OA
ENDBRANCH  26  27
BRANCH  26  32
ATOM     32  C   UNL     1      43.467   2.807  11.136  0.00  0.00    +0.000 C 
BRANCH  32  33
ATOM     33  O   UNL     1      44.152   2.445  12.333  0.00  0.00    +0.000 OA
ATOM     34  H   UNL     1      43.709   1.633  12.646  0.00  0.00    +0.000 HD
ENDBRANCH  32  33
ENDBRANCH  26  32
ENDBRANCH  24  26
ENDBRANCH  23  24
ENDBRANCH   4  23
TORSDOF 9
ENDMDL
MODEL 4
REMARK VINA RESULT:    -6.560      2.934      8.342
REMARK INTER + INTRA:         -10.755
REMARK INTER:                  -9.034
REMARK INTRA:                  -1.720
REMARK UNBOUND:                -0.934
REMARK  Name = 
REMARK  9 active torsions:
REMARK  status: ('A' for Active; 'I' for Inactive)
REMARK    1  A    between atoms: C_2  and  C_21
REMARK    2  A    between atoms: N_3  and  C_4
REMARK    3  A    between atoms: C_4  and  C_5
REMARK    4  A    between atoms: C_8  and  C_9
REMARK    5  A    between atoms: C_9  and  N_10
REMARK    6  A    between atoms: N_10  and  CA_11
REMARK    7  A    between atoms: CA_11  and  C_12
REMARK    8  A    between atoms: CA_11  and  C_14
REMARK    9  A    between atoms: C_12  and  O_13
REMARK                            x       y       z     vdW  Elec       q    Type
REMARK                         _______ _______ _______ _____ _____    ______ ____
ROOT
ATOM      1  C   UNL     1      48.462   7.652  13.235  0.00  0.00    +0.000 A 
ATOM      2  C   UNL     1      48.159   6.702  14.218  0.00  0.00    +0.000 A 
ATOM      3  C   UNL     1      48.943   6.591  15.370  0.00  0.00    +0.000 A 
ATOM      4  C   UNL     1      50.043   7.435  15.564  0.00  0.00    +0.000 A 
ATOM      5  C   UNL     1      50.329   8.405  14.593  0.00  0.00    +0.000 A 
ATOM      6  C   UNL     1      49.541   8.519  13.443  0.00  0.00    +0.000 A 
ENDROOT
BRANCH   1   7
ATOM      7  C   UNL     1      47.628   7.743  11.985  0.00  0.00    +0.000 C 
BRANCH   7  10
ATOM      8  O   UNL     1      44.841   7.409  12.119  0.00  0.00    +0.000 OA
ATOM      9  C   UNL     1      45.539   6.452  11.796  0.00  0.00    +0.000 C 
ATOM     10  N   UNL     1      46.906   6.523  11.732  0.00  0.00    +0.000 N 
ATOM     11  H   UNL     1      47.424   5.773  11.288  0.00  0.00    +0.000 HD
BRANCH   9  12
ATOM     12  C   UNL     1      44.945   5.141  11.514  0.00  0.00    +0.000 A 
ATOM     13  C   UNL     1      44.226   4.483  12.503  0.00  0.00    +0.000 A 
ATOM     14  S   UNL     1      43.598   2.978  12.005  0.00  0.00    +0.000 S 
ATOM     15  C   UNL     1      44.234   3.169  10.439  0.00  0.00    +0.000 A 
ATOM     16  N   UNL     1      44.017   2.236   9.477  0.00  0.00    +0.000 NA
ATOM     17  C   UNL     1      44.518   2.528   8.324  0.00  0.00    +0.000 A 
ATOM     18  N   UNL     1      45.239   3.666   8.051  0.00  0.00    +0.000 N 
ATOM     19  C   UNL     1      45.548   4.594   9.011  0.00  0.00    +0.000 A 
ATOM     20  O   UNL     1      46.316   5.522   8.770  0.00  0.00    +0.000 OA
ATOM     21  C   UNL     1      44.951   4.346  10.309  0.00  0.00    +0.000 A 
ATOM     22  H   UNL     1      45.638   3.811   7.140  0.00  0.00    +0.000 HD
ENDBRANCH   9  12
ENDBRANCH   7  10
ENDBRANCH   1   7
BRANCH   4  23
ATOM     23  C   UNL     1      50.891   7.342  16.810  0.00  0.00    +0.000 C 
BRANCH  23  24
ATOM     24  N   UNL     1      50.863   6.057  17.507  0.00  0.00    +0.000 NA
ATOM     25  H   UNL     1      51.825   5.769  17.721  0.00  0.00    +0.000 HD
BRANCH  24  26
ATOM     26  CA  UNL     1      50.126   6.028  18.799  0.00  0.00    +0.000 C 
BRANCH  26  27
ATOM     27  C   UNL     1      49.152   4.821  18.726  0.00  0.00    +0.000 C 
ATOM     28  C   UNL     1      49.432   3.815  17.620  0.00  0.00    +0.000 C 
ATOM     29  C   UNL     1      48.068   3.206  17.405  0.00  0.00    +0.000 C 
ATOM     30  C   UNL     1      47.151   4.396  17.583  0.00  0.00    +0.000 C 
ATOM     31  O   UNL     1      47.808   5.307  18.477  0.00  0.00    +0.000 OA
ENDBRANCH  26  27
BRANCH  26  32
ATOM     32  C   UNL     1      49.389   7.351  19.080  0.00  0.00    +0.000 C 
BRANCH  32  33
ATOM     33  O   UNL     1      48.912   7.402  20.423  0.00  0.00    +0.000 OA
ATOM     34  H   UNL     1      49.355   6.661  20.880  0.00  0.00    +0.000 HD
ENDBRANCH  32  33
ENDBRANCH  26  32
ENDBRANCH  24  26
ENDBRANCH  23  24
ENDBRANCH   4  23
TORSDOF 9
ENDMDL
MODEL 5
REMARK VINA RESULT:    -6.342      2.236      2.791
REMARK INTER + INTRA:         -10.428
REMARK INTER:                  -9.460
REMARK INTRA:                  -0.969
REMARK UNBOUND:                -0.934
REMARK  Name = 
REMARK  9 active torsions:
REMARK  status: ('A' for Active; 'I' for Inactive)
REMARK    1  A    between atoms: C_2  and  C_21
REMARK    2  A    between atoms: N_3  and  C_4
REMARK    3  A    between atoms: C_4  and  C_5
REMARK    4  A    between atoms: C_8  and  C_9
REMARK    5  A    between atoms: C_9  and  N_10
REMARK    6  A    between atoms: N_10  and  CA_11
REMARK    7  A    between atoms: CA_11  and  C_12
REMARK    8  A    between atoms: CA_11  and  C_14
REMARK    9  A    between atoms: C_12  and  O_13
REMARK                            x       y       z     vdW  Elec       q    Type
REMARK                         _______ _______ _______ _____ _____    ______ ____
ROOT
ATOM      1  C   UNL     1      48.274   7.851  14.589  0.00  0.00    +0.000 A 
ATOM      2  C   UNL     1      48.550   6.633  13.956  0.00  0.00    +0.000 A 
ATOM      3  C   UNL     1      47.841   6.244  12.816  0.00  0.00    +0.000 A 
ATOM      4  C   UNL     1      46.846   7.071  12.281  0.00  0.00    +0.000 A 
ATOM      5  C   UNL     1      46.591   8.304  12.898  0.00  0.00    +0.000 A 
ATOM      6  C   UNL     1      47.303   8.695  14.036  0.00  0.00    +0.000 A 
ENDROOT
BRANCH   1   7
ATOM      7  C   UNL     1      49.023   8.246  15.834  0.00  0.00    +0.000 C 
BRANCH   7  10
ATOM      8  O   UNL     1      48.731   6.412  17.943  0.00  0.00    +0.000 OA
ATOM      9  C   UNL     1      49.746   6.368  17.254  0.00  0.00    +0.000 C 
ATOM     10  N   UNL     1      49.979   7.243  16.225  0.00  0.00    +0.000 N 
ATOM     11  H   UNL     1      50.733   7.058  15.574  0.00  0.00    +0.000 HD
BRANCH   9  12
ATOM     12  C   UNL     1      50.814   5.402  17.536  0.00  0.00    +0.000 A 
ATOM     13  C   UNL     1      52.035   5.848  18.025  0.00  0.00    +0.000 A 
ATOM     14  S   UNL     1      53.157   4.596  18.306  0.00  0.00    +0.000 S 
ATOM     15  C   UNL     1      52.039   3.411  17.818  0.00  0.00    +0.000 A 
ATOM     16  N   UNL     1      52.355   2.091  17.860  0.00  0.00    +0.000 NA
ATOM     17  C   UNL     1      51.400   1.299  17.504  0.00  0.00    +0.000 A 
ATOM     18  N   UNL     1      50.158   1.712  17.087  0.00  0.00    +0.000 N 
ATOM     19  C   UNL     1      49.823   3.035  16.955  0.00  0.00    +0.000 A 
ATOM     20  O   UNL     1      48.759   3.370  16.441  0.00  0.00    +0.000 OA
ATOM     21  C   UNL     1      50.839   3.965  17.407  0.00  0.00    +0.000 A 
ATOM     22  H   UNL     1      49.473   1.043  16.783  0.00  0.00    +0.000 HD
ENDBRANCH   9  12
ENDBRANCH   7  10
ENDBRANCH   1   7
BRANCH   4  23
ATOM     23  C   UNL     1      46.082   6.676  11.040  0.00  0.00    +0.000 C 
BRANCH  23  24
ATOM     24  N   UNL     1      44.690   6.277  11.246  0.00  0.00    +0.000 NA
ATOM     25  H   UNL     1      44.130   6.584  10.443  0.00  0.00    +0.000 HD
BRANCH  24  26
ATOM     26  CA  UNL     1      44.442   4.818  11.391  0.00  0.00    +0.000 C 
BRANCH  26  27
ATOM     27  C   UNL     1      45.120   4.131  10.174  0.00  0.00    +0.000 C 
ATOM     28  C   UNL     1      44.437   4.344   8.832  0.00  0.00    +0.000 C 
ATOM     29  C   UNL     1      44.888   3.128   8.061  0.00  0.00    +0.000 C 
ATOM     30  C   UNL     1      44.881   2.051   9.123  0.00  0.00    +0.000 C 
ATOM     31  O   UNL     1      45.129   2.695  10.381  0.00  0.00    +0.000 OA
ENDBRANCH  26  27
BRANCH  26  32
ATOM     32  C   UNL     1      42.941   4.486  11.480  0.00  0.00    +0.000 C 
BRANCH  32  33
ATOM     33  O   UNL     1      42.361   5.033  12.662  0.00  0.00    +0.000 OA
ATOM     34  H   UNL     1      43.114   5.214  13.257  0.00  0.00    +0.000 HD
ENDBRANCH  32  33
ENDBRANCH  26  32
ENDBRANCH  24  26
ENDBRANCH  23  24
ENDBRANCH   4  23
TORSDOF 9
ENDMDL
MODEL 6
REMARK VINA RESULT:    -5.966      2.551      3.294
REMARK INTER + INTRA:          -9.864
REMARK INTER:                  -8.651
REMARK INTRA:                  -1.213
REMARK UNBOUND:                -0.934
REMARK  Name = 
REMARK  9 active torsions:
REMARK  status: ('A' for Active; 'I' for Inactive)
REMARK    1  A    between atoms: C_2  and  C_21
REMARK    2  A    between atoms: N_3  and  C_4
REMARK    3  A    between atoms: C_4  and  C_5
REMARK    4  A    between atoms: C_8  and  C_9
REMARK    5  A    between atoms: C_9  and  N_10
REMARK    6  A    between atoms: N_10  and  CA_11
REMARK    7  A    between atoms: CA_11  and  C_12
REMARK    8  A    between atoms: CA_11  and  C_14
REMARK    9  A    between atoms: C_12  and  O_13
REMARK                            x       y       z     vdW  Elec       q    Type
REMARK                         _______ _______ _______ _____ _____    ______ ____
ROOT
ATOM      1  C   UNL     1      48.250   7.840  14.018  0.00  0.00    +0.000 A 
ATOM      2  C   UNL     1      48.333   6.612  13.351  0.00  0.00    +0.000 A 
ATOM      3  C   UNL     1      47.352   6.231  12.431  0.00  0.00    +0.000 A 
ATOM      4  C   UNL     1      46.271   7.076  12.154  0.00  0.00    +0.000 A 
ATOM      5  C   UNL     1      46.204   8.319  12.800  0.00  0.00    +0.000 A 
ATOM      6  C   UNL     1      47.188   8.701  13.718  0.00  0.00    +0.000 A 
ENDROOT
BRANCH   1   7
ATOM      7  C   UNL     1      49.296   8.227  15.029  0.00  0.00    +0.000 C 
BRANCH   7  10
ATOM      8  O   UNL     1      48.680   6.884  17.419  0.00  0.00    +0.000 OA
ATOM      9  C   UNL     1      49.600   6.465  16.723  0.00  0.00    +0.000 C 
ATOM     10  N   UNL     1      49.982   7.077  15.558  0.00  0.00    +0.000 N 
ATOM     11  H   UNL     1      50.616   6.598  14.928  0.00  0.00    +0.000 HD
BRANCH   9  12
ATOM     12  C   UNL     1      50.396   5.303  17.135  0.00  0.00    +0.000 A 
ATOM     13  C   UNL     1      49.770   4.084  17.360  0.00  0.00    +0.000 A 
ATOM     14  S   UNL     1      50.841   2.840  17.821  0.00  0.00    +0.000 S 
ATOM     15  C   UNL     1      52.183   3.878  17.701  0.00  0.00    +0.000 A 
ATOM     16  N   UNL     1      53.443   3.423  17.928  0.00  0.00    +0.000 NA
ATOM     17  C   UNL     1      54.369   4.305  17.760  0.00  0.00    +0.000 A 
ATOM     18  N   UNL     1      54.148   5.613  17.404  0.00  0.00    +0.000 N 
ATOM     19  C   UNL     1      52.891   6.134  17.242  0.00  0.00    +0.000 A 
ATOM     20  O   UNL     1      52.721   7.338  17.069  0.00  0.00    +0.000 OA
ATOM     21  C   UNL     1      51.816   5.167  17.354  0.00  0.00    +0.000 A 
ATOM     22  H   UNL     1      54.915   6.259  17.331  0.00  0.00    +0.000 HD
ENDBRANCH   9  12
ENDBRANCH   7  10
ENDBRANCH   1   7
BRANCH   4  23
ATOM     23  C   UNL     1      45.212   6.690  11.150  0.00  0.00    +0.000 C 
BRANCH  23  24
ATOM     24  N   UNL     1      44.122   5.858  11.660  0.00  0.00    +0.000 NA
ATOM     25  H   UNL     1      43.275   6.039  11.110  0.00  0.00    +0.000 HD
BRANCH  24  26
ATOM     26  CA  UNL     1      44.341   4.387  11.608  0.00  0.00    +0.000 C 
BRANCH  26  27
ATOM     27  C   UNL     1      45.042   4.093  10.254  0.00  0.00    +0.000 C 
ATOM     28  C   UNL     1      44.192   4.307   9.011  0.00  0.00    +0.000 C 
ATOM     29  C   UNL     1      44.855   3.382   8.021  0.00  0.00    +0.000 C 
ATOM     30  C   UNL     1      45.233   2.200   8.886  0.00  0.00    +0.000 C 
ATOM     31  O   UNL     1      45.439   2.697  10.216  0.00  0.00    +0.000 OA
ENDBRANCH  26  27
BRANCH  26  32
ATOM     32  C   UNL     1      43.030   3.595  11.766  0.00  0.00    +0.000 C 
BRANCH  32  33
ATOM     33  O   UNL     1      43.287   2.211  11.996  0.00  0.00    +0.000 OA
ATOM     34  H   UNL     1      44.206   2.068  11.694  0.00  0.00    +0.000 HD
ENDBRANCH  32  33
ENDBRANCH  26  32
ENDBRANCH  24  26
ENDBRANCH  23  24
ENDBRANCH   4  23
TORSDOF 9
ENDMDL
MODEL 7
REMARK VINA RESULT:    -5.922      1.505      2.783
REMARK INTER + INTRA:          -9.799
REMARK INTER:                  -8.723
REMARK INTRA:                  -1.076
REMARK UNBOUND:                -0.934
REMARK  Name = 
REMARK  9 active torsions:
REMARK  status: ('A' for Active; 'I' for Inactive)
REMARK    1  A    between atoms: C_2  and  C_21
REMARK    2  A    between atoms: N_3  and  C_4
REMARK    3  A    between atoms: C_4  and  C_5
REMARK    4  A    between atoms: C_8  and  C_9
REMARK    5  A    between atoms: C_9  and  N_10
REMARK    6  A    between atoms: N_10  and  CA_11
REMARK    7  A    between atoms: CA_11  and  C_12
REMARK    8  A    between atoms: CA_11  and  C_14
REMARK    9  A    between atoms: C_12  and  O_13
REMARK                            x       y       z     vdW  Elec       q    Type
REMARK                         _______ _______ _______ _____ _____    ______ ____
ROOT
ATOM      1  C   UNL     1      47.941   8.378  13.205  0.00  0.00    +0.000 A 
ATOM      2  C   UNL     1      48.188   7.173  12.534  0.00  0.00    +0.000 A 
ATOM      3  C   UNL     1      47.222   6.613  11.694  0.00  0.00    +0.000 A 
ATOM      4  C   UNL     1      45.990   7.251  11.502  0.00  0.00    +0.000 A 
ATOM      5  C   UNL     1      45.755   8.472  12.151  0.00  0.00    +0.000 A 
ATOM      6  C   UNL     1      46.724   9.034  12.988  0.00  0.00    +0.000 A 
ENDROOT
BRANCH   1   7
ATOM      7  C   UNL     1      48.978   8.957  14.130  0.00  0.00    +0.000 C 
BRANCH   7  10
ATOM      8  O   UNL     1      47.785   9.305  16.651  0.00  0.00    +0.000 OA
ATOM      9  C   UNL     1      48.542   8.354  16.478  0.00  0.00    +0.000 C 
ATOM     10  N   UNL     1      49.185   8.128  15.289  0.00  0.00    +0.000 N 
ATOM     11  H   UNL     1      49.650   7.240  15.134  0.00  0.00    +0.000 HD
BRANCH   9  12
ATOM     12  C   UNL     1      48.855   7.425  17.570  0.00  0.00    +0.000 A 
ATOM     13  C   UNL     1      49.323   7.917  18.781  0.00  0.00    +0.000 A 
ATOM     14  S   UNL     1      49.627   6.705  19.940  0.00  0.00    +0.000 S 
ATOM     15  C   UNL     1      49.109   5.482  18.877  0.00  0.00    +0.000 A 
ATOM     16  N   UNL     1      49.076   4.182  19.268  0.00  0.00    +0.000 NA
ATOM     17  C   UNL     1      48.622   3.366  18.377  0.00  0.00    +0.000 A 
ATOM     18  N   UNL     1      48.216   3.732  17.117  0.00  0.00    +0.000 N 
ATOM     19  C   UNL     1      48.307   5.019  16.654  0.00  0.00    +0.000 A 
ATOM     20  O   UNL     1      48.076   5.287  15.478  0.00  0.00    +0.000 OA
ATOM     21  C   UNL     1      48.749   5.987  17.639  0.00  0.00    +0.000 A 
ATOM     22  H   UNL     1      47.912   3.038  16.457  0.00  0.00    +0.000 HD
ENDBRANCH   9  12
ENDBRANCH   7  10
ENDBRANCH   1   7
BRANCH   4  23
ATOM     23  C   UNL     1      44.941   6.670  10.585  0.00  0.00    +0.000 C 
BRANCH  23  24
ATOM     24  N   UNL     1      45.322   5.454   9.867  0.00  0.00    +0.000 NA
ATOM     25  H   UNL     1      46.031   4.950  10.412  0.00  0.00    +0.000 HD
BRANCH  24  26
ATOM     26  CA  UNL     1      44.230   4.478   9.605  0.00  0.00    +0.000 C 
BRANCH  26  27
ATOM     27  C   UNL     1      43.792   3.924  10.987  0.00  0.00    +0.000 C 
ATOM     28  C   UNL     1      42.850   4.812  11.785  0.00  0.00    +0.000 C 
ATOM     29  C   UNL     1      43.131   4.368  13.200  0.00  0.00    +0.000 C 
ATOM     30  C   UNL     1      44.623   4.120  13.170  0.00  0.00    +0.000 C 
ATOM     31  O   UNL     1      44.964   3.752  11.826  0.00  0.00    +0.000 OA
ENDBRANCH  26  27
BRANCH  26  32
ATOM     32  C   UNL     1      44.666   3.358   8.643  0.00  0.00    +0.000 C 
BRANCH  32  33
ATOM     33  O   UNL     1      45.368   3.886   7.520  0.00  0.00    +0.000 OA
ATOM     34  H   UNL     1      44.733   4.483   7.079  0.00  0.00    +0.000 HD
ENDBRANCH  32  33
ENDBRANCH  26  32
ENDBRANCH  24  26
ENDBRANCH  23  24
ENDBRANCH   4  23
TORSDOF 9
ENDMDL
MODEL 8
REMARK VINA RESULT:    -5.670      3.440      4.703
REMARK INTER + INTRA:          -9.422
REMARK INTER:                  -8.360
REMARK INTRA:                  -1.062
REMARK UNBOUND:                -0.934
REMARK  Name = 
REMARK  9 active torsions:
REMARK  status: ('A' for Active; 'I' for Inactive)
REMARK    1  A    between atoms: C_2  and  C_21
REMARK    2  A    between atoms: N_3  and  C_4
REMARK    3  A    between atoms: C_4  and  C_5
REMARK    4  A    between atoms: C_8  and  C_9
REMARK    5  A    between atoms: C_9  and  N_10
REMARK    6  A    between atoms: N_10  and  CA_11
REMARK    7  A    between atoms: CA_11  and  C_12
REMARK    8  A    between atoms: CA_11  and  C_14
REMARK    9  A    between atoms: C_12  and  O_13
REMARK                            x       y       z     vdW  Elec       q    Type
REMARK                         _______ _______ _______ _____ _____    ______ ____
ROOT
ATOM      1  C   UNL     1      48.204   5.265  16.051  0.00  0.00    +0.000 A 
ATOM      2  C   UNL     1      48.295   6.307  15.120  0.00  0.00    +0.000 A 
ATOM      3  C   UNL     1      47.550   6.275  13.938  0.00  0.00    +0.000 A 
ATOM      4  C   UNL     1      46.693   5.201  13.666  0.00  0.00    +0.000 A 
ATOM      5  C   UNL     1      46.581   4.172  14.612  0.00  0.00    +0.000 A 
ATOM      6  C   UNL     1      47.323   4.207  15.797  0.00  0.00    +0.000 A 
ENDROOT
BRANCH   1   7
ATOM      7  C   UNL     1      49.033   5.295  17.307  0.00  0.00    +0.000 C 
BRANCH   7  10
ATOM      8  O   UNL     1      51.114   5.965  19.073  0.00  0.00    +0.000 OA
ATOM      9  C   UNL     1      51.397   5.556  17.951  0.00  0.00    +0.000 C 
ATOM     10  N   UNL     1      50.443   5.234  17.021  0.00  0.00    +0.000 N 
ATOM     11  H   UNL     1      50.714   4.731  16.183  0.00  0.00    +0.000 HD
BRANCH   9  12
ATOM     12  C   UNL     1      52.792   5.444  17.512  0.00  0.00    +0.000 A 
ATOM     13  C   UNL     1      53.662   4.601  18.191  0.00  0.00    +0.000 A 
ATOM     14  S   UNL     1      55.240   4.584  17.545  0.00  0.00    +0.000 S 
ATOM     15  C   UNL     1      54.806   5.674  16.314  0.00  0.00    +0.000 A 
ATOM     16  N   UNL     1      55.704   6.055  15.368  0.00  0.00    +0.000 NA
ATOM     17  C   UNL     1      55.230   6.851  14.469  0.00  0.00    +0.000 A 
ATOM     18  N   UNL     1      53.938   7.319  14.443  0.00  0.00    +0.000 N 
ATOM     19  C   UNL     1      53.024   7.024  15.420  0.00  0.00    +0.000 A 
ATOM     20  O   UNL     1      51.926   7.575  15.448  0.00  0.00    +0.000 OA
ATOM     21  C   UNL     1      53.486   6.079  16.418  0.00  0.00    +0.000 A 
ATOM     22  H   UNL     1      53.646   7.972  13.736  0.00  0.00    +0.000 HD
ENDBRANCH   9  12
ENDBRANCH   7  10
ENDBRANCH   1   7
BRANCH   4  23
ATOM     23  C   UNL     1      45.868   5.158  12.403  0.00  0.00    +0.000 C 
BRANCH  23  24
ATOM     24  N   UNL     1      44.869   4.092  12.329  0.00  0.00    +0.000 NA
ATOM     25  H   UNL     1      44.526   3.887  13.274  0.00  0.00    +0.000 HD
BRANCH  24  26
ATOM     26  CA  UNL     1      43.663   4.380  11.506  0.00  0.00    +0.000 C 
BRANCH  26  27
ATOM     27  C   UNL     1      43.815   3.558  10.197  0.00  0.00    +0.000 C 
ATOM     28  C   UNL     1      44.968   2.566  10.172  0.00  0.00    +0.000 C 
ATOM     29  C   UNL     1      45.237   2.443   8.692  0.00  0.00    +0.000 C 
ATOM     30  C   UNL     1      45.012   3.857   8.204  0.00  0.00    +0.000 C 
ATOM     31  O   UNL     1      44.060   4.464   9.091  0.00  0.00    +0.000 OA
ENDBRANCH  26  27
BRANCH  26  32
ATOM     32  C   UNL     1      43.491   5.885  11.228  0.00  0.00    +0.000 C 
BRANCH  32  33
ATOM     33  O   UNL     1      42.210   6.345  11.653  0.00  0.00    +0.000 OA
ATOM     34  H   UNL     1      42.394   7.022  12.333  0.00  0.00    +0.000 HD
ENDBRANCH  32  33
ENDBRANCH  26  32
ENDBRANCH  24  26
ENDBRANCH  23  24
ENDBRANCH   4  23
TORSDOF 9
ENDMDL
MODEL 9
REMARK VINA RESULT:    -5.537      3.133      8.528
REMARK INTER + INTRA:          -9.223
REMARK INTER:                  -7.830
REMARK INTRA:                  -1.394
REMARK UNBOUND:                -0.934
REMARK  Name = 
REMARK  9 active torsions:
REMARK  status: ('A' for Active; 'I' for Inactive)
REMARK    1  A    between atoms: C_2  and  C_21
REMARK    2  A    between atoms: N_3  and  C_4
REMARK    3  A    between atoms: C_4  and  C_5
REMARK    4  A    between atoms: C_8  and  C_9
REMARK    5  A    between atoms: C_9  and  N_10
REMARK    6  A    between atoms: N_10  and  CA_11
REMARK    7  A    between atoms: CA_11  and  C_12
REMARK    8  A    between atoms: CA_11  and  C_14
REMARK    9  A    between atoms: C_12  and  O_13
REMARK                            x       y       z     vdW  Elec       q    Type
REMARK                         _______ _______ _______ _____ _____    ______ ____
ROOT
ATOM      1  C   UNL     1      48.197   8.576  13.135  0.00  0.00    +0.000 A 
ATOM      2  C   UNL     1      47.919   7.717  14.206  0.00  0.00    +0.000 A 
ATOM      3  C   UNL     1      48.507   7.922  15.458  0.00  0.00    +0.000 A 
ATOM      4  C   UNL     1      49.382   8.996  15.665  0.00  0.00    +0.000 A 
ATOM      5  C   UNL     1      49.637   9.872  14.600  0.00  0.00    +0.000 A 
ATOM      6  C   UNL     1      49.045   9.669  13.349  0.00  0.00    +0.000 A 
ENDROOT
BRANCH   1   7
ATOM      7  C   UNL     1      47.581   8.328  11.784  0.00  0.00    +0.000 C 
BRANCH   7  10
ATOM      8  O   UNL     1      44.803   8.021  11.497  0.00  0.00    +0.000 OA
ATOM      9  C   UNL     1      45.506   7.018  11.574  0.00  0.00    +0.000 C 
ATOM     10  N   UNL     1      46.865   7.080  11.743  0.00  0.00    +0.000 N 
ATOM     11  H   UNL     1      47.422   6.242  11.618  0.00  0.00    +0.000 HD
BRANCH   9  12
ATOM     12  C   UNL     1      44.918   5.674  11.552  0.00  0.00    +0.000 A 
ATOM     13  C   UNL     1      44.209   5.214  12.654  0.00  0.00    +0.000 A 
ATOM     14  S   UNL     1      43.586   3.640  12.457  0.00  0.00    +0.000 S 
ATOM     15  C   UNL     1      44.210   3.531  10.879  0.00  0.00    +0.000 A 
ATOM     16  N   UNL     1      43.993   2.430  10.114  0.00  0.00    +0.000 NA
ATOM     17  C   UNL     1      44.486   2.499   8.923  0.00  0.00    +0.000 A 
ATOM     18  N   UNL     1      45.198   3.566   8.433  0.00  0.00    +0.000 N 
ATOM     19  C   UNL     1      45.509   4.662   9.195  0.00  0.00    +0.000 A 
ATOM     20  O   UNL     1      46.270   5.530   8.776  0.00  0.00    +0.000 OA
ATOM     21  C   UNL     1      44.921   4.664  10.521  0.00  0.00    +0.000 A 
ATOM     22  H   UNL     1      45.591   3.536   7.508  0.00  0.00    +0.000 HD
ENDBRANCH   9  12
ENDBRANCH   7  10
ENDBRANCH   1   7
BRANCH   4  23
ATOM     23  C   UNL     1      50.013   9.244  17.013  0.00  0.00    +0.000 C 
BRANCH  23  24
ATOM     24  N   UNL     1      50.610   8.078  17.663  0.00  0.00    +0.000 NA
ATOM     25  H   UNL     1      49.902   7.341  17.750  0.00  0.00    +0.000 HD
BRANCH  24  26
ATOM     26  CA  UNL     1      51.767   7.458  16.961  0.00  0.00    +0.000 C 
BRANCH  26  27
ATOM     27  C   UNL     1      51.403   5.965  16.742  0.00  0.00    +0.000 C 
ATOM     28  C   UNL     1      50.204   5.457  17.528  0.00  0.00    +0.000 C 
ATOM     29  C   UNL     1      50.499   3.979  17.619  0.00  0.00    +0.000 C 
ATOM     30  C   UNL     1      52.001   3.960  17.798  0.00  0.00    +0.000 C 
ATOM     31  O   UNL     1      52.519   5.136  17.158  0.00  0.00    +0.000 OA
ENDBRANCH  26  27
BRANCH  26  32
ATOM     32  C   UNL     1      53.083   7.625  17.744  0.00  0.00    +0.000 C 
BRANCH  32  33
ATOM     33  O   UNL     1      54.201   7.706  16.863  0.00  0.00    +0.000 OA
ATOM     34  H   UNL     1      54.752   6.929  17.078  0.00  0.00    +0.000 HD
ENDBRANCH  32  33
ENDBRANCH  26  32
ENDBRANCH  24  26
ENDBRANCH  23  24
ENDBRANCH   4  23
TORSDOF 9
ENDMDL
