MODEL 1
REMARK VINA RESULT:    -8.819      0.000      0.000
REMARK INTER + INTRA:         -13.506
REMARK INTER:                 -12.428
REMARK INTRA:                  -1.077
REMARK UNBOUND:                -1.077
REMARK  Name = 
REMARK  7 active torsions:
REMARK  status: ('A' for Active; 'I' for Inactive)
REMARK    1  A    between atoms: C_2  and  C_20
REMARK    2  A    between atoms: N_3  and  C_4
REMARK    3  A    between atoms: C_4  and  C_5
REMARK    4  A    between atoms: C_8  and  C_9
REMARK    5  A    between atoms: C_9  and  N_10
REMARK    6  A    between atoms: N_10  and  C_11
REMARK    7  A    between atoms: C_11  and  C_12
REMARK                            x       y       z     vdW  Elec       q    Type
REMARK                         _______ _______ _______ _____ _____    ______ ____
ROOT
ATOM      1  C   UNL     1      46.724   7.962  13.116  0.00  0.00    +0.000 C 
ENDROOT
BRANCH   1   2
ATOM      2  C   UNL     1      45.943   6.877  12.417  0.00  0.00    +0.000 A 
ATOM      3  C   UNL     1      46.285   6.506  11.120  0.00  0.00    +0.000 A 
ATOM      4  C   UNL     1      45.547   5.507  10.489  0.00  0.00    +0.000 A 
ATOM      5  C   UNL     1      44.482   4.902  11.159  0.00  0.00    +0.000 A 
ATOM      6  C   UNL     1      44.200   5.358  12.443  0.00  0.00    +0.000 A 
ATOM      7  N   UNL     1      44.895   6.327  13.082  0.00  0.00    +0.000 NA
BRANCH   5   8
ATOM      8  C   UNL     1      43.660   3.810  10.523  0.00  0.00    +0.000 C 
BRANCH   8   9
ATOM      9  N   UNL     1      44.154   3.500   9.184  0.00  0.00    +0.000 NA
ATOM     10  H   UNL     1      44.788   4.240   8.882  0.00  0.00    +0.000 HD
BRANCH   9  11
ATOM     11  C   UNL     1      44.860   2.220   9.136  0.00  0.00    +0.000 C 
BRANCH  11  12
ATOM     12  C   UNL     1      45.873   2.223   8.023  0.00  0.00    +0.000 A 
ATOM     13  C   UNL     1      46.020   3.321   7.168  0.00  0.00    +0.000 A 
ATOM     14  C   UNL     1      47.003   3.309   6.184  0.00  0.00    +0.000 A 
ATOM     15  C   UNL     1      47.805   2.187   6.073  0.00  0.00    +0.000 A 
ATOM     16  N   UNL     1      47.680   1.095   6.858  0.00  0.00    +0.000 NA
ATOM     17  C   UNL     1      46.719   1.138   7.811  0.00  0.00    +0.000 A 
ENDBRANCH  11  12
ENDBRANCH   9  11
ENDBRANCH   8   9
ENDBRANCH   5   8
ENDBRANCH   1   2
BRANCH   1  20
ATOM     18  O   UNL     1      48.988   6.290  13.334  0.00  0.00    +0.000 OA
ATOM     19  C   UNL     1      48.402   6.640  14.353  0.00  0.00    +0.000 C 
ATOM     20  N   UNL     1      47.322   7.482  14.335  0.00  0.00    +0.000 N 
ATOM     21  H   UNL     1      46.841   7.725  15.189  0.00  0.00    +0.000 HD
BRANCH  19  22
ATOM     22  C   UNL     1      48.840   6.216  15.680  0.00  0.00    +0.000 A 
ATOM     23  C   UNL     1      49.811   6.927  16.369  0.00  0.00    +0.000 A 
ATOM     24  S   UNL     1      50.149   6.281  17.914  0.00  0.00    +0.000 S 
ATOM     25  C   UNL     1      49.032   5.017  17.694  0.00  0.00    +0.000 A 
ATOM     26  N   UNL     1      48.817   4.085  18.662  0.00  0.00    +0.000 NA
ATOM     27  C   UNL     1      47.937   3.191  18.356  0.00  0.00    +0.000 A 
ATOM     28  N   UNL     1      47.259   3.133  17.165  0.00  0.00    +0.000 N 
ATOM     29  C   UNL     1      47.465   4.031  16.146  0.00  0.00    +0.000 A 
ATOM     30  O   UNL     1      46.859   3.928  15.088  0.00  0.00    +0.000 OA
ATOM     31  C   UNL     1      48.415   5.082  16.459  0.00  0.00    +0.000 A 
ATOM     32  H   UNL     1      46.582   2.409  16.980  0.00  0.00    +0.000 HD
ENDBRANCH  19  22
ENDBRANCH   1  20
TORSDOF 7
ENDMDL
MODEL 2
REMARK VINA RESULT:    -8.102      1.541      1.767
REMARK INTER + INTRA:         -12.495
REMARK INTER:                 -11.548
REMARK INTRA:                  -0.947
REMARK UNBOUND:                -1.077
REMARK  Name = 
REMARK  7 active torsions:
REMARK  status: ('A' for Active; 'I' for Inactive)
REMARK    1  A    between atoms: C_2  and  C_20
REMARK    2  A    between atoms: N_3  and  C_4
REMARK    3  A    between atoms: C_4  and  C_5
REMARK    4  A    between atoms: C_8  and  C_9
REMARK    5  A    between atoms: C_9  and  N_10
REMARK    6  A    between atoms: N_10  and  C_11
REMARK    7  A    between atoms: C_11  and  C_12
REMARK                            x       y       z     vdW  Elec       q    Type
REMARK                         _______ _______ _______ _____ _____    ______ ____
ROOT
ATOM      1  C   UNL     1      48.279   6.941  13.400  0.00  0.00    +0.000 C 
ENDROOT
BRANCH   1   2
ATOM      2  C   UNL     1      47.138   6.190  12.760  0.00  0.00    +0.000 A 
ATOM      3  C   UNL     1      46.656   6.592  11.518  0.00  0.00    +0.000 A 
ATOM      4  C   UNL     1      45.597   5.890  10.947  0.00  0.00    +0.000 A 
ATOM      5  C   UNL     1      45.037   4.806  11.626  0.00  0.00    +0.000 A 
ATOM      6  C   UNL     1      45.568   4.495  12.873  0.00  0.00    +0.000 A 
ATOM      7  N   UNL     1      46.594   5.159  13.455  0.00  0.00    +0.000 NA
BRANCH   5   8
ATOM      8  C   UNL     1      43.897   4.009  11.045  0.00  0.00    +0.000 C 
BRANCH   8   9
ATOM      9  N   UNL     1      44.155   3.673   9.648  0.00  0.00    +0.000 NA
ATOM     10  H   UNL     1      44.822   4.340   9.261  0.00  0.00    +0.000 HD
BRANCH   9  11
ATOM     11  C   UNL     1      44.692   2.321   9.492  0.00  0.00    +0.000 C 
BRANCH  11  12
ATOM     12  C   UNL     1      45.659   2.271   8.341  0.00  0.00    +0.000 A 
ATOM     13  C   UNL     1      45.917   3.397   7.551  0.00  0.00    +0.000 A 
ATOM     14  C   UNL     1      46.858   3.328   6.528  0.00  0.00    +0.000 A 
ATOM     15  C   UNL     1      47.505   2.123   6.314  0.00  0.00    +0.000 A 
ATOM     16  N   UNL     1      47.267   1.005   7.034  0.00  0.00    +0.000 NA
ATOM     17  C   UNL     1      46.352   1.105   8.027  0.00  0.00    +0.000 A 
ENDBRANCH  11  12
ENDBRANCH   9  11
ENDBRANCH   8   9
ENDBRANCH   5   8
ENDBRANCH   1   2
BRANCH   1  20
ATOM     18  O   UNL     1      50.312   6.664  15.338  0.00  0.00    +0.000 OA
ATOM     19  C   UNL     1      49.156   6.845  15.706  0.00  0.00    +0.000 C 
ATOM     20  N   UNL     1      48.120   7.029  14.829  0.00  0.00    +0.000 N 
ATOM     21  H   UNL     1      47.173   7.142  15.162  0.00  0.00    +0.000 HD
BRANCH  19  22
ATOM     22  C   UNL     1      48.797   6.919  17.119  0.00  0.00    +0.000 A 
ATOM     23  C   UNL     1      48.342   8.105  17.675  0.00  0.00    +0.000 A 
ATOM     24  S   UNL     1      47.946   7.964  19.331  0.00  0.00    +0.000 S 
ATOM     25  C   UNL     1      48.401   6.324  19.359  0.00  0.00    +0.000 A 
ATOM     26  N   UNL     1      48.302   5.582  20.496  0.00  0.00    +0.000 NA
ATOM     27  C   UNL     1      48.678   4.353  20.364  0.00  0.00    +0.000 A 
ATOM     28  N   UNL     1      49.155   3.799  19.204  0.00  0.00    +0.000 N 
ATOM     29  C   UNL     1      49.304   4.516  18.042  0.00  0.00    +0.000 A 
ATOM     30  O   UNL     1      49.759   3.990  17.034  0.00  0.00    +0.000 OA
ATOM     31  C   UNL     1      48.854   5.893  18.127  0.00  0.00    +0.000 A 
ATOM     32  H   UNL     1      49.436   2.831  19.160  0.00  0.00    +0.000 HD
ENDBRANCH  19  22
ENDBRANCH   1  20
TORSDOF 7
ENDMDL
MODEL 3
REMARK VINA RESULT:    -8.006      2.514      3.565
REMARK INTER + INTRA:         -12.359
REMARK INTER:                 -11.380
REMARK INTRA:                  -0.979
REMARK UNBOUND:                -1.077
REMARK  Name = 
REMARK  7 active torsions:
REMARK  status: ('A' for Active; 'I' for Inactive)
REMARK    1  A    between atoms: C_2  and  C_20
REMARK    2  A    between atoms: N_3  and  C_4
REMARK    3  A    between atoms: C_4  and  C_5
REMARK    4  A    between atoms: C_8  and  C_9
REMARK    5  A    between atoms: C_9  and  N_10
REMARK    6  A    between atoms: N_10  and  C_11
REMARK    7  A    between atoms: C_11  and  C_12
REMARK                            x       y       z     vdW  Elec       q    Type
REMARK                         _______ _______ _______ _____ _____    ______ ____
ROOT
ATOM      1  C   UNL     1      47.471   4.289  15.421  0.00  0.00    +0.000 C 
ENDROOT
BRANCH   1   2
ATOM      2  C   UNL     1      46.852   4.722  14.115  0.00  0.00    +0.000 A 
ATOM      3  C   UNL     1      47.339   5.849  13.461  0.00  0.00    +0.000 A 
ATOM      4  C   UNL     1      46.749   6.238  12.260  0.00  0.00    +0.000 A 
ATOM      5  C   UNL     1      45.685   5.499  11.738  0.00  0.00    +0.000 A 
ATOM      6  C   UNL     1      45.252   4.403  12.477  0.00  0.00    +0.000 A 
ATOM      7  N   UNL     1      45.800   4.003  13.647  0.00  0.00    +0.000 NA
BRANCH   5   8
ATOM      8  C   UNL     1      45.021   5.873  10.438  0.00  0.00    +0.000 C 
BRANCH   8   9
ATOM      9  N   UNL     1      45.698   5.245   9.307  0.00  0.00    +0.000 NA
ATOM     10  H   UNL     1      46.564   4.815   9.633  0.00  0.00    +0.000 HD
BRANCH   9  11
ATOM     11  C   UNL     1      44.873   4.223   8.664  0.00  0.00    +0.000 C 
BRANCH  11  12
ATOM     12  C   UNL     1      45.741   3.133   8.094  0.00  0.00    +0.000 A 
ATOM     13  C   UNL     1      46.712   3.401   7.124  0.00  0.00    +0.000 A 
ATOM     14  C   UNL     1      47.531   2.377   6.659  0.00  0.00    +0.000 A 
ATOM     15  C   UNL     1      47.343   1.105   7.170  0.00  0.00    +0.000 A 
ATOM     16  N   UNL     1      46.400   0.796   8.087  0.00  0.00    +0.000 NA
ATOM     17  C   UNL     1      45.623   1.814   8.525  0.00  0.00    +0.000 A 
ENDBRANCH  11  12
ENDBRANCH   9  11
ENDBRANCH   8   9
ENDBRANCH   5   8
ENDBRANCH   1   2
BRANCH   1  20
ATOM     18  O   UNL     1      49.728   5.362  16.732  0.00  0.00    +0.000 OA
ATOM     19  C   UNL     1      48.614   5.796  17.006  0.00  0.00    +0.000 C 
ATOM     20  N   UNL     1      47.475   5.357  16.387  0.00  0.00    +0.000 N 
ATOM     21  H   UNL     1      46.568   5.710  16.659  0.00  0.00    +0.000 HD
BRANCH  19  22
ATOM     22  C   UNL     1      48.419   6.852  17.996  0.00  0.00    +0.000 A 
ATOM     23  C   UNL     1      48.385   6.559  19.350  0.00  0.00    +0.000 A 
ATOM     24  S   UNL     1      48.182   7.940  20.334  0.00  0.00    +0.000 S 
ATOM     25  C   UNL     1      48.102   8.965  18.977  0.00  0.00    +0.000 A 
ATOM     26  N   UNL     1      47.941  10.309  19.114  0.00  0.00    +0.000 NA
ATOM     27  C   UNL     1      47.904  10.958  17.998  0.00  0.00    +0.000 A 
ATOM     28  N   UNL     1      48.001  10.387  16.755  0.00  0.00    +0.000 N 
ATOM     29  C   UNL     1      48.132   9.033  16.566  0.00  0.00    +0.000 A 
ATOM     30  O   UNL     1      48.189   8.560  15.438  0.00  0.00    +0.000 OA
ATOM     31  C   UNL     1      48.222   8.264  17.793  0.00  0.00    +0.000 A 
ATOM     32  H   UNL     1      47.965  10.945  15.915  0.00  0.00    +0.000 HD
ENDBRANCH  19  22
ENDBRANCH   1  20
TORSDOF 7
ENDMDL
MODEL 4
REMARK VINA RESULT:    -7.844      2.339      3.019
REMARK INTER + INTRA:         -12.131
REMARK INTER:                 -11.158
REMARK INTRA:                  -0.973
REMARK UNBOUND:                -1.077
REMARK  Name = 
REMARK  7 active torsions:
REMARK  status: ('A' for Active; 'I' for Inactive)
REMARK    1  A    between atoms: C_2  and  C_20
REMARK    2  A    between atoms: N_3  and  C_4
REMARK    3  A    between atoms: C_4  and  C_5
REMARK    4  A    between atoms: C_8  and  C_9
REMARK    5  A    between atoms: C_9  and  N_10
REMARK    6  A    between atoms: N_10  and  C_11
REMARK    7  A    between atoms: C_11  and  C_12
REMARK                            x       y       z     vdW  Elec       q    Type
REMARK                         _______ _______ _______ _____ _____    ______ ____
ROOT
ATOM      1  C   UNL     1      47.147   4.106  15.398  0.00  0.00    +0.000 C 
ENDROOT
BRANCH   1   2
ATOM      2  C   UNL     1      46.595   4.643  14.101  0.00  0.00    +0.000 A 
ATOM      3  C   UNL     1      47.315   5.594  13.385  0.00  0.00    +0.000 A 
ATOM      4  C   UNL     1      46.786   6.083  12.194  0.00  0.00    +0.000 A 
ATOM      5  C   UNL     1      45.547   5.620  11.742  0.00  0.00    +0.000 A 
ATOM      6  C   UNL     1      44.890   4.689  12.540  0.00  0.00    +0.000 A 
ATOM      7  N   UNL     1      45.377   4.197  13.703  0.00  0.00    +0.000 NA
BRANCH   5   8
ATOM      8  C   UNL     1      44.937   6.112  10.455  0.00  0.00    +0.000 C 
BRANCH   8   9
ATOM      9  N   UNL     1      45.494   5.400   9.309  0.00  0.00    +0.000 NA
ATOM     10  H   UNL     1      46.463   5.149   9.510  0.00  0.00    +0.000 HD
BRANCH   9  11
ATOM     11  C   UNL     1      44.745   4.184   8.993  0.00  0.00    +0.000 C 
BRANCH  11  12
ATOM     12  C   UNL     1      45.632   3.190   8.293  0.00  0.00    +0.000 A 
ATOM     13  C   UNL     1      46.533   3.585   7.298  0.00  0.00    +0.000 A 
ATOM     14  C   UNL     1      47.375   2.646   6.710  0.00  0.00    +0.000 A 
ATOM     15  C   UNL     1      47.279   1.329   7.126  0.00  0.00    +0.000 A 
ATOM     16  N   UNL     1      46.405   0.900   8.062  0.00  0.00    +0.000 NA
ATOM     17  C   UNL     1      45.604   1.837   8.621  0.00  0.00    +0.000 A 
ENDBRANCH  11  12
ENDBRANCH   9  11
ENDBRANCH   8   9
ENDBRANCH   5   8
ENDBRANCH   1   2
BRANCH   1  20
ATOM     18  O   UNL     1      49.537   3.754  16.859  0.00  0.00    +0.000 OA
ATOM     19  C   UNL     1      49.000   4.857  16.847  0.00  0.00    +0.000 C 
ATOM     20  N   UNL     1      47.862   5.119  16.131  0.00  0.00    +0.000 N 
ATOM     21  H   UNL     1      47.424   6.028  16.169  0.00  0.00    +0.000 HD
BRANCH  19  22
ATOM     22  C   UNL     1      49.558   5.996  17.570  0.00  0.00    +0.000 A 
ATOM     23  C   UNL     1      50.839   6.451  17.298  0.00  0.00    +0.000 A 
ATOM     24  S   UNL     1      51.282   7.812  18.229  0.00  0.00    +0.000 S 
ATOM     25  C   UNL     1      49.787   7.813  19.044  0.00  0.00    +0.000 A 
ATOM     26  N   UNL     1      49.499   8.745  19.993  0.00  0.00    +0.000 NA
ATOM     27  C   UNL     1      48.326   8.623  20.521  0.00  0.00    +0.000 A 
ATOM     28  N   UNL     1      47.418   7.648  20.197  0.00  0.00    +0.000 N 
ATOM     29  C   UNL     1      47.676   6.668  19.270  0.00  0.00    +0.000 A 
ATOM     30  O   UNL     1      46.848   5.799  19.029  0.00  0.00    +0.000 OA
ATOM     31  C   UNL     1      48.966   6.787  18.617  0.00  0.00    +0.000 A 
ATOM     32  H   UNL     1      46.515   7.601  20.643  0.00  0.00    +0.000 HD
ENDBRANCH  19  22
ENDBRANCH   1  20
TORSDOF 7
ENDMDL
MODEL 5
REMARK VINA RESULT:    -7.811      2.252      3.339
REMARK INTER + INTRA:         -12.085
REMARK INTER:                 -11.212
REMARK INTRA:                  -0.872
REMARK UNBOUND:                -1.077
REMARK  Name = 
REMARK  7 active torsions:
REMARK  status: ('A' for Active; 'I' for Inactive)
REMARK    1  A    between atoms: C_2  and  C_20
REMARK    2  A    between atoms: N_3  and  C_4
REMARK    3  A    between atoms: C_4  and  C_5
REMARK    4  A    between atoms: C_8  and  C_9
REMARK    5  A    between atoms: C_9  and  N_10
REMARK    6  A    between atoms: N_10  and  C_11
REMARK    7  A    between atoms: C_11  and  C_12
REMARK                            x       y       z     vdW  Elec       q    Type
REMARK                         _______ _______ _______ _____ _____    ______ ____
ROOT
ATOM      1  C   UNL     1      47.137   3.909  15.256  0.00  0.00    +0.000 C 
ENDROOT
BRANCH   1   2
ATOM      2  C   UNL     1      46.585   4.443  13.958  0.00  0.00    +0.000 A 
ATOM      3  C   UNL     1      46.889   5.741  13.560  0.00  0.00    +0.000 A 
ATOM      4  C   UNL     1      46.363   6.219  12.362  0.00  0.00    +0.000 A 
ATOM      5  C   UNL     1      45.542   5.396  11.587  0.00  0.00    +0.000 A 
ATOM      6  C   UNL     1      45.275   4.124  12.079  0.00  0.00    +0.000 A 
ATOM      7  N   UNL     1      45.767   3.632  13.240  0.00  0.00    +0.000 NA
BRANCH   5   8
ATOM      8  C   UNL     1      44.958   5.864  10.279  0.00  0.00    +0.000 C 
BRANCH   8   9
ATOM      9  N   UNL     1      45.609   5.202   9.151  0.00  0.00    +0.000 NA
ATOM     10  H   UNL     1      46.501   4.815   9.460  0.00  0.00    +0.000 HD
BRANCH   9  11
ATOM     11  C   UNL     1      44.792   4.125   8.593  0.00  0.00    +0.000 C 
BRANCH  11  12
ATOM     12  C   UNL     1      45.669   3.056   7.999  0.00  0.00    +0.000 A 
ATOM     13  C   UNL     1      46.511   3.320   6.913  0.00  0.00    +0.000 A 
ATOM     14  C   UNL     1      47.348   2.321   6.424  0.00  0.00    +0.000 A 
ATOM     15  C   UNL     1      47.305   1.077   7.029  0.00  0.00    +0.000 A 
ATOM     16  N   UNL     1      46.488   0.772   8.060  0.00  0.00    +0.000 NA
ATOM     17  C   UNL     1      45.691   1.765   8.519  0.00  0.00    +0.000 A 
ENDBRANCH  11  12
ENDBRANCH   9  11
ENDBRANCH   8   9
ENDBRANCH   5   8
ENDBRANCH   1   2
BRANCH   1  20
ATOM     18  O   UNL     1      47.795   3.665  17.990  0.00  0.00    +0.000 OA
ATOM     19  C   UNL     1      47.801   4.775  17.470  0.00  0.00    +0.000 C 
ATOM     20  N   UNL     1      47.534   4.974  16.141  0.00  0.00    +0.000 N 
ATOM     21  H   UNL     1      47.514   5.904  15.750  0.00  0.00    +0.000 HD
BRANCH  19  22
ATOM     22  C   UNL     1      48.137   5.980  18.224  0.00  0.00    +0.000 A 
ATOM     23  C   UNL     1      47.439   6.315  19.374  0.00  0.00    +0.000 A 
ATOM     24  S   UNL     1      48.014   7.740  20.120  0.00  0.00    +0.000 S 
ATOM     25  C   UNL     1      49.191   7.966  18.911  0.00  0.00    +0.000 A 
ATOM     26  N   UNL     1      50.050   9.021  18.948  0.00  0.00    +0.000 NA
ATOM     27  C   UNL     1      50.890   9.059  17.968  0.00  0.00    +0.000 A 
ATOM     28  N   UNL     1      50.944   8.147  16.946  0.00  0.00    +0.000 N 
ATOM     29  C   UNL     1      50.078   7.085  16.848  0.00  0.00    +0.000 A 
ATOM     30  O   UNL     1      50.142   6.308  15.904  0.00  0.00    +0.000 OA
ATOM     31  C   UNL     1      49.141   6.974  17.950  0.00  0.00    +0.000 A 
ATOM     32  H   UNL     1      51.622   8.228  16.204  0.00  0.00    +0.000 HD
ENDBRANCH  19  22
ENDBRANCH   1  20
TORSDOF 7
ENDMDL
MODEL 6
REMARK VINA RESULT:    -7.182      2.823      8.204
REMARK INTER + INTRA:         -11.198
REMARK INTER:                  -9.783
REMARK INTRA:                  -1.415
REMARK UNBOUND:                -1.077
REMARK  Name = 
REMARK  7 active torsions:
REMARK  status: ('A' for Active; 'I' for Inactive)
REMARK    1  A    between atoms: C_2  and  C_20
REMARK    2  A    between atoms: N_3  and  C_4
REMARK    3  A    between atoms: C_4  and  C_5
REMARK    4  A    between atoms: C_8  and  C_9
REMARK    5  A    between atoms: C_9  and  N_10
REMARK    6  A    between atoms: N_10  and  C_11
REMARK    7  A    between atoms: C_11  and  C_12
REMARK                            x       y       z     vdW  Elec       q    Type
REMARK                         _______ _______ _______ _____ _____    ______ ____
ROOT
ATOM      1  C   UNL     1      47.994   7.749  11.880  0.00  0.00    +0.000 C 
ENDROOT
BRANCH   1   2
ATOM      2  C   UNL     1      48.452   7.924  13.307  0.00  0.00    +0.000 A 
ATOM      3  C   UNL     1      47.919   8.949  14.083  0.00  0.00    +0.000 A 
ATOM      4  C   UNL     1      48.360   9.099  15.395  0.00  0.00    +0.000 A 
ATOM      5  C   UNL     1      49.324   8.228  15.907  0.00  0.00    +0.000 A 
ATOM      6  C   UNL     1      49.816   7.251  15.048  0.00  0.00    +0.000 A 
ATOM      7  N   UNL     1      49.411   7.082  13.768  0.00  0.00    +0.000 NA
BRANCH   5   8
ATOM      8  C   UNL     1      49.825   8.343  17.324  0.00  0.00    +0.000 C 
BRANCH   8   9
ATOM      9  N   UNL     1      49.948   7.026  17.942  0.00  0.00    +0.000 NA
ATOM     10  H   UNL     1      50.600   7.084  18.725  0.00  0.00    +0.000 HD
BRANCH   9  11
ATOM     11  C   UNL     1      48.665   6.520  18.429  0.00  0.00    +0.000 C 
BRANCH  11  12
ATOM     12  C   UNL     1      48.413   5.134  17.899  0.00  0.00    +0.000 A 
ATOM     13  C   UNL     1      49.466   4.270  17.579  0.00  0.00    +0.000 A 
ATOM     14  C   UNL     1      49.194   2.977  17.142  0.00  0.00    +0.000 A 
ATOM     15  C   UNL     1      47.871   2.591  17.023  0.00  0.00    +0.000 A 
ATOM     16  N   UNL     1      46.825   3.400  17.295  0.00  0.00    +0.000 NA
ATOM     17  C   UNL     1      47.120   4.650  17.724  0.00  0.00    +0.000 A 
ENDBRANCH  11  12
ENDBRANCH   9  11
ENDBRANCH   8   9
ENDBRANCH   5   8
ENDBRANCH   1   2
BRANCH   1  20
ATOM     18  O   UNL     1      45.173   7.676  11.860  0.00  0.00    +0.000 OA
ATOM     19  C   UNL     1      45.799   6.626  11.767  0.00  0.00    +0.000 C 
ATOM     20  N   UNL     1      47.167   6.579  11.728  0.00  0.00    +0.000 N 
ATOM     21  H   UNL     1      47.654   5.696  11.686  0.00  0.00    +0.000 HD
BRANCH  19  22
ATOM     22  C   UNL     1      45.128   5.334  11.649  0.00  0.00    +0.000 A 
ATOM     23  C   UNL     1      44.486   4.765  12.738  0.00  0.00    +0.000 A 
ATOM     24  S   UNL     1      43.738   3.273  12.374  0.00  0.00    +0.000 S 
ATOM     25  C   UNL     1      44.277   3.330  10.761  0.00  0.00    +0.000 A 
ATOM     26  N   UNL     1      43.972   2.341   9.877  0.00  0.00    +0.000 NA
ATOM     27  C   UNL     1      44.444   2.524   8.689  0.00  0.00    +0.000 A 
ATOM     28  N   UNL     1      45.203   3.598   8.303  0.00  0.00    +0.000 N 
ATOM     29  C   UNL     1      45.564   4.604   9.166  0.00  0.00    +0.000 A 
ATOM     30  O   UNL     1      46.266   5.533   8.789  0.00  0.00    +0.000 OA
ATOM     31  C   UNL     1      45.021   4.466  10.505  0.00  0.00    +0.000 A 
ATOM     32  H   UNL     1      45.547   3.688   7.359  0.00  0.00    +0.000 HD
ENDBRANCH  19  22
ENDBRANCH   1  20
TORSDOF 7
ENDMDL
MODEL 7
REMARK VINA RESULT:    -6.967      3.283      4.585
REMARK INTER + INTRA:         -10.896
REMARK INTER:                  -9.716
REMARK INTRA:                  -1.180
REMARK UNBOUND:                -1.077
REMARK  Name = 
REMARK  7 active torsions:
REMARK  status: ('A' for Active; 'I' for Inactive)
REMARK    1  A    between atoms: C_2  and  C_20
REMARK    2  A    between atoms: N_3  and  C_4
REMARK    3  A    between atoms: C_4  and  C_5
REMARK    4  A    between atoms: C_8  and  C_9
REMARK    5  A    between atoms: C_9  and  N_10
REMARK    6  A    between atoms: N_10  and  C_11
REMARK    7  A    between atoms: C_11  and  C_12
REMARK                            x       y       z     vdW  Elec       q    Type
REMARK                         _______ _______ _______ _____ _____    ______ ____
ROOT
ATOM      1  C   UNL     1      46.226   8.610  13.121  0.00  0.00    +0.000 C 
ENDROOT
BRANCH   1   2
ATOM      2  C   UNL     1      45.878   7.237  12.603  0.00  0.00    +0.000 A 
ATOM      3  C   UNL     1      45.131   7.107  11.437  0.00  0.00    +0.000 A 
ATOM      4  C   UNL     1      44.814   5.831  10.979  0.00  0.00    +0.000 A 
ATOM      5  C   UNL     1      45.243   4.710  11.693  0.00  0.00    +0.000 A 
ATOM      6  C   UNL     1      45.963   4.940  12.861  0.00  0.00    +0.000 A 
ATOM      7  N   UNL     1      46.284   6.167  13.334  0.00  0.00    +0.000 NA
BRANCH   5   8
ATOM      8  C   UNL     1      44.934   3.309  11.233  0.00  0.00    +0.000 C 
BRANCH   8   9
ATOM      9  N   UNL     1      44.281   3.321   9.928  0.00  0.00    +0.000 NA
ATOM     10  H   UNL     1      44.673   4.075   9.364  0.00  0.00    +0.000 HD
BRANCH   9  11
ATOM     11  C   UNL     1      44.449   2.057   9.211  0.00  0.00    +0.000 C 
BRANCH  11  12
ATOM     12  C   UNL     1      45.633   2.133   8.285  0.00  0.00    +0.000 A 
ATOM     13  C   UNL     1      46.048   3.347   7.726  0.00  0.00    +0.000 A 
ATOM     14  C   UNL     1      47.179   3.388   6.916  0.00  0.00    +0.000 A 
ATOM     15  C   UNL     1      47.855   2.204   6.676  0.00  0.00    +0.000 A 
ATOM     16  N   UNL     1      47.473   1.008   7.172  0.00  0.00    +0.000 NA
ATOM     17  C   UNL     1      46.374   1.000   7.961  0.00  0.00    +0.000 A 
ENDBRANCH  11  12
ENDBRANCH   9  11
ENDBRANCH   8   9
ENDBRANCH   5   8
ENDBRANCH   1   2
BRANCH   1  20
ATOM     18  O   UNL     1      48.289   9.515  14.821  0.00  0.00    +0.000 OA
ATOM     19  C   UNL     1      48.487   9.470  13.612  0.00  0.00    +0.000 C 
ATOM     20  N   UNL     1      47.553   9.006  12.725  0.00  0.00    +0.000 N 
ATOM     21  H   UNL     1      47.734   9.013  11.731  0.00  0.00    +0.000 HD
BRANCH  19  22
ATOM     22  C   UNL     1      49.761   9.875  13.022  0.00  0.00    +0.000 A 
ATOM     23  C   UNL     1      50.269  11.147  13.234  0.00  0.00    +0.000 A 
ATOM     24  S   UNL     1      51.783  11.400  12.485  0.00  0.00    +0.000 S 
ATOM     25  C   UNL     1      51.787   9.829  11.830  0.00  0.00    +0.000 A 
ATOM     26  N   UNL     1      52.823   9.381  11.070  0.00  0.00    +0.000 NA
ATOM     27  C   UNL     1      52.689   8.168  10.648  0.00  0.00    +0.000 A 
ATOM     28  N   UNL     1      51.609   7.363  10.905  0.00  0.00    +0.000 N 
ATOM     29  C   UNL     1      50.526   7.781  11.639  0.00  0.00    +0.000 A 
ATOM     30  O   UNL     1      49.569   7.039  11.823  0.00  0.00    +0.000 OA
ATOM     31  C   UNL     1      50.649   9.124  12.173  0.00  0.00    +0.000 A 
ATOM     32  H   UNL     1      51.558   6.421  10.547  0.00  0.00    +0.000 HD
ENDBRANCH  19  22
ENDBRANCH   1  20
TORSDOF 7
ENDMDL
MODEL 8
REMARK VINA RESULT:    -6.943      1.666      2.055
REMARK INTER + INTRA:         -10.861
REMARK INTER:                  -9.577
REMARK INTRA:                  -1.284
REMARK UNBOUND:                -1.077
REMARK  Name = 
REMARK  7 active torsions:
REMARK  status: ('A' for Active; 'I' for Inactive)
REMARK    1  A    between atoms: C_2  and  C_20
REMARK    2  A    between atoms: N_3  and  C_4
REMARK    3  A    between atoms: C_4  and  C_5
REMARK    4  A    between atoms: C_8  and  C_9
REMARK    5  A    between atoms: C_9  and  N_10
REMARK    6  A    between atoms: N_10  and  C_11
REMARK    7  A    between atoms: C_11  and  C_12
REMARK                            x       y       z     vdW  Elec       q    Type
REMARK                         _______ _______ _______ _____ _____    ______ ____
ROOT
ATOM      1  C   UNL     1      48.455   8.649  12.496  0.00  0.00    +0.000 C 
ENDROOT
BRANCH   1   2
ATOM      2  C   UNL     1      47.187   7.901  12.168  0.00  0.00    +0.000 A 
ATOM      3  C   UNL     1      47.237   6.534  11.917  0.00  0.00    +0.000 A 
ATOM      4  C   UNL     1      46.057   5.862  11.608  0.00  0.00    +0.000 A 
ATOM      5  C   UNL     1      44.852   6.566  11.552  0.00  0.00    +0.000 A 
ATOM      6  C   UNL     1      44.906   7.935  11.792  0.00  0.00    +0.000 A 
ATOM      7  N   UNL     1      46.036   8.616  12.091  0.00  0.00    +0.000 NA
BRANCH   5   8
ATOM      8  C   UNL     1      43.548   5.882  11.232  0.00  0.00    +0.000 C 
BRANCH   8   9
ATOM      9  N   UNL     1      43.625   5.183   9.953  0.00  0.00    +0.000 NA
ATOM     10  H   UNL     1      44.418   5.544   9.422  0.00  0.00    +0.000 HD
BRANCH   9  11
ATOM     11  C   UNL     1      43.783   3.739  10.118  0.00  0.00    +0.000 C 
BRANCH  11  12
ATOM     12  C   UNL     1      44.800   3.208   9.144  0.00  0.00    +0.000 A 
ATOM     13  C   UNL     1      45.432   4.044   8.217  0.00  0.00    +0.000 A 
ATOM     14  C   UNL     1      46.407   3.529   7.367  0.00  0.00    +0.000 A 
ATOM     15  C   UNL     1      46.710   2.182   7.461  0.00  0.00    +0.000 A 
ATOM     16  N   UNL     1      46.106   1.334   8.321  0.00  0.00    +0.000 NA
ATOM     17  C   UNL     1      45.168   1.865   9.139  0.00  0.00    +0.000 A 
ENDBRANCH  11  12
ENDBRANCH   9  11
ENDBRANCH   8   9
ENDBRANCH   5   8
ENDBRANCH   1   2
BRANCH   1  20
ATOM     18  O   UNL     1      47.965   9.431  15.164  0.00  0.00    +0.000 OA
ATOM     19  C   UNL     1      48.822   8.584  14.937  0.00  0.00    +0.000 C 
ATOM     20  N   UNL     1      49.092   8.122  13.676  0.00  0.00    +0.000 N 
ATOM     21  H   UNL     1      49.828   7.449  13.517  0.00  0.00    +0.000 HD
BRANCH  19  22
ATOM     22  C   UNL     1      49.602   7.967  16.007  0.00  0.00    +0.000 A 
ATOM     23  C   UNL     1      50.592   8.680  16.665  0.00  0.00    +0.000 A 
ATOM     24  S   UNL     1      51.357   7.785  17.902  0.00  0.00    +0.000 S 
ATOM     25  C   UNL     1      50.408   6.410  17.573  0.00  0.00    +0.000 A 
ATOM     26  N   UNL     1      50.551   5.263  18.291  0.00  0.00    +0.000 NA
ATOM     27  C   UNL     1      49.760   4.307  17.932  0.00  0.00    +0.000 A 
ATOM     28  N   UNL     1      48.848   4.387  16.912  0.00  0.00    +0.000 N 
ATOM     29  C   UNL     1      48.690   5.511  16.138  0.00  0.00    +0.000 A 
ATOM     30  O   UNL     1      47.882   5.531  15.218  0.00  0.00    +0.000 OA
ATOM     31  C   UNL     1      49.527   6.629  16.531  0.00  0.00    +0.000 A 
ATOM     32  H   UNL     1      48.255   3.606  16.674  0.00  0.00    +0.000 HD
ENDBRANCH  19  22
ENDBRANCH   1  20
TORSDOF 7
ENDMDL
MODEL 9
REMARK VINA RESULT:    -6.938      2.384      3.905
REMARK INTER + INTRA:         -10.854
REMARK INTER:                  -9.859
REMARK INTRA:                  -0.995
REMARK UNBOUND:                -1.077
REMARK  Name = 
REMARK  7 active torsions:
REMARK  status: ('A' for Active; 'I' for Inactive)
REMARK    1  A    between atoms: C_2  and  C_20
REMARK    2  A    between atoms: N_3  and  C_4
REMARK    3  A    between atoms: C_4  and  C_5
REMARK    4  A    between atoms: C_8  and  C_9
REMARK    5  A    between atoms: C_9  and  N_10
REMARK    6  A    between atoms: N_10  and  C_11
REMARK    7  A    between atoms: C_11  and  C_12
REMARK                            x       y       z     vdW  Elec       q    Type
REMARK                         _______ _______ _______ _____ _____    ______ ____
ROOT
ATOM      1  C   UNL     1      47.529   4.727  15.266  0.00  0.00    +0.000 C 
ENDROOT
BRANCH   1   2
ATOM      2  C   UNL     1      46.663   4.611  14.037  0.00  0.00    +0.000 A 
ATOM      3  C   UNL     1      46.206   5.761  13.402  0.00  0.00    +0.000 A 
ATOM      4  C   UNL     1      45.401   5.633  12.273  0.00  0.00    +0.000 A 
ATOM      5  C   UNL     1      45.063   4.362  11.802  0.00  0.00    +0.000 A 
ATOM      6  C   UNL     1      45.547   3.272  12.518  0.00  0.00    +0.000 A 
ATOM      7  N   UNL     1      46.327   3.364  13.619  0.00  0.00    +0.000 NA
BRANCH   5   8
ATOM      8  C   UNL     1      44.204   4.172  10.579  0.00  0.00    +0.000 C 
BRANCH   8   9
ATOM      9  N   UNL     1      44.834   4.763   9.402  0.00  0.00    +0.000 NA
ATOM     10  H   UNL     1      45.846   4.770   9.532  0.00  0.00    +0.000 HD
BRANCH   9  11
ATOM     11  C   UNL     1      44.517   4.030   8.176  0.00  0.00    +0.000 C 
BRANCH  11  12
ATOM     12  C   UNL     1      45.644   3.098   7.818  0.00  0.00    +0.000 A 
ATOM     13  C   UNL     1      45.678   1.778   8.281  0.00  0.00    +0.000 A 
ATOM     14  C   UNL     1      46.708   0.930   7.886  0.00  0.00    +0.000 A 
ATOM     15  C   UNL     1      47.686   1.434   7.048  0.00  0.00    +0.000 A 
ATOM     16  N   UNL     1      47.707   2.708   6.599  0.00  0.00    +0.000 NA
ATOM     17  C   UNL     1      46.689   3.508   6.994  0.00  0.00    +0.000 A 
ENDBRANCH  11  12
ENDBRANCH   9  11
ENDBRANCH   8   9
ENDBRANCH   5   8
ENDBRANCH   1   2
BRANCH   1  20
ATOM     18  O   UNL     1      49.330   5.630  17.244  0.00  0.00    +0.000 OA
ATOM     19  C   UNL     1      48.778   6.450  16.518  0.00  0.00    +0.000 C 
ATOM     20  N   UNL     1      47.924   6.091  15.510  0.00  0.00    +0.000 N 
ATOM     21  H   UNL     1      47.458   6.792  14.951  0.00  0.00    +0.000 HD
BRANCH  19  22
ATOM     22  C   UNL     1      49.022   7.884  16.648  0.00  0.00    +0.000 A 
ATOM     23  C   UNL     1      48.717   8.553  17.823  0.00  0.00    +0.000 A 
ATOM     24  S   UNL     1      49.113  10.214  17.775  0.00  0.00    +0.000 S 
ATOM     25  C   UNL     1      49.673  10.093  16.172  0.00  0.00    +0.000 A 
ATOM     26  N   UNL     1      50.169  11.175  15.512  0.00  0.00    +0.000 NA
ATOM     27  C   UNL     1      50.561  10.930  14.306  0.00  0.00    +0.000 A 
ATOM     28  N   UNL     1      50.491   9.706  13.692  0.00  0.00    +0.000 N 
ATOM     29  C   UNL     1      49.968   8.593  14.305  0.00  0.00    +0.000 A 
ATOM     30  O   UNL     1      49.899   7.524  13.713  0.00  0.00    +0.000 OA
ATOM     31  C   UNL     1      49.554   8.807  15.679  0.00  0.00    +0.000 A 
ATOM     32  H   UNL     1      50.812   9.572  12.745  0.00  0.00    +0.000 HD
ENDBRANCH  19  22
ENDBRANCH   1  20
TORSDOF 7
ENDMDL
