MODEL 1
REMARK VINA RESULT:    -8.475      0.000      0.000
REMARK INTER + INTRA:         -11.530
REMARK INTER:                 -10.952
REMARK INTRA:                  -0.577
REMARK UNBOUND:                -0.577
REMARK  Name = 
REMARK  5 active torsions:
REMARK  status: ('A' for Active; 'I' for Inactive)
REMARK    1  A    between atoms: C_2  and  C_4
REMARK    2  A    between atoms: C_7  and  N_8
REMARK    3  A    between atoms: N_8  and  C_9
REMARK    4  A    between atoms: C_9  and  C_10
REMARK    5  A    between atoms: C_14  and  C_15
REMARK                            x       y       z     vdW  Elec       q    Type
REMARK                         _______ _______ _______ _____ _____    ______ ____
ROOT
ATOM      1  N   UNL     1      43.747   4.844   9.680  0.00  0.00    +0.000 N 
ATOM      2  H   UNL     1      44.046   5.811   9.597  0.00  0.00    +0.000 HD
ENDROOT
BRANCH   1   6
ATOM      3  C   UNL     1      46.328   2.243   7.829  0.00  0.00    +0.000 A 
ATOM      4  C   UNL     1      46.367   3.596   7.546  0.00  0.00    +0.000 A 
ATOM      5  N   UNL     1      45.503   4.487   8.103  0.00  0.00    +0.000 NA
ATOM      6  C   UNL     1      44.590   3.989   8.964  0.00  0.00    +0.000 A 
ATOM      7  C   UNL     1      44.563   2.611   9.227  0.00  0.00    +0.000 A 
ATOM      8  N   UNL     1      45.409   1.702   8.674  0.00  0.00    +0.000 NA
BRANCH   3  10
ATOM      9  N   UNL     1      48.401   1.937   6.615  0.00  0.00    +0.000 N 
ATOM     10  C   UNL     1      47.335   1.329   7.223  0.00  0.00    +0.000 C 
ATOM     11  O   UNL     1      47.218   0.112   7.257  0.00  0.00    +0.000 OA
ATOM     12  H   UNL     1      49.111   1.370   6.174  0.00  0.00    +0.000 HD
ATOM     13  H   UNL     1      48.469   2.948   6.598  0.00  0.00    +0.000 HD
ENDBRANCH   3  10
ENDBRANCH   1   6
BRANCH   1  14
ATOM     14  C   UNL     1      43.469   4.471  11.062  0.00  0.00    +0.000 C 
BRANCH  14  15
ATOM     15  C   UNL     1      44.665   4.830  11.906  0.00  0.00    +0.000 A 
ATOM     16  C   UNL     1      45.104   4.019  12.940  0.00  0.00    +0.000 A 
ATOM     17  N   UNL     1      46.157   4.320  13.733  0.00  0.00    +0.000 NA
ATOM     18  C   UNL     1      46.796   5.493  13.485  0.00  0.00    +0.000 A 
ATOM     19  C   UNL     1      46.449   6.406  12.487  0.00  0.00    +0.000 A 
ATOM     20  C   UNL     1      45.353   6.035  11.694  0.00  0.00    +0.000 A 
BRANCH  19  21
ATOM     21  C   UNL     1      47.169   7.679  12.282  0.00  0.00    +0.000 A 
ATOM     22  C   UNL     1      48.514   7.722  11.878  0.00  0.00    +0.000 A 
ATOM     23  C   UNL     1      49.158   8.942  11.664  0.00  0.00    +0.000 A 
ATOM     24  C   UNL     1      48.443  10.106  11.873  0.00  0.00    +0.000 A 
ATOM     25  N   UNL     1      47.158  10.127  12.270  0.00  0.00    +0.000 NA
ATOM     26  C   UNL     1      46.557   8.923  12.458  0.00  0.00    +0.000 A 
ENDBRANCH  19  21
ENDBRANCH  14  15
ENDBRANCH   1  14
TORSDOF 5
ENDMDL
MODEL 2
REMARK VINA RESULT:    -8.191      2.053      3.472
REMARK INTER + INTRA:         -11.162
REMARK INTER:                 -10.606
REMARK INTRA:                  -0.556
REMARK UNBOUND:                -0.577
REMARK  Name = 
REMARK  5 active torsions:
REMARK  status: ('A' for Active; 'I' for Inactive)
REMARK    1  A    between atoms: C_2  and  C_4
REMARK    2  A    between atoms: C_7  and  N_8
REMARK    3  A    between atoms: N_8  and  C_9
REMARK    4  A    between atoms: C_9  and  C_10
REMARK    5  A    between atoms: C_14  and  C_15
REMARK                            x       y       z     vdW  Elec       q    Type
REMARK                         _______ _______ _______ _____ _____    ______ ____
ROOT
ATOM      1  N   UNL     1      44.085   5.043   9.858  0.00  0.00    +0.000 N 
ATOM      2  H   UNL     1      44.379   5.977   9.590  0.00  0.00    +0.000 HD
ENDROOT
BRANCH   1   6
ATOM      3  C   UNL     1      46.231   2.101   7.960  0.00  0.00    +0.000 A 
ATOM      4  C   UNL     1      46.308   3.416   7.537  0.00  0.00    +0.000 A 
ATOM      5  N   UNL     1      45.583   4.414   8.109  0.00  0.00    +0.000 NA
ATOM      6  C   UNL     1      44.770   4.066   9.128  0.00  0.00    +0.000 A 
ATOM      7  C   UNL     1      44.699   2.724   9.533  0.00  0.00    +0.000 A 
ATOM      8  N   UNL     1      45.406   1.709   8.969  0.00  0.00    +0.000 NA
BRANCH   3  10
ATOM      9  N   UNL     1      46.782  -0.233   7.631  0.00  0.00    +0.000 N 
ATOM     10  C   UNL     1      47.089   1.065   7.323  0.00  0.00    +0.000 C 
ATOM     11  O   UNL     1      48.015   1.352   6.577  0.00  0.00    +0.000 OA
ATOM     12  H   UNL     1      47.338  -0.981   7.240  0.00  0.00    +0.000 HD
ATOM     13  H   UNL     1      46.012  -0.440   8.257  0.00  0.00    +0.000 HD
ENDBRANCH   3  10
ENDBRANCH   1   6
BRANCH   1  14
ATOM     14  C   UNL     1      44.057   4.869  11.305  0.00  0.00    +0.000 C 
BRANCH  14  15
ATOM     15  C   UNL     1      45.302   5.488  11.887  0.00  0.00    +0.000 A 
ATOM     16  C   UNL     1      46.022   6.462  11.214  0.00  0.00    +0.000 A 
ATOM     17  N   UNL     1      47.155   7.021  11.694  0.00  0.00    +0.000 NA
ATOM     18  C   UNL     1      47.594   6.580  12.902  0.00  0.00    +0.000 A 
ATOM     19  C   UNL     1      46.973   5.597  13.676  0.00  0.00    +0.000 A 
ATOM     20  C   UNL     1      45.799   5.059  13.128  0.00  0.00    +0.000 A 
BRANCH  19  21
ATOM     21  C   UNL     1      47.513   5.141  14.972  0.00  0.00    +0.000 A 
ATOM     22  C   UNL     1      47.161   3.904  15.538  0.00  0.00    +0.000 A 
ATOM     23  C   UNL     1      47.712   3.489  16.750  0.00  0.00    +0.000 A 
ATOM     24  C   UNL     1      48.603   4.330  17.388  0.00  0.00    +0.000 A 
ATOM     25  N   UNL     1      48.970   5.531  16.901  0.00  0.00    +0.000 NA
ATOM     26  C   UNL     1      48.424   5.899  15.713  0.00  0.00    +0.000 A 
ENDBRANCH  19  21
ENDBRANCH  14  15
ENDBRANCH   1  14
TORSDOF 5
ENDMDL
MODEL 3
REMARK VINA RESULT:    -8.123      2.871      6.774
REMARK INTER + INTRA:         -11.075
REMARK INTER:                 -10.407
REMARK INTRA:                  -0.668
REMARK UNBOUND:                -0.577
REMARK  Name = 
REMARK  5 active torsions:
REMARK  status: ('A' for Active; 'I' for Inactive)
REMARK    1  A    between atoms: C_2  and  C_4
REMARK    2  A    between atoms: C_7  and  N_8
REMARK    3  A    between atoms: N_8  and  C_9
REMARK    4  A    between atoms: C_9  and  C_10
REMARK    5  A    between atoms: C_14  and  C_15
REMARK                            x       y       z     vdW  Elec       q    Type
REMARK                         _______ _______ _______ _____ _____    ______ ____
ROOT
ATOM      1  N   UNL     1      44.060   6.269  12.610  0.00  0.00    +0.000 N 
ATOM      2  H   UNL     1      43.672   5.512  13.166  0.00  0.00    +0.000 HD
ENDROOT
BRANCH   1   6
ATOM      3  C   UNL     1      47.992   6.749  13.691  0.00  0.00    +0.000 A 
ATOM      4  C   UNL     1      47.284   7.791  13.120  0.00  0.00    +0.000 A 
ATOM      5  N   UNL     1      45.995   7.663  12.707  0.00  0.00    +0.000 NA
ATOM      6  C   UNL     1      45.418   6.456  12.885  0.00  0.00    +0.000 A 
ATOM      7  C   UNL     1      46.158   5.410  13.457  0.00  0.00    +0.000 A 
ATOM      8  N   UNL     1      47.451   5.512  13.865  0.00  0.00    +0.000 NA
BRANCH   3  10
ATOM      9  N   UNL     1      50.218   7.613  13.290  0.00  0.00    +0.000 N 
ATOM     10  C   UNL     1      49.385   6.970  14.166  0.00  0.00    +0.000 C 
ATOM     11  O   UNL     1      49.767   6.596  15.266  0.00  0.00    +0.000 OA
ATOM     12  H   UNL     1      51.179   7.780  13.550  0.00  0.00    +0.000 HD
ATOM     13  H   UNL     1      49.873   7.906  12.382  0.00  0.00    +0.000 HD
ENDBRANCH   3  10
ENDBRANCH   1   6
BRANCH   1  14
ATOM     14  C   UNL     1      43.692   6.163  11.204  0.00  0.00    +0.000 C 
BRANCH  14  15
ATOM     15  C   UNL     1      43.845   4.727  10.774  0.00  0.00    +0.000 A 
ATOM     16  C   UNL     1      43.210   3.689  11.437  0.00  0.00    +0.000 A 
ATOM     17  N   UNL     1      43.344   2.388  11.095  0.00  0.00    +0.000 NA
ATOM     18  C   UNL     1      44.159   2.110  10.045  0.00  0.00    +0.000 A 
ATOM     19  C   UNL     1      44.868   3.057   9.301  0.00  0.00    +0.000 A 
ATOM     20  C   UNL     1      44.683   4.389   9.700  0.00  0.00    +0.000 A 
BRANCH  19  21
ATOM     21  C   UNL     1      45.759   2.690   8.183  0.00  0.00    +0.000 A 
ATOM     22  C   UNL     1      46.092   3.595   7.162  0.00  0.00    +0.000 A 
ATOM     23  C   UNL     1      46.962   3.227   6.134  0.00  0.00    +0.000 A 
ATOM     24  C   UNL     1      47.477   1.945   6.139  0.00  0.00    +0.000 A 
ATOM     25  N   UNL     1      47.186   1.031   7.083  0.00  0.00    +0.000 NA
ATOM     26  C   UNL     1      46.346   1.426   8.075  0.00  0.00    +0.000 A 
ENDBRANCH  19  21
ENDBRANCH  14  15
ENDBRANCH   1  14
TORSDOF 5
ENDMDL
MODEL 4
REMARK VINA RESULT:    -7.914      2.990      7.151
REMARK INTER + INTRA:         -10.805
REMARK INTER:                 -10.439
REMARK INTRA:                  -0.366
REMARK UNBOUND:                -0.577
REMARK  Name = 
REMARK  5 active torsions:
REMARK  status: ('A' for Active; 'I' for Inactive)
REMARK    1  A    between atoms: C_2  and  C_4
REMARK    2  A    between atoms: C_7  and  N_8
REMARK    3  A    between atoms: N_8  and  C_9
REMARK    4  A    between atoms: C_9  and  C_10
REMARK    5  A    between atoms: C_14  and  C_15
REMARK                            x       y       z     vdW  Elec       q    Type
REMARK                         _______ _______ _______ _____ _____    ______ ____
ROOT
ATOM      1  N   UNL     1      47.367   6.469  12.309  0.00  0.00    +0.000 N 
ATOM      2  H   UNL     1      48.145   7.108  12.175  0.00  0.00    +0.000 HD
ENDROOT
BRANCH   1   6
ATOM      3  C   UNL     1      47.401   4.495  15.909  0.00  0.00    +0.000 A 
ATOM      4  C   UNL     1      48.181   5.621  15.713  0.00  0.00    +0.000 A 
ATOM      5  N   UNL     1      48.233   6.280  14.525  0.00  0.00    +0.000 NA
ATOM      6  C   UNL     1      47.476   5.785  13.523  0.00  0.00    +0.000 A 
ATOM      7  C   UNL     1      46.701   4.636  13.741  0.00  0.00    +0.000 A 
ATOM      8  N   UNL     1      46.642   3.956  14.917  0.00  0.00    +0.000 NA
BRANCH   3  10
ATOM      9  N   UNL     1      48.222   4.348  18.182  0.00  0.00    +0.000 N 
ATOM     10  C   UNL     1      47.352   3.850  17.249  0.00  0.00    +0.000 C 
ATOM     11  O   UNL     1      46.587   2.930  17.504  0.00  0.00    +0.000 OA
ATOM     12  H   UNL     1      48.245   3.942  19.107  0.00  0.00    +0.000 HD
ATOM     13  H   UNL     1      48.848   5.108  17.940  0.00  0.00    +0.000 HD
ENDBRANCH   3  10
ENDBRANCH   1   6
BRANCH   1  14
ATOM     14  C   UNL     1      46.083   7.101  12.034  0.00  0.00    +0.000 C 
BRANCH  14  15
ATOM     15  C   UNL     1      45.242   6.148  11.225  0.00  0.00    +0.000 A 
ATOM     16  C   UNL     1      43.865   6.083  11.364  0.00  0.00    +0.000 A 
ATOM     17  N   UNL     1      43.082   5.225  10.673  0.00  0.00    +0.000 NA
ATOM     18  C   UNL     1      43.707   4.385   9.807  0.00  0.00    +0.000 A 
ATOM     19  C   UNL     1      45.084   4.336   9.582  0.00  0.00    +0.000 A 
ATOM     20  C   UNL     1      45.842   5.254  10.324  0.00  0.00    +0.000 A 
BRANCH  19  21
ATOM     21  C   UNL     1      45.708   3.382   8.645  0.00  0.00    +0.000 A 
ATOM     22  C   UNL     1      46.359   3.800   7.472  0.00  0.00    +0.000 A 
ATOM     23  C   UNL     1      46.965   2.875   6.621  0.00  0.00    +0.000 A 
ATOM     24  C   UNL     1      46.897   1.535   6.953  0.00  0.00    +0.000 A 
ATOM     25  N   UNL     1      46.279   1.074   8.057  0.00  0.00    +0.000 NA
ATOM     26  C   UNL     1      45.710   2.002   8.870  0.00  0.00    +0.000 A 
ENDBRANCH  19  21
ENDBRANCH  14  15
ENDBRANCH   1  14
TORSDOF 5
ENDMDL
MODEL 5
REMARK VINA RESULT:    -7.811      1.724      2.452
REMARK INTER + INTRA:         -10.671
REMARK INTER:                 -10.084
REMARK INTRA:                  -0.588
REMARK UNBOUND:                -0.577
REMARK  Name = 
REMARK  5 active torsions:
REMARK  status: ('A' for Active; 'I' for Inactive)
REMARK    1  A    between atoms: C_2  and  C_4
REMARK    2  A    between atoms: C_7  and  N_8
REMARK    3  A    between atoms: N_8  and  C_9
REMARK    4  A    between atoms: C_9  and  C_10
REMARK    5  A    between atoms: C_14  and  C_15
REMARK                            x       y       z     vdW  Elec       q    Type
REMARK                         _______ _______ _______ _____ _____    ______ ____
ROOT
ATOM      1  N   UNL     1      43.982   4.749  10.118  0.00  0.00    +0.000 N 
ATOM      2  H   UNL     1      43.839   5.703   9.799  0.00  0.00    +0.000 HD
ENDROOT
BRANCH   1   6
ATOM      3  C   UNL     1      46.459   2.523   7.717  0.00  0.00    +0.000 A 
ATOM      4  C   UNL     1      46.393   3.898   7.581  0.00  0.00    +0.000 A 
ATOM      5  N   UNL     1      45.555   4.669   8.325  0.00  0.00    +0.000 NA
ATOM      6  C   UNL     1      44.778   4.028   9.223  0.00  0.00    +0.000 A 
ATOM      7  C   UNL     1      44.854   2.632   9.336  0.00  0.00    +0.000 A 
ATOM      8  N   UNL     1      45.675   1.841   8.596  0.00  0.00    +0.000 NA
BRANCH   3  10
ATOM      9  N   UNL     1      48.498   2.450   6.412  0.00  0.00    +0.000 N 
ATOM     10  C   UNL     1      47.434   1.744   6.906  0.00  0.00    +0.000 C 
ATOM     11  O   UNL     1      47.294   0.548   6.687  0.00  0.00    +0.000 OA
ATOM     12  H   UNL     1      49.186   1.979   5.843  0.00  0.00    +0.000 HD
ATOM     13  H   UNL     1      48.584   3.442   6.605  0.00  0.00    +0.000 HD
ENDBRANCH   3  10
ENDBRANCH   1   6
BRANCH   1  14
ATOM     14  C   UNL     1      44.371   4.692  11.522  0.00  0.00    +0.000 C 
BRANCH  14  15
ATOM     15  C   UNL     1      45.058   5.983  11.883  0.00  0.00    +0.000 A 
ATOM     16  C   UNL     1      44.595   7.211  11.440  0.00  0.00    +0.000 A 
ATOM     17  N   UNL     1      45.199   8.387  11.724  0.00  0.00    +0.000 NA
ATOM     18  C   UNL     1      46.325   8.331  12.481  0.00  0.00    +0.000 A 
ATOM     19  C   UNL     1      46.906   7.163  12.979  0.00  0.00    +0.000 A 
ATOM     20  C   UNL     1      46.230   5.976  12.656  0.00  0.00    +0.000 A 
BRANCH  19  21
ATOM     21  C   UNL     1      48.148   7.165  13.777  0.00  0.00    +0.000 A 
ATOM     22  C   UNL     1      49.233   8.003  13.473  0.00  0.00    +0.000 A 
ATOM     23  C   UNL     1      50.382   8.004  14.265  0.00  0.00    +0.000 A 
ATOM     24  C   UNL     1      50.431   7.148  15.348  0.00  0.00    +0.000 A 
ATOM     25  N   UNL     1      49.429   6.314  15.683  0.00  0.00    +0.000 NA
ATOM     26  C   UNL     1      48.320   6.348  14.898  0.00  0.00    +0.000 A 
ENDBRANCH  19  21
ENDBRANCH  14  15
ENDBRANCH   1  14
TORSDOF 5
ENDMDL
MODEL 6
REMARK VINA RESULT:    -7.419      3.356      7.355
REMARK INTER + INTRA:         -10.166
REMARK INTER:                  -9.624
REMARK INTRA:                  -0.541
REMARK UNBOUND:                -0.577
REMARK  Name = 
REMARK  5 active torsions:
REMARK  status: ('A' for Active; 'I' for Inactive)
REMARK    1  A    between atoms: C_2  and  C_4
REMARK    2  A    between atoms: C_7  and  N_8
REMARK    3  A    between atoms: N_8  and  C_9
REMARK    4  A    between atoms: C_9  and  C_10
REMARK    5  A    between atoms: C_14  and  C_15
REMARK                            x       y       z     vdW  Elec       q    Type
REMARK                         _______ _______ _______ _____ _____    ______ ____
ROOT
ATOM      1  N   UNL     1      46.355   6.012  12.169  0.00  0.00    +0.000 N 
ATOM      2  H   UNL     1      46.718   6.891  11.812  0.00  0.00    +0.000 HD
ENDROOT
BRANCH   1   6
ATOM      3  C   UNL     1      48.089   5.168  15.794  0.00  0.00    +0.000 A 
ATOM      4  C   UNL     1      47.033   4.409  15.323  0.00  0.00    +0.000 A 
ATOM      5  N   UNL     1      46.402   4.679  14.149  0.00  0.00    +0.000 NA
ATOM      6  C   UNL     1      46.857   5.737  13.445  0.00  0.00    +0.000 A 
ATOM      7  C   UNL     1      47.922   6.499  13.948  0.00  0.00    +0.000 A 
ATOM      8  N   UNL     1      48.560   6.254  15.123  0.00  0.00    +0.000 NA
BRANCH   3  10
ATOM      9  N   UNL     1      48.897   3.444  17.290  0.00  0.00    +0.000 N 
ATOM     10  C   UNL     1      48.768   4.788  17.063  0.00  0.00    +0.000 C 
ATOM     11  O   UNL     1      49.180   5.621  17.859  0.00  0.00    +0.000 OA
ATOM     12  H   UNL     1      49.338   3.124  18.141  0.00  0.00    +0.000 HD
ATOM     13  H   UNL     1      48.540   2.777  16.615  0.00  0.00    +0.000 HD
ENDBRANCH   3  10
ENDBRANCH   1   6
BRANCH   1  14
ATOM     14  C   UNL     1      44.911   5.905  12.004  0.00  0.00    +0.000 C 
BRANCH  14  15
ATOM     15  C   UNL     1      44.605   4.624  11.272  0.00  0.00    +0.000 A 
ATOM     16  C   UNL     1      43.645   3.732  11.721  0.00  0.00    +0.000 A 
ATOM     17  N   UNL     1      43.360   2.564  11.104  0.00  0.00    +0.000 NA
ATOM     18  C   UNL     1      44.077   2.268   9.989  0.00  0.00    +0.000 A 
ATOM     19  C   UNL     1      45.080   3.069   9.438  0.00  0.00    +0.000 A 
ATOM     20  C   UNL     1      45.325   4.271  10.119  0.00  0.00    +0.000 A 
BRANCH  19  21
ATOM     21  C   UNL     1      45.842   2.682   8.235  0.00  0.00    +0.000 A 
ATOM     22  C   UNL     1      46.111   3.586   7.194  0.00  0.00    +0.000 A 
ATOM     23  C   UNL     1      46.860   3.197   6.083  0.00  0.00    +0.000 A 
ATOM     24  C   UNL     1      47.320   1.895   6.026  0.00  0.00    +0.000 A 
ATOM     25  N   UNL     1      47.086   0.982   6.986  0.00  0.00    +0.000 NA
ATOM     26  C   UNL     1      46.363   1.397   8.059  0.00  0.00    +0.000 A 
ENDBRANCH  19  21
ENDBRANCH  14  15
ENDBRANCH   1  14
TORSDOF 5
ENDMDL
MODEL 7
REMARK VINA RESULT:    -7.180      1.956      3.534
REMARK INTER + INTRA:          -9.856
REMARK INTER:                  -9.482
REMARK INTRA:                  -0.374
REMARK UNBOUND:                -0.577
REMARK  Name = 
REMARK  5 active torsions:
REMARK  status: ('A' for Active; 'I' for Inactive)
REMARK    1  A    between atoms: C_2  and  C_4
REMARK    2  A    between atoms: C_7  and  N_8
REMARK    3  A    between atoms: N_8  and  C_9
REMARK    4  A    between atoms: C_9  and  C_10
REMARK    5  A    between atoms: C_14  and  C_15
REMARK                            x       y       z     vdW  Elec       q    Type
REMARK                         _______ _______ _______ _____ _____    ______ ____
ROOT
ATOM      1  N   UNL     1      44.239   3.192  10.471  0.00  0.00    +0.000 N 
ATOM      2  H   UNL     1      43.545   2.452  10.513  0.00  0.00    +0.000 HD
ENDROOT
BRANCH   1   6
ATOM      3  C   UNL     1      46.740   2.639   7.262  0.00  0.00    +0.000 A 
ATOM      4  C   UNL     1      46.381   1.575   8.069  0.00  0.00    +0.000 A 
ATOM      5  N   UNL     1      45.591   1.720   9.167  0.00  0.00    +0.000 NA
ATOM      6  C   UNL     1      45.157   2.968   9.441  0.00  0.00    +0.000 A 
ATOM      7  C   UNL     1      45.543   4.035   8.615  0.00  0.00    +0.000 A 
ATOM      8  N   UNL     1      46.341   3.914   7.521  0.00  0.00    +0.000 NA
BRANCH   3  10
ATOM      9  N   UNL     1      47.355   3.266   5.006  0.00  0.00    +0.000 N 
ATOM     10  C   UNL     1      47.568   2.404   6.048  0.00  0.00    +0.000 C 
ATOM     11  O   UNL     1      48.383   1.495   5.979  0.00  0.00    +0.000 OA
ATOM     12  H   UNL     1      47.877   3.149   4.149  0.00  0.00    +0.000 HD
ATOM     13  H   UNL     1      46.668   4.007   5.091  0.00  0.00    +0.000 HD
ENDBRANCH   3  10
ENDBRANCH   1   6
BRANCH   1  14
ATOM     14  C   UNL     1      43.634   4.518  10.523  0.00  0.00    +0.000 C 
BRANCH  14  15
ATOM     15  C   UNL     1      44.478   5.397  11.409  0.00  0.00    +0.000 A 
ATOM     16  C   UNL     1      44.556   6.767  11.225  0.00  0.00    +0.000 A 
ATOM     17  N   UNL     1      45.320   7.583  11.984  0.00  0.00    +0.000 NA
ATOM     18  C   UNL     1      46.049   6.999  12.970  0.00  0.00    +0.000 A 
ATOM     19  C   UNL     1      46.074   5.632  13.254  0.00  0.00    +0.000 A 
ATOM     20  C   UNL     1      45.256   4.839  12.436  0.00  0.00    +0.000 A 
BRANCH  19  21
ATOM     21  C   UNL     1      46.908   5.053  14.325  0.00  0.00    +0.000 A 
ATOM     22  C   UNL     1      47.665   5.850  15.200  0.00  0.00    +0.000 A 
ATOM     23  C   UNL     1      48.420   5.274  16.222  0.00  0.00    +0.000 A 
ATOM     24  C   UNL     1      48.415   3.897  16.345  0.00  0.00    +0.000 A 
ATOM     25  N   UNL     1      47.718   3.082  15.531  0.00  0.00    +0.000 NA
ATOM     26  C   UNL     1      46.985   3.676  14.554  0.00  0.00    +0.000 A 
ENDBRANCH  19  21
ENDBRANCH  14  15
ENDBRANCH   1  14
TORSDOF 5
ENDMDL
MODEL 8
REMARK VINA RESULT:    -6.822      2.946      6.925
REMARK INTER + INTRA:          -9.393
REMARK INTER:                  -8.770
REMARK INTRA:                  -0.623
REMARK UNBOUND:                -0.577
REMARK  Name = 
REMARK  5 active torsions:
REMARK  status: ('A' for Active; 'I' for Inactive)
REMARK    1  A    between atoms: C_2  and  C_4
REMARK    2  A    between atoms: C_7  and  N_8
REMARK    3  A    between atoms: N_8  and  C_9
REMARK    4  A    between atoms: C_9  and  C_10
REMARK    5  A    between atoms: C_14  and  C_15
REMARK                            x       y       z     vdW  Elec       q    Type
REMARK                         _______ _______ _______ _____ _____    ______ ____
ROOT
ATOM      1  N   UNL     1      44.532   6.794  12.611  0.00  0.00    +0.000 N 
ATOM      2  H   UNL     1      43.723   7.235  13.040  0.00  0.00    +0.000 HD
ENDROOT
BRANCH   1   6
ATOM      3  C   UNL     1      47.546   9.509  11.974  0.00  0.00    +0.000 A 
ATOM      4  C   UNL     1      47.835   8.184  12.249  0.00  0.00    +0.000 A 
ATOM      5  N   UNL     1      46.870   7.261  12.508  0.00  0.00    +0.000 NA
ATOM      6  C   UNL     1      45.593   7.696  12.484  0.00  0.00    +0.000 A 
ATOM      7  C   UNL     1      45.324   9.046  12.214  0.00  0.00    +0.000 A 
ATOM      8  N   UNL     1      46.272   9.987  11.963  0.00  0.00    +0.000 NA
BRANCH   3  10
ATOM      9  N   UNL     1      48.305  11.513  10.849  0.00  0.00    +0.000 N 
ATOM     10  C   UNL     1      48.647  10.457  11.649  0.00  0.00    +0.000 C 
ATOM     11  O   UNL     1      49.787  10.302  12.065  0.00  0.00    +0.000 OA
ATOM     12  H   UNL     1      49.012  12.184  10.582  0.00  0.00    +0.000 HD
ATOM     13  H   UNL     1      47.353  11.612  10.515  0.00  0.00    +0.000 HD
ENDBRANCH   3  10
ENDBRANCH   1   6
BRANCH   1  14
ATOM     14  C   UNL     1      44.845   5.508  13.220  0.00  0.00    +0.000 C 
BRANCH  14  15
ATOM     15  C   UNL     1      44.473   4.415  12.251  0.00  0.00    +0.000 A 
ATOM     16  C   UNL     1      43.481   3.490  12.533  0.00  0.00    +0.000 A 
ATOM     17  N   UNL     1      43.138   2.483  11.699  0.00  0.00    +0.000 NA
ATOM     18  C   UNL     1      43.824   2.391  10.531  0.00  0.00    +0.000 A 
ATOM     19  C   UNL     1      44.853   3.247  10.130  0.00  0.00    +0.000 A 
ATOM     20  C   UNL     1      45.160   4.275  11.035  0.00  0.00    +0.000 A 
BRANCH  19  21
ATOM     21  C   UNL     1      45.580   3.082   8.857  0.00  0.00    +0.000 A 
ATOM     22  C   UNL     1      46.056   1.833   8.422  0.00  0.00    +0.000 A 
ATOM     23  C   UNL     1      46.714   1.704   7.198  0.00  0.00    +0.000 A 
ATOM     24  C   UNL     1      46.898   2.838   6.430  0.00  0.00    +0.000 A 
ATOM     25  N   UNL     1      46.474   4.062   6.799  0.00  0.00    +0.000 NA
ATOM     26  C   UNL     1      45.827   4.150   7.990  0.00  0.00    +0.000 A 
ENDBRANCH  19  21
ENDBRANCH  14  15
ENDBRANCH   1  14
TORSDOF 5
ENDMDL
MODEL 9
REMARK VINA RESULT:    -6.231      4.249      8.011
REMARK INTER + INTRA:          -8.629
REMARK INTER:                  -8.072
REMARK INTRA:                  -0.557
REMARK UNBOUND:                -0.577
REMARK  Name = 
REMARK  5 active torsions:
REMARK  status: ('A' for Active; 'I' for Inactive)
REMARK    1  A    between atoms: C_2  and  C_4
REMARK    2  A    between atoms: C_7  and  N_8
REMARK    3  A    between atoms: N_8  and  C_9
REMARK    4  A    between atoms: C_9  and  C_10
REMARK    5  A    between atoms: C_14  and  C_15
REMARK                            x       y       z     vdW  Elec       q    Type
REMARK                         _______ _______ _______ _____ _____    ______ ____
ROOT
ATOM      1  N   UNL     1      48.545   6.604  14.206  0.00  0.00    +0.000 N 
ATOM      2  H   UNL     1      49.480   6.558  13.813  0.00  0.00    +0.000 HD
ENDROOT
BRANCH   1   6
ATOM      3  C   UNL     1      48.728   5.008  17.985  0.00  0.00    +0.000 A 
ATOM      4  C   UNL     1      48.094   4.328  16.961  0.00  0.00    +0.000 A 
ATOM      5  N   UNL     1      47.973   4.838  15.706  0.00  0.00    +0.000 NA
ATOM      6  C   UNL     1      48.509   6.058  15.493  0.00  0.00    +0.000 A 
ATOM      7  C   UNL     1      49.138   6.735  16.549  0.00  0.00    +0.000 A 
ATOM      8  N   UNL     1      49.261   6.249  17.813  0.00  0.00    +0.000 NA
BRANCH   3  10
ATOM      9  N   UNL     1      48.347   3.112  19.442  0.00  0.00    +0.000 N 
ATOM     10  C   UNL     1      48.871   4.372  19.323  0.00  0.00    +0.000 C 
ATOM     11  O   UNL     1      49.416   4.937  20.261  0.00  0.00    +0.000 OA
ATOM     12  H   UNL     1      48.400   2.634  20.330  0.00  0.00    +0.000 HD
ATOM     13  H   UNL     1      47.896   2.672  18.648  0.00  0.00    +0.000 HD
ENDBRANCH   3  10
ENDBRANCH   1   6
BRANCH   1  14
ATOM     14  C   UNL     1      47.943   7.922  14.045  0.00  0.00    +0.000 C 
BRANCH  14  15
ATOM     15  C   UNL     1      46.813   7.816  13.054  0.00  0.00    +0.000 A 
ATOM     16  C   UNL     1      45.894   8.837  12.875  0.00  0.00    +0.000 A 
ATOM     17  N   UNL     1      44.855   8.767  12.014  0.00  0.00    +0.000 NA
ATOM     18  C   UNL     1      44.723   7.617  11.303  0.00  0.00    +0.000 A 
ATOM     19  C   UNL     1      45.568   6.509  11.396  0.00  0.00    +0.000 A 
ATOM     20  C   UNL     1      46.630   6.644  12.302  0.00  0.00    +0.000 A 
BRANCH  19  21
ATOM     21  C   UNL     1      45.358   5.276  10.613  0.00  0.00    +0.000 A 
ATOM     22  C   UNL     1      45.650   5.200   9.241  0.00  0.00    +0.000 A 
ATOM     23  C   UNL     1      45.468   4.011   8.534  0.00  0.00    +0.000 A 
ATOM     24  C   UNL     1      44.982   2.911   9.216  0.00  0.00    +0.000 A 
ATOM     25  N   UNL     1      44.674   2.926  10.526  0.00  0.00    +0.000 NA
ATOM     26  C   UNL     1      44.873   4.097  11.186  0.00  0.00    +0.000 A 
ENDBRANCH  19  21
ENDBRANCH  14  15
ENDBRANCH   1  14
TORSDOF 5
ENDMDL
