MODEL 1
REMARK VINA RESULT:    -7.142      0.000      0.000
REMARK INTER + INTRA:          -9.715
REMARK INTER:                  -9.021
REMARK INTRA:                  -0.695
REMARK UNBOUND:                -0.695
REMARK  Name = 
REMARK  8 active torsions:
REMARK  status: ('A' for Active; 'I' for Inactive)
REMARK    1  A    between atoms: C_1  and  C_2
REMARK    2  A    between atoms: C_2  and  C_3
REMARK    3  A    between atoms: C_2  and  C_4
REMARK    4  A    between atoms: C_2  and  C_5
REMARK    5  A    between atoms: C_8  and  C_9
REMARK    6  A    between atoms: C_9  and  N_10
REMARK    7  A    between atoms: C_15  and  C_16
REMARK    8  A    between atoms: C_16  and  O_18
REMARK                            x       y       z     vdW  Elec       q    Type
REMARK                         _______ _______ _______ _____ _____    ______ ____
ROOT
ATOM      1  N   UNL     1      44.669   5.156  12.167  0.00  0.00    +0.000 NA
ATOM      2  C   UNL     1      45.160   3.944  12.803  0.00  0.00    +0.000 C 
ATOM      3  C   UNL     1      46.221   4.281  13.706  0.00  0.00    +0.000 C 
ATOM      4  C   UNL     1      46.549   5.534  13.399  0.00  0.00    +0.000 C 
ATOM      5  C   UNL     1      47.658   6.298  13.905  0.00  0.00    +0.000 C 
ATOM      6  C   UNL     1      48.083   7.369  13.205  0.00  0.00    +0.000 C 
ATOM      7  C   UNL     1      47.371   7.759  11.970  0.00  0.00    +0.000 C 
ATOM      8  C   UNL     1      46.241   7.097  11.605  0.00  0.00    +0.000 C 
ATOM      9  N   UNL     1      45.769   6.033  12.350  0.00  0.00    +0.000 N 
ENDROOT
BRANCH   6  10
ATOM     10  C   UNL     1      49.371   7.935  13.691  0.00  0.00    +0.000 C 
ATOM     11  O   UNL     1      49.652   9.120  13.606  0.00  0.00    +0.000 OA
BRANCH  10  12
ATOM     12  O   UNL     1      50.215   7.040  14.242  0.00  0.00    +0.000 OA
ATOM     13  H   UNL     1      51.138   7.118  13.948  0.00  0.00    +0.000 HD
ENDBRANCH  10  12
ENDBRANCH   6  10
BRANCH   1  14
ATOM     14  C   UNL     1      43.988   4.942  10.906  0.00  0.00    +0.000 C 
BRANCH  14  18
ATOM     15  C   UNL     1      46.188   2.688   7.850  0.00  0.00    +0.000 A 
ATOM     16  C   UNL     1      46.256   4.072   8.029  0.00  0.00    +0.000 A 
ATOM     17  C   UNL     1      45.519   4.729   9.002  0.00  0.00    +0.000 A 
ATOM     18  C   UNL     1      44.645   4.046   9.856  0.00  0.00    +0.000 A 
ATOM     19  C   UNL     1      44.568   2.654   9.722  0.00  0.00    +0.000 A 
ATOM     20  C   UNL     1      45.332   1.992   8.722  0.00  0.00    +0.000 A 
BRANCH  15  22
ATOM     21  C   UNL     1      46.379   2.406   5.297  0.00  0.00    +0.000 C 
ATOM     22  C   UNL     1      46.974   2.047   6.691  0.00  0.00    +0.000 C 
ATOM     23  C   UNL     1      46.881   0.519   6.866  0.00  0.00    +0.000 C 
ATOM     24  C   UNL     1      48.458   2.457   6.632  0.00  0.00    +0.000 C 
ENDBRANCH  15  22
ENDBRANCH  14  18
ENDBRANCH   1  14
TORSDOF 5
ENDMDL
MODEL 2
REMARK VINA RESULT:    -6.815      3.450      7.176
REMARK INTER + INTRA:          -9.303
REMARK INTER:                  -8.780
REMARK INTRA:                  -0.523
REMARK UNBOUND:                -0.695
REMARK  Name = 
REMARK  8 active torsions:
REMARK  status: ('A' for Active; 'I' for Inactive)
REMARK    1  A    between atoms: C_1  and  C_2
REMARK    2  A    between atoms: C_2  and  C_3
REMARK    3  A    between atoms: C_2  and  C_4
REMARK    4  A    between atoms: C_2  and  C_5
REMARK    5  A    between atoms: C_8  and  C_9
REMARK    6  A    between atoms: C_9  and  N_10
REMARK    7  A    between atoms: C_15  and  C_16
REMARK    8  A    between atoms: C_16  and  O_18
REMARK                            x       y       z     vdW  Elec       q    Type
REMARK                         _______ _______ _______ _____ _____    ______ ____
ROOT
ATOM      1  N   UNL     1      44.575   4.431  10.916  0.00  0.00    +0.000 NA
ATOM      2  C   UNL     1      43.652   3.313  11.025  0.00  0.00    +0.000 C 
ATOM      3  C   UNL     1      44.143   2.217  10.242  0.00  0.00    +0.000 C 
ATOM      4  C   UNL     1      45.101   2.741   9.481  0.00  0.00    +0.000 C 
ATOM      5  C   UNL     1      45.812   2.100   8.407  0.00  0.00    +0.000 C 
ATOM      6  C   UNL     1      46.435   2.869   7.491  0.00  0.00    +0.000 C 
ATOM      7  C   UNL     1      46.414   4.340   7.641  0.00  0.00    +0.000 C 
ATOM      8  C   UNL     1      45.853   4.897   8.747  0.00  0.00    +0.000 C 
ATOM      9  N   UNL     1      45.262   4.110   9.718  0.00  0.00    +0.000 N 
ENDROOT
BRANCH   6  10
ATOM     10  C   UNL     1      46.931   2.116   6.307  0.00  0.00    +0.000 C 
ATOM     11  O   UNL     1      47.109   2.632   5.215  0.00  0.00    +0.000 OA
BRANCH  10  12
ATOM     12  O   UNL     1      47.177   0.809   6.526  0.00  0.00    +0.000 OA
ATOM     13  H   UNL     1      46.385   0.265   6.669  0.00  0.00    +0.000 HD
ENDBRANCH  10  12
ENDBRANCH   6  10
BRANCH   1  14
ATOM     14  C   UNL     1      43.992   5.726  11.209  0.00  0.00    +0.000 C 
BRANCH  14  18
ATOM     15  C   UNL     1      46.991   8.770  12.208  0.00  0.00    +0.000 A 
ATOM     16  C   UNL     1      47.226   7.394  12.178  0.00  0.00    +0.000 A 
ATOM     17  C   UNL     1      46.229   6.479  11.874  0.00  0.00    +0.000 A 
ATOM     18  C   UNL     1      44.918   6.879  11.595  0.00  0.00    +0.000 A 
ATOM     19  C   UNL     1      44.648   8.254  11.593  0.00  0.00    +0.000 A 
ATOM     20  C   UNL     1      45.681   9.182  11.904  0.00  0.00    +0.000 A 
BRANCH  15  22
ATOM     21  C   UNL     1      47.798  11.210  12.377  0.00  0.00    +0.000 C 
ATOM     22  C   UNL     1      48.131   9.711  12.639  0.00  0.00    +0.000 C 
ATOM     23  C   UNL     1      49.368   9.346  11.795  0.00  0.00    +0.000 C 
ATOM     24  C   UNL     1      48.497   9.618  14.133  0.00  0.00    +0.000 C 
ENDBRANCH  15  22
ENDBRANCH  14  18
ENDBRANCH   1  14
TORSDOF 5
ENDMDL
MODEL 3
REMARK VINA RESULT:    -5.929      4.434      8.973
REMARK INTER + INTRA:          -8.183
REMARK INTER:                  -7.575
REMARK INTRA:                  -0.608
REMARK UNBOUND:                -0.695
REMARK  Name = 
REMARK  8 active torsions:
REMARK  status: ('A' for Active; 'I' for Inactive)
REMARK    1  A    between atoms: C_1  and  C_2
REMARK    2  A    between atoms: C_2  and  C_3
REMARK    3  A    between atoms: C_2  and  C_4
REMARK    4  A    between atoms: C_2  and  C_5
REMARK    5  A    between atoms: C_8  and  C_9
REMARK    6  A    between atoms: C_9  and  N_10
REMARK    7  A    between atoms: C_15  and  C_16
REMARK    8  A    between atoms: C_16  and  O_18
REMARK                            x       y       z     vdW  Elec       q    Type
REMARK                         _______ _______ _______ _____ _____    ______ ____
ROOT
ATOM      1  N   UNL     1      47.210   6.674  13.730  0.00  0.00    +0.000 NA
ATOM      2  C   UNL     1      47.168   7.584  12.597  0.00  0.00    +0.000 C 
ATOM      3  C   UNL     1      46.062   7.240  11.754  0.00  0.00    +0.000 C 
ATOM      4  C   UNL     1      45.672   6.037  12.172  0.00  0.00    +0.000 C 
ATOM      5  C   UNL     1      44.695   5.174  11.565  0.00  0.00    +0.000 C 
ATOM      6  C   UNL     1      44.717   3.859  11.861  0.00  0.00    +0.000 C 
ATOM      7  C   UNL     1      45.706   3.349  12.835  0.00  0.00    +0.000 C 
ATOM      8  C   UNL     1      46.516   4.221  13.493  0.00  0.00    +0.000 C 
ATOM      9  N   UNL     1      46.459   5.577  13.234  0.00  0.00    +0.000 N 
ENDROOT
BRANCH   6  10
ATOM     10  C   UNL     1      43.825   3.032  11.002  0.00  0.00    +0.000 C 
ATOM     11  O   UNL     1      43.826   3.097   9.783  0.00  0.00    +0.000 OA
BRANCH  10  12
ATOM     12  O   UNL     1      43.009   2.194  11.671  0.00  0.00    +0.000 OA
ATOM     13  H   UNL     1      42.111   2.126  11.307  0.00  0.00    +0.000 HD
ENDBRANCH  10  12
ENDBRANCH   6  10
BRANCH   1  14
ATOM     14  C   UNL     1      48.507   6.562  14.367  0.00  0.00    +0.000 C 
BRANCH  14  18
ATOM     15  C   UNL     1      48.618   6.094  18.729  0.00  0.00    +0.000 A 
ATOM     16  C   UNL     1      48.884   7.282  18.044  0.00  0.00    +0.000 A 
ATOM     17  C   UNL     1      48.853   7.360  16.660  0.00  0.00    +0.000 A 
ATOM     18  C   UNL     1      48.568   6.247  15.862  0.00  0.00    +0.000 A 
ATOM     19  C   UNL     1      48.273   5.042  16.514  0.00  0.00    +0.000 A 
ATOM     20  C   UNL     1      48.306   4.976  17.935  0.00  0.00    +0.000 A 
BRANCH  15  22
ATOM     21  C   UNL     1      48.825   4.624  20.834  0.00  0.00    +0.000 C 
ATOM     22  C   UNL     1      48.758   6.072  20.263  0.00  0.00    +0.000 C 
ATOM     23  C   UNL     1      47.505   6.753  20.846  0.00  0.00    +0.000 C 
ATOM     24  C   UNL     1      50.014   6.790  20.793  0.00  0.00    +0.000 C 
ENDBRANCH  15  22
ENDBRANCH  14  18
ENDBRANCH   1  14
TORSDOF 5
ENDMDL
MODEL 4
REMARK VINA RESULT:    -5.871      4.056      6.982
REMARK INTER + INTRA:          -8.110
REMARK INTER:                  -7.314
REMARK INTRA:                  -0.797
REMARK UNBOUND:                -0.695
REMARK  Name = 
REMARK  8 active torsions:
REMARK  status: ('A' for Active; 'I' for Inactive)
REMARK    1  A    between atoms: C_1  and  C_2
REMARK    2  A    between atoms: C_2  and  C_3
REMARK    3  A    between atoms: C_2  and  C_4
REMARK    4  A    between atoms: C_2  and  C_5
REMARK    5  A    between atoms: C_8  and  C_9
REMARK    6  A    between atoms: C_9  and  N_10
REMARK    7  A    between atoms: C_15  and  C_16
REMARK    8  A    between atoms: C_16  and  O_18
REMARK                            x       y       z     vdW  Elec       q    Type
REMARK                         _______ _______ _______ _____ _____    ______ ____
ROOT
ATOM      1  N   UNL     1      45.873   7.968  13.191  0.00  0.00    +0.000 NA
ATOM      2  C   UNL     1      45.530   8.710  11.989  0.00  0.00    +0.000 C 
ATOM      3  C   UNL     1      44.568   7.965  11.232  0.00  0.00    +0.000 C 
ATOM      4  C   UNL     1      44.578   6.746  11.768  0.00  0.00    +0.000 C 
ATOM      5  C   UNL     1      43.904   5.572  11.283  0.00  0.00    +0.000 C 
ATOM      6  C   UNL     1      44.337   4.361  11.687  0.00  0.00    +0.000 C 
ATOM      7  C   UNL     1      45.453   4.273  12.653  0.00  0.00    +0.000 C 
ATOM      8  C   UNL     1      45.966   5.409  13.196  0.00  0.00    +0.000 C 
ATOM      9  N   UNL     1      45.488   6.652  12.826  0.00  0.00    +0.000 N 
ENDROOT
BRANCH   6  10
ATOM     10  C   UNL     1      43.727   3.223  10.945  0.00  0.00    +0.000 C 
ATOM     11  O   UNL     1      43.976   2.982   9.775  0.00  0.00    +0.000 OA
BRANCH  10  12
ATOM     12  O   UNL     1      42.876   2.466  11.664  0.00  0.00    +0.000 OA
ATOM     13  H   UNL     1      42.510   1.702  11.187  0.00  0.00    +0.000 HD
ENDBRANCH  10  12
ENDBRANCH   6  10
BRANCH   1  14
ATOM     14  C   UNL     1      47.153   8.319  13.773  0.00  0.00    +0.000 C 
BRANCH  14  18
ATOM     15  C   UNL     1      50.867   8.706  11.468  0.00  0.00    +0.000 A 
ATOM     16  C   UNL     1      50.355   9.678  12.330  0.00  0.00    +0.000 A 
ATOM     17  C   UNL     1      49.162   9.504  13.016  0.00  0.00    +0.000 A 
ATOM     18  C   UNL     1      48.388   8.347  12.873  0.00  0.00    +0.000 A 
ATOM     19  C   UNL     1      48.881   7.340  12.034  0.00  0.00    +0.000 A 
ATOM     20  C   UNL     1      50.107   7.530  11.338  0.00  0.00    +0.000 A 
BRANCH  15  22
ATOM     21  C   UNL     1      52.016  10.285   9.788  0.00  0.00    +0.000 C 
ATOM     22  C   UNL     1      52.153   9.014  10.678  0.00  0.00    +0.000 C 
ATOM     23  C   UNL     1      52.418   7.813   9.750  0.00  0.00    +0.000 C 
ATOM     24  C   UNL     1      53.393   9.252  11.560  0.00  0.00    +0.000 C 
ENDBRANCH  15  22
ENDBRANCH  14  18
ENDBRANCH   1  14
TORSDOF 5
ENDMDL
MODEL 5
REMARK VINA RESULT:    -5.760      3.952      7.066
REMARK INTER + INTRA:          -7.970
REMARK INTER:                  -7.317
REMARK INTRA:                  -0.653
REMARK UNBOUND:                -0.695
REMARK  Name = 
REMARK  8 active torsions:
REMARK  status: ('A' for Active; 'I' for Inactive)
REMARK    1  A    between atoms: C_1  and  C_2
REMARK    2  A    between atoms: C_2  and  C_3
REMARK    3  A    between atoms: C_2  and  C_4
REMARK    4  A    between atoms: C_2  and  C_5
REMARK    5  A    between atoms: C_8  and  C_9
REMARK    6  A    between atoms: C_9  and  N_10
REMARK    7  A    between atoms: C_15  and  C_16
REMARK    8  A    between atoms: C_16  and  O_18
REMARK                            x       y       z     vdW  Elec       q    Type
REMARK                         _______ _______ _______ _____ _____    ______ ____
ROOT
ATOM      1  N   UNL     1      47.745   6.438  13.219  0.00  0.00    +0.000 NA
ATOM      2  C   UNL     1      47.506   5.848  14.526  0.00  0.00    +0.000 C 
ATOM      3  C   UNL     1      46.822   4.599  14.363  0.00  0.00    +0.000 C 
ATOM      4  C   UNL     1      46.405   4.598  13.098  0.00  0.00    +0.000 C 
ATOM      5  C   UNL     1      45.538   3.642  12.464  0.00  0.00    +0.000 C 
ATOM      6  C   UNL     1      44.895   3.998  11.334  0.00  0.00    +0.000 C 
ATOM      7  C   UNL     1      45.136   5.335  10.750  0.00  0.00    +0.000 C 
ATOM      8  C   UNL     1      46.072   6.153  11.302  0.00  0.00    +0.000 C 
ATOM      9  N   UNL     1      46.774   5.770  12.429  0.00  0.00    +0.000 N 
ENDROOT
BRANCH   6  10
ATOM     10  C   UNL     1      43.853   3.027  10.900  0.00  0.00    +0.000 C 
ATOM     11  O   UNL     1      43.066   2.505  11.675  0.00  0.00    +0.000 OA
BRANCH  10  12
ATOM     12  O   UNL     1      43.834   2.764   9.579  0.00  0.00    +0.000 OA
ATOM     13  H   UNL     1      44.512   3.229   9.063  0.00  0.00    +0.000 HD
ENDBRANCH  10  12
ENDBRANCH   6  10
BRANCH   1  14
ATOM     14  C   UNL     1      47.949   7.873  13.233  0.00  0.00    +0.000 C 
BRANCH  14  18
ATOM     15  C   UNL     1      51.378   9.156  10.813  0.00  0.00    +0.000 A 
ATOM     16  C   UNL     1      51.036   7.827  11.076  0.00  0.00    +0.000 A 
ATOM     17  C   UNL     1      49.949   7.486  11.868  0.00  0.00    +0.000 A 
ATOM     18  C   UNL     1      49.136   8.455  12.466  0.00  0.00    +0.000 A 
ATOM     19  C   UNL     1      49.434   9.799  12.205  0.00  0.00    +0.000 A 
ATOM     20  C   UNL     1      50.550  10.135  11.390  0.00  0.00    +0.000 A 
BRANCH  15  22
ATOM     21  C   UNL     1      52.436  10.580   8.946  0.00  0.00    +0.000 C 
ATOM     22  C   UNL     1      52.649   9.448   9.995  0.00  0.00    +0.000 C 
ATOM     23  C   UNL     1      53.010   8.158   9.233  0.00  0.00    +0.000 C 
ATOM     24  C   UNL     1      53.859   9.886  10.843  0.00  0.00    +0.000 C 
ENDBRANCH  15  22
ENDBRANCH  14  18
ENDBRANCH   1  14
TORSDOF 5
ENDMDL
MODEL 6
REMARK VINA RESULT:    -5.586      3.721      6.019
REMARK INTER + INTRA:          -7.750
REMARK INTER:                  -7.126
REMARK INTRA:                  -0.625
REMARK UNBOUND:                -0.695
REMARK  Name = 
REMARK  8 active torsions:
REMARK  status: ('A' for Active; 'I' for Inactive)
REMARK    1  A    between atoms: C_1  and  C_2
REMARK    2  A    between atoms: C_2  and  C_3
REMARK    3  A    between atoms: C_2  and  C_4
REMARK    4  A    between atoms: C_2  and  C_5
REMARK    5  A    between atoms: C_8  and  C_9
REMARK    6  A    between atoms: C_9  and  N_10
REMARK    7  A    between atoms: C_15  and  C_16
REMARK    8  A    between atoms: C_16  and  O_18
REMARK                            x       y       z     vdW  Elec       q    Type
REMARK                         _______ _______ _______ _____ _____    ______ ____
ROOT
ATOM      1  N   UNL     1      49.297   6.621  14.843  0.00  0.00    +0.000 NA
ATOM      2  C   UNL     1      50.516   7.413  14.812  0.00  0.00    +0.000 C 
ATOM      3  C   UNL     1      51.391   6.974  15.858  0.00  0.00    +0.000 C 
ATOM      4  C   UNL     1      50.634   6.210  16.643  0.00  0.00    +0.000 C 
ATOM      5  C   UNL     1      50.987   5.644  17.917  0.00  0.00    +0.000 C 
ATOM      6  C   UNL     1      50.001   5.258  18.751  0.00  0.00    +0.000 C 
ATOM      7  C   UNL     1      48.592   5.376  18.317  0.00  0.00    +0.000 C 
ATOM      8  C   UNL     1      48.309   5.782  17.051  0.00  0.00    +0.000 C 
ATOM      9  N   UNL     1      49.319   6.127  16.172  0.00  0.00    +0.000 N 
ENDROOT
BRANCH   6  10
ATOM     10  C   UNL     1      50.470   4.912  20.121  0.00  0.00    +0.000 C 
ATOM     11  O   UNL     1      49.870   5.240  21.133  0.00  0.00    +0.000 OA
BRANCH  10  12
ATOM     12  O   UNL     1      51.613   4.201  20.169  0.00  0.00    +0.000 OA
ATOM     13  H   UNL     1      51.551   3.366  20.662  0.00  0.00    +0.000 HD
ENDBRANCH  10  12
ENDBRANCH   6  10
BRANCH   1  14
ATOM     14  C   UNL     1      48.151   7.252  14.218  0.00  0.00    +0.000 C 
BRANCH  14  18
ATOM     15  C   UNL     1      45.085   5.006  12.024  0.00  0.00    +0.000 A 
ATOM     16  C   UNL     1      45.343   6.370  11.868  0.00  0.00    +0.000 A 
ATOM     17  C   UNL     1      46.315   7.028  12.608  0.00  0.00    +0.000 A 
ATOM     18  C   UNL     1      47.086   6.367  13.570  0.00  0.00    +0.000 A 
ATOM     19  C   UNL     1      46.871   4.993  13.739  0.00  0.00    +0.000 A 
ATOM     20  C   UNL     1      45.873   4.330  12.972  0.00  0.00    +0.000 A 
BRANCH  15  22
ATOM     21  C   UNL     1      44.231   4.300   9.698  0.00  0.00    +0.000 C 
ATOM     22  C   UNL     1      43.931   4.371  11.225  0.00  0.00    +0.000 C 
ATOM     23  C   UNL     1      42.692   5.267  11.422  0.00  0.00    +0.000 C 
ATOM     24  C   UNL     1      43.584   2.932  11.652  0.00  0.00    +0.000 C 
ENDBRANCH  15  22
ENDBRANCH  14  18
ENDBRANCH   1  14
TORSDOF 5
ENDMDL
MODEL 7
REMARK VINA RESULT:    -5.535      5.644      8.057
REMARK INTER + INTRA:          -7.686
REMARK INTER:                  -7.093
REMARK INTRA:                  -0.593
REMARK UNBOUND:                -0.695
REMARK  Name = 
REMARK  8 active torsions:
REMARK  status: ('A' for Active; 'I' for Inactive)
REMARK    1  A    between atoms: C_1  and  C_2
REMARK    2  A    between atoms: C_2  and  C_3
REMARK    3  A    between atoms: C_2  and  C_4
REMARK    4  A    between atoms: C_2  and  C_5
REMARK    5  A    between atoms: C_8  and  C_9
REMARK    6  A    between atoms: C_9  and  N_10
REMARK    7  A    between atoms: C_15  and  C_16
REMARK    8  A    between atoms: C_16  and  O_18
REMARK                            x       y       z     vdW  Elec       q    Type
REMARK                         _______ _______ _______ _____ _____    ______ ____
ROOT
ATOM      1  N   UNL     1      50.134   4.557  17.295  0.00  0.00    +0.000 NA
ATOM      2  C   UNL     1      50.739   5.364  18.343  0.00  0.00    +0.000 C 
ATOM      3  C   UNL     1      52.035   4.838  18.657  0.00  0.00    +0.000 C 
ATOM      4  C   UNL     1      52.067   3.638  18.080  0.00  0.00    +0.000 C 
ATOM      5  C   UNL     1      53.084   2.630  18.214  0.00  0.00    +0.000 C 
ATOM      6  C   UNL     1      52.777   1.353  17.912  0.00  0.00    +0.000 C 
ATOM      7  C   UNL     1      51.426   1.031  17.404  0.00  0.00    +0.000 C 
ATOM      8  C   UNL     1      50.542   2.034  17.155  0.00  0.00    +0.000 C 
ATOM      9  N   UNL     1      50.872   3.351  17.412  0.00  0.00    +0.000 N 
ENDROOT
BRANCH   6  10
ATOM     10  C   UNL     1      53.821   0.370  18.311  0.00  0.00    +0.000 C 
ATOM     11  O   UNL     1      54.999   0.664  18.441  0.00  0.00    +0.000 OA
BRANCH  10  12
ATOM     12  O   UNL     1      53.371  -0.882  18.526  0.00  0.00    +0.000 OA
ATOM     13  H   UNL     1      53.272  -1.422  17.724  0.00  0.00    +0.000 HD
ENDBRANCH  10  12
ENDBRANCH   6  10
BRANCH   1  14
ATOM     14  C   UNL     1      48.688   4.635  17.232  0.00  0.00    +0.000 C 
BRANCH  14  18
ATOM     15  C   UNL     1      47.168   6.206  13.427  0.00  0.00    +0.000 A 
ATOM     16  C   UNL     1      48.134   6.829  14.222  0.00  0.00    +0.000 A 
ATOM     17  C   UNL     1      48.559   6.290  15.427  0.00  0.00    +0.000 A 
ATOM     18  C   UNL     1      48.032   5.096  15.931  0.00  0.00    +0.000 A 
ATOM     19  C   UNL     1      47.078   4.430  15.150  0.00  0.00    +0.000 A 
ATOM     20  C   UNL     1      46.653   4.992  13.914  0.00  0.00    +0.000 A 
BRANCH  15  22
ATOM     21  C   UNL     1      45.990   5.939  11.152  0.00  0.00    +0.000 C 
ATOM     22  C   UNL     1      46.691   6.914  12.145  0.00  0.00    +0.000 C 
ATOM     23  C   UNL     1      47.940   7.485  11.446  0.00  0.00    +0.000 C 
ATOM     24  C   UNL     1      45.686   8.056  12.391  0.00  0.00    +0.000 C 
ENDBRANCH  15  22
ENDBRANCH  14  18
ENDBRANCH   1  14
TORSDOF 5
ENDMDL
MODEL 8
REMARK VINA RESULT:    -5.235      4.512      8.846
REMARK INTER + INTRA:          -7.307
REMARK INTER:                  -6.675
REMARK INTRA:                  -0.633
REMARK UNBOUND:                -0.695
REMARK  Name = 
REMARK  8 active torsions:
REMARK  status: ('A' for Active; 'I' for Inactive)
REMARK    1  A    between atoms: C_1  and  C_2
REMARK    2  A    between atoms: C_2  and  C_3
REMARK    3  A    between atoms: C_2  and  C_4
REMARK    4  A    between atoms: C_2  and  C_5
REMARK    5  A    between atoms: C_8  and  C_9
REMARK    6  A    between atoms: C_9  and  N_10
REMARK    7  A    between atoms: C_15  and  C_16
REMARK    8  A    between atoms: C_16  and  O_18
REMARK                            x       y       z     vdW  Elec       q    Type
REMARK                         _______ _______ _______ _____ _____    ______ ____
ROOT
ATOM      1  N   UNL     1      47.490   7.377  13.538  0.00  0.00    +0.000 NA
ATOM      2  C   UNL     1      47.158   8.441  12.604  0.00  0.00    +0.000 C 
ATOM      3  C   UNL     1      45.810   8.266  12.148  0.00  0.00    +0.000 C 
ATOM      4  C   UNL     1      45.477   7.034  12.526  0.00  0.00    +0.000 C 
ATOM      5  C   UNL     1      44.283   6.307  12.184  0.00  0.00    +0.000 C 
ATOM      6  C   UNL     1      44.287   4.964  12.295  0.00  0.00    +0.000 C 
ATOM      7  C   UNL     1      45.492   4.280  12.811  0.00  0.00    +0.000 C 
ATOM      8  C   UNL     1      46.546   5.014  13.257  0.00  0.00    +0.000 C 
ATOM      9  N   UNL     1      46.525   6.395  13.197  0.00  0.00    +0.000 N 
ENDROOT
BRANCH   6  10
ATOM     10  C   UNL     1      43.094   4.305  11.695  0.00  0.00    +0.000 C 
ATOM     11  O   UNL     1      43.101   3.153  11.292  0.00  0.00    +0.000 OA
BRANCH  10  12
ATOM     12  O   UNL     1      41.991   5.076  11.630  0.00  0.00    +0.000 OA
ATOM     13  H   UNL     1      42.043   5.808  10.994  0.00  0.00    +0.000 HD
ENDBRANCH  10  12
ENDBRANCH   6  10
BRANCH   1  14
ATOM     14  C   UNL     1      48.909   7.122  13.683  0.00  0.00    +0.000 C 
BRANCH  14  18
ATOM     15  C   UNL     1      50.318   6.533  17.797  0.00  0.00    +0.000 A 
ATOM     16  C   UNL     1      49.057   6.165  17.322  0.00  0.00    +0.000 A 
ATOM     17  C   UNL     1      48.663   6.397  16.013  0.00  0.00    +0.000 A 
ATOM     18  C   UNL     1      49.502   7.031  15.089  0.00  0.00    +0.000 A 
ATOM     19  C   UNL     1      50.783   7.394  15.523  0.00  0.00    +0.000 A 
ATOM     20  C   UNL     1      51.176   7.148  16.868  0.00  0.00    +0.000 A 
BRANCH  15  22
ATOM     21  C   UNL     1      52.062   6.839  19.668  0.00  0.00    +0.000 C 
ATOM     22  C   UNL     1      50.645   6.316  19.286  0.00  0.00    +0.000 C 
ATOM     23  C   UNL     1      50.615   4.797  19.545  0.00  0.00    +0.000 C 
ATOM     24  C   UNL     1      49.667   7.010  20.254  0.00  0.00    +0.000 C 
ENDBRANCH  15  22
ENDBRANCH  14  18
ENDBRANCH   1  14
TORSDOF 5
ENDMDL
MODEL 9
REMARK VINA RESULT:    -5.213      4.069      6.365
REMARK INTER + INTRA:          -7.279
REMARK INTER:                  -6.639
REMARK INTRA:                  -0.640
REMARK UNBOUND:                -0.695
REMARK  Name = 
REMARK  8 active torsions:
REMARK  status: ('A' for Active; 'I' for Inactive)
REMARK    1  A    between atoms: C_1  and  C_2
REMARK    2  A    between atoms: C_2  and  C_3
REMARK    3  A    between atoms: C_2  and  C_4
REMARK    4  A    between atoms: C_2  and  C_5
REMARK    5  A    between atoms: C_8  and  C_9
REMARK    6  A    between atoms: C_9  and  N_10
REMARK    7  A    between atoms: C_15  and  C_16
REMARK    8  A    between atoms: C_16  and  O_18
REMARK                            x       y       z     vdW  Elec       q    Type
REMARK                         _______ _______ _______ _____ _____    ______ ____
ROOT
ATOM      1  N   UNL     1      49.108   8.080  15.247  0.00  0.00    +0.000 NA
ATOM      2  C   UNL     1      48.278   9.243  15.517  0.00  0.00    +0.000 C 
ATOM      3  C   UNL     1      48.006   9.314  16.922  0.00  0.00    +0.000 C 
ATOM      4  C   UNL     1      48.370   8.128  17.403  0.00  0.00    +0.000 C 
ATOM      5  C   UNL     1      48.165   7.623  18.735  0.00  0.00    +0.000 C 
ATOM      6  C   UNL     1      48.214   6.291  18.939  0.00  0.00    +0.000 C 
ATOM      7  C   UNL     1      48.527   5.393  17.808  0.00  0.00    +0.000 C 
ATOM      8  C   UNL     1      48.855   5.920  16.598  0.00  0.00    +0.000 C 
ATOM      9  N   UNL     1      48.861   7.288  16.398  0.00  0.00    +0.000 N 
ENDROOT
BRANCH   6  10
ATOM     10  C   UNL     1      47.756   5.871  20.292  0.00  0.00    +0.000 C 
ATOM     11  O   UNL     1      47.228   6.636  21.084  0.00  0.00    +0.000 OA
BRANCH  10  12
ATOM     12  O   UNL     1      47.963   4.573  20.585  0.00  0.00    +0.000 OA
ATOM     13  H   UNL     1      47.418   3.950  20.075  0.00  0.00    +0.000 HD
ENDBRANCH  10  12
ENDBRANCH   6  10
BRANCH   1  14
ATOM     14  C   UNL     1      49.044   7.595  13.883  0.00  0.00    +0.000 C 
BRANCH  14  18
ATOM     15  C   UNL     1      45.258   5.828  12.540  0.00  0.00    +0.000 A 
ATOM     16  C   UNL     1      46.369   5.103  12.978  0.00  0.00    +0.000 A 
ATOM     17  C   UNL     1      47.547   5.721  13.372  0.00  0.00    +0.000 A 
ATOM     18  C   UNL     1      47.700   7.111  13.337  0.00  0.00    +0.000 A 
ATOM     19  C   UNL     1      46.599   7.873  12.924  0.00  0.00    +0.000 A 
ATOM     20  C   UNL     1      45.396   7.227  12.526  0.00  0.00    +0.000 A 
BRANCH  15  22
ATOM     21  C   UNL     1      42.960   6.000  11.388  0.00  0.00    +0.000 C 
ATOM     22  C   UNL     1      44.020   5.061  12.040  0.00  0.00    +0.000 C 
ATOM     23  C   UNL     1      43.369   4.394  13.267  0.00  0.00    +0.000 C 
ATOM     24  C   UNL     1      44.328   3.982  10.985  0.00  0.00    +0.000 C 
ENDBRANCH  15  22
ENDBRANCH  14  18
ENDBRANCH   1  14
TORSDOF 5
ENDMDL
