MODEL 1
REMARK VINA RESULT:    -7.893      0.000      0.000
REMARK INTER + INTRA:          -9.542
REMARK INTER:                  -9.277
REMARK INTRA:                  -0.265
REMARK UNBOUND:                -0.265
REMARK  Name = 
REMARK  3 active torsions:
REMARK  status: ('A' for Active; 'I' for Inactive)
REMARK    1  A    between atoms: C_2  and  C_4
REMARK    2  A    between atoms: N_8  and  C_9
REMARK    3  A    between atoms: C_9  and  C_10
REMARK                            x       y       z     vdW  Elec       q    Type
REMARK                         _______ _______ _______ _____ _____    ______ ____
ROOT
ATOM      1  C   UNL     1      46.476   2.676   7.507  0.00  0.00    +0.000 A 
ATOM      2  C   UNL     1      45.970   1.743   8.378  0.00  0.00    +0.000 A 
ATOM      3  N   UNL     1      45.136   2.049   9.397  0.00  0.00    +0.000 NA
ATOM      4  C   UNL     1      44.826   3.346   9.569  0.00  0.00    +0.000 A 
ATOM      5  N   UNL     1      43.866   3.600  10.552  0.00  0.00    +0.000 N 
ATOM      6  N   UNL     1      45.334   4.336   8.818  0.00  0.00    +0.000 NA
ATOM      7  C   UNL     1      46.148   3.980   7.797  0.00  0.00    +0.000 A 
ATOM      8  H   UNL     1      43.778   2.731  11.068  0.00  0.00    +0.000 HD
ENDROOT
BRANCH   1  10
ATOM      9  N   UNL     1      47.278   3.212   5.281  0.00  0.00    +0.000 N 
ATOM     10  C   UNL     1      47.298   2.343   6.339  0.00  0.00    +0.000 C 
ATOM     11  O   UNL     1      48.022   1.357   6.337  0.00  0.00    +0.000 OA
ATOM     12  H   UNL     1      47.951   3.026   4.545  0.00  0.00    +0.000 HD
ATOM     13  H   UNL     1      46.917   4.154   5.340  0.00  0.00    +0.000 HD
ENDBRANCH   1  10
BRANCH   5  14
ATOM     14  C   UNL     1      43.898   4.838  11.345  0.00  0.00    +0.000 C 
ATOM     15  C   UNL     1      42.631   5.148  12.136  0.00  0.00    +0.000 C 
ATOM     16  C   UNL     1      43.025   6.030  10.999  0.00  0.00    +0.000 C 
BRANCH  14  17
ATOM     17  C   UNL     1      45.236   5.068  12.025  0.00  0.00    +0.000 A 
ATOM     18  C   UNL     1      46.018   6.204  11.767  0.00  0.00    +0.000 A 
ATOM     19  C   UNL     1      47.195   6.439  12.476  0.00  0.00    +0.000 A 
ATOM     20  C   UNL     1      47.569   5.522  13.440  0.00  0.00    +0.000 A 
ATOM     21  N   UNL     1      46.867   4.405  13.720  0.00  0.00    +0.000 NA
ATOM     22  C   UNL     1      45.727   4.209  13.010  0.00  0.00    +0.000 A 
ENDBRANCH  14  17
ENDBRANCH   5  14
TORSDOF 3
ENDMDL
MODEL 2
REMARK VINA RESULT:    -6.283      2.961      6.387
REMARK INTER + INTRA:          -7.649
REMARK INTER:                  -7.730
REMARK INTRA:                   0.080
REMARK UNBOUND:                -0.265
REMARK  Name = 
REMARK  3 active torsions:
REMARK  status: ('A' for Active; 'I' for Inactive)
REMARK    1  A    between atoms: C_2  and  C_4
REMARK    2  A    between atoms: N_8  and  C_9
REMARK    3  A    between atoms: C_9  and  C_10
REMARK                            x       y       z     vdW  Elec       q    Type
REMARK                         _______ _______ _______ _____ _____    ______ ____
ROOT
ATOM      1  C   UNL     1      47.928   6.493  14.242  0.00  0.00    +0.000 A 
ATOM      2  C   UNL     1      47.675   7.253  13.127  0.00  0.00    +0.000 A 
ATOM      3  N   UNL     1      46.708   6.962  12.229  0.00  0.00    +0.000 NA
ATOM      4  C   UNL     1      45.989   5.845  12.440  0.00  0.00    +0.000 A 
ATOM      5  N   UNL     1      44.923   5.652  11.560  0.00  0.00    +0.000 N 
ATOM      6  N   UNL     1      46.216   4.998  13.458  0.00  0.00    +0.000 NA
ATOM      7  C   UNL     1      47.181   5.342  14.343  0.00  0.00    +0.000 A 
ATOM      8  H   UNL     1      45.073   6.318  10.809  0.00  0.00    +0.000 HD
ENDROOT
BRANCH   1  10
ATOM      9  N   UNL     1      48.424   7.356  16.455  0.00  0.00    +0.000 N 
ATOM     10  C   UNL     1      48.905   6.855  15.274  0.00  0.00    +0.000 C 
ATOM     11  O   UNL     1      50.101   6.658  15.108  0.00  0.00    +0.000 OA
ATOM     12  H   UNL     1      49.108   7.475  17.194  0.00  0.00    +0.000 HD
ATOM     13  H   UNL     1      47.456   7.285  16.737  0.00  0.00    +0.000 HD
ENDBRANCH   1  10
BRANCH   5  14
ATOM     14  C   UNL     1      44.496   4.300  11.165  0.00  0.00    +0.000 C 
ATOM     15  C   UNL     1      43.022   3.980  11.397  0.00  0.00    +0.000 C 
ATOM     16  C   UNL     1      44.067   3.269  12.192  0.00  0.00    +0.000 C 
BRANCH  14  17
ATOM     17  C   UNL     1      45.129   3.839   9.865  0.00  0.00    +0.000 A 
ATOM     18  C   UNL     1      45.223   2.481   9.522  0.00  0.00    +0.000 A 
ATOM     19  C   UNL     1      45.719   2.089   8.281  0.00  0.00    +0.000 A 
ATOM     20  C   UNL     1      46.116   3.074   7.396  0.00  0.00    +0.000 A 
ATOM     21  N   UNL     1      46.066   4.392   7.677  0.00  0.00    +0.000 NA
ATOM     22  C   UNL     1      45.576   4.737   8.895  0.00  0.00    +0.000 A 
ENDBRANCH  14  17
ENDBRANCH   5  14
TORSDOF 3
ENDMDL
MODEL 3
REMARK VINA RESULT:    -5.526      4.648      7.518
REMARK INTER + INTRA:          -6.760
REMARK INTER:                  -7.317
REMARK INTRA:                   0.557
REMARK UNBOUND:                -0.265
REMARK  Name = 
REMARK  3 active torsions:
REMARK  status: ('A' for Active; 'I' for Inactive)
REMARK    1  A    between atoms: C_2  and  C_4
REMARK    2  A    between atoms: N_8  and  C_9
REMARK    3  A    between atoms: C_9  and  C_10
REMARK                            x       y       z     vdW  Elec       q    Type
REMARK                         _______ _______ _______ _____ _____    ______ ____
ROOT
ATOM      1  C   UNL     1      48.431   4.151  17.291  0.00  0.00    +0.000 A 
ATOM      2  C   UNL     1      47.880   3.142  16.540  0.00  0.00    +0.000 A 
ATOM      3  N   UNL     1      47.455   3.306  15.268  0.00  0.00    +0.000 NA
ATOM      4  C   UNL     1      47.555   4.539  14.741  0.00  0.00    +0.000 A 
ATOM      5  N   UNL     1      47.222   4.633  13.387  0.00  0.00    +0.000 N 
ATOM      6  N   UNL     1      48.006   5.604  15.424  0.00  0.00    +0.000 NA
ATOM      7  C   UNL     1      48.440   5.387  16.688  0.00  0.00    +0.000 A 
ATOM      8  H   UNL     1      46.765   3.755  13.164  0.00  0.00    +0.000 HD
ENDROOT
BRANCH   1  10
ATOM      9  N   UNL     1      48.291   3.161  19.501  0.00  0.00    +0.000 N 
ATOM     10  C   UNL     1      48.988   3.960  18.634  0.00  0.00    +0.000 C 
ATOM     11  O   UNL     1      50.065   4.447  18.947  0.00  0.00    +0.000 OA
ATOM     12  H   UNL     1      48.761   2.941  20.373  0.00  0.00    +0.000 HD
ATOM     13  H   UNL     1      47.555   2.532  19.211  0.00  0.00    +0.000 HD
ENDBRANCH   1  10
BRANCH   5  14
ATOM     14  C   UNL     1      46.610   5.853  12.837  0.00  0.00    +0.000 C 
ATOM     15  C   UNL     1      47.527   6.724  11.984  0.00  0.00    +0.000 C 
ATOM     16  C   UNL     1      47.034   7.235  13.297  0.00  0.00    +0.000 C 
BRANCH  14  17
ATOM     17  C   UNL     1      45.187   5.632  12.355  0.00  0.00    +0.000 A 
ATOM     18  C   UNL     1      44.878   5.460  10.997  0.00  0.00    +0.000 A 
ATOM     19  C   UNL     1      43.579   5.162  10.591  0.00  0.00    +0.000 A 
ATOM     20  C   UNL     1      42.603   5.040  11.563  0.00  0.00    +0.000 A 
ATOM     21  N   UNL     1      42.837   5.212  12.880  0.00  0.00    +0.000 NA
ATOM     22  C   UNL     1      44.115   5.500  13.239  0.00  0.00    +0.000 A 
ENDBRANCH  14  17
ENDBRANCH   5  14
TORSDOF 3
ENDMDL
MODEL 4
REMARK VINA RESULT:    -5.404      4.819      7.617
REMARK INTER + INTRA:          -6.616
REMARK INTER:                  -6.609
REMARK INTRA:                  -0.007
REMARK UNBOUND:                -0.265
REMARK  Name = 
REMARK  3 active torsions:
REMARK  status: ('A' for Active; 'I' for Inactive)
REMARK    1  A    between atoms: C_2  and  C_4
REMARK    2  A    between atoms: N_8  and  C_9
REMARK    3  A    between atoms: C_9  and  C_10
REMARK                            x       y       z     vdW  Elec       q    Type
REMARK                         _______ _______ _______ _____ _____    ______ ____
ROOT
ATOM      1  C   UNL     1      47.178   5.555  13.450  0.00  0.00    +0.000 A 
ATOM      2  C   UNL     1      46.747   4.339  13.920  0.00  0.00    +0.000 A 
ATOM      3  N   UNL     1      47.005   3.886  15.167  0.00  0.00    +0.000 NA
ATOM      4  C   UNL     1      47.756   4.669  15.961  0.00  0.00    +0.000 A 
ATOM      5  N   UNL     1      47.893   4.220  17.276  0.00  0.00    +0.000 N 
ATOM      6  N   UNL     1      48.289   5.836  15.563  0.00  0.00    +0.000 NA
ATOM      7  C   UNL     1      47.985   6.259  14.313  0.00  0.00    +0.000 A 
ATOM      8  H   UNL     1      47.553   3.264  17.268  0.00  0.00    +0.000 HD
ENDROOT
BRANCH   1  10
ATOM      9  N   UNL     1      45.737   5.548  11.498  0.00  0.00    +0.000 N 
ATOM     10  C   UNL     1      46.817   6.099  12.137  0.00  0.00    +0.000 C 
ATOM     11  O   UNL     1      47.420   7.049  11.659  0.00  0.00    +0.000 OA
ATOM     12  H   UNL     1      45.432   6.026  10.657  0.00  0.00    +0.000 HD
ATOM     13  H   UNL     1      45.057   4.959  11.959  0.00  0.00    +0.000 HD
ENDBRANCH   1  10
BRANCH   5  14
ATOM     14  C   UNL     1      49.122   4.476  18.045  0.00  0.00    +0.000 C 
ATOM     15  C   UNL     1      48.917   4.936  19.484  0.00  0.00    +0.000 C 
ATOM     16  C   UNL     1      49.510   5.874  18.486  0.00  0.00    +0.000 C 
BRANCH  14  17
ATOM     17  C   UNL     1      50.210   3.452  17.773  0.00  0.00    +0.000 A 
ATOM     18  C   UNL     1      51.549   3.676  18.129  0.00  0.00    +0.000 A 
ATOM     19  C   UNL     1      52.511   2.682  17.957  0.00  0.00    +0.000 A 
ATOM     20  C   UNL     1      52.109   1.470  17.427  0.00  0.00    +0.000 A 
ATOM     21  N   UNL     1      50.841   1.205  17.051  0.00  0.00    +0.000 NA
ATOM     22  C   UNL     1      49.932   2.196  17.233  0.00  0.00    +0.000 A 
ENDBRANCH  14  17
ENDBRANCH   5  14
TORSDOF 3
ENDMDL
MODEL 5
REMARK VINA RESULT:    -5.388      2.388      3.394
REMARK INTER + INTRA:          -6.597
REMARK INTER:                  -6.319
REMARK INTRA:                  -0.278
REMARK UNBOUND:                -0.265
REMARK  Name = 
REMARK  3 active torsions:
REMARK  status: ('A' for Active; 'I' for Inactive)
REMARK    1  A    between atoms: C_2  and  C_4
REMARK    2  A    between atoms: N_8  and  C_9
REMARK    3  A    between atoms: C_9  and  C_10
REMARK                            x       y       z     vdW  Elec       q    Type
REMARK                         _______ _______ _______ _____ _____    ______ ____
ROOT
ATOM      1  C   UNL     1      45.074   3.363   9.991  0.00  0.00    +0.000 A 
ATOM      2  C   UNL     1      44.867   3.281  11.346  0.00  0.00    +0.000 A 
ATOM      3  N   UNL     1      44.828   4.357  12.163  0.00  0.00    +0.000 NA
ATOM      4  C   UNL     1      45.040   5.561  11.602  0.00  0.00    +0.000 A 
ATOM      5  N   UNL     1      44.867   6.651  12.457  0.00  0.00    +0.000 N 
ATOM      6  N   UNL     1      45.329   5.733  10.302  0.00  0.00    +0.000 NA
ATOM      7  C   UNL     1      45.336   4.628   9.519  0.00  0.00    +0.000 A 
ATOM      8  H   UNL     1      44.824   6.253  13.390  0.00  0.00    +0.000 HD
ENDROOT
BRANCH   1  10
ATOM      9  N   UNL     1      46.049   2.051   8.199  0.00  0.00    +0.000 N 
ATOM     10  C   UNL     1      45.016   2.213   9.084  0.00  0.00    +0.000 C 
ATOM     11  O   UNL     1      44.111   1.395   9.157  0.00  0.00    +0.000 OA
ATOM     12  H   UNL     1      46.050   1.182   7.676  0.00  0.00    +0.000 HD
ATOM     13  H   UNL     1      46.934   2.534   8.280  0.00  0.00    +0.000 HD
ENDBRANCH   1  10
BRANCH   5  14
ATOM     14  C   UNL     1      45.665   7.877  12.300  0.00  0.00    +0.000 C 
ATOM     15  C   UNL     1      45.046   9.147  12.876  0.00  0.00    +0.000 C 
ATOM     16  C   UNL     1      45.215   9.011  11.399  0.00  0.00    +0.000 C 
BRANCH  14  17
ATOM     17  C   UNL     1      47.149   7.645  12.521  0.00  0.00    +0.000 A 
ATOM     18  C   UNL     1      48.127   8.264  11.726  0.00  0.00    +0.000 A 
ATOM     19  C   UNL     1      49.482   8.113  12.011  0.00  0.00    +0.000 A 
ATOM     20  C   UNL     1      49.838   7.336  13.097  0.00  0.00    +0.000 A 
ATOM     21  N   UNL     1      48.944   6.703  13.886  0.00  0.00    +0.000 NA
ATOM     22  C   UNL     1      47.633   6.874  13.579  0.00  0.00    +0.000 A 
ENDBRANCH  14  17
ENDBRANCH   5  14
TORSDOF 3
ENDMDL
MODEL 6
REMARK VINA RESULT:    -5.302      3.254      5.227
REMARK INTER + INTRA:          -6.497
REMARK INTER:                  -6.449
REMARK INTRA:                  -0.048
REMARK UNBOUND:                -0.265
REMARK  Name = 
REMARK  3 active torsions:
REMARK  status: ('A' for Active; 'I' for Inactive)
REMARK    1  A    between atoms: C_2  and  C_4
REMARK    2  A    between atoms: N_8  and  C_9
REMARK    3  A    between atoms: C_9  and  C_10
REMARK                            x       y       z     vdW  Elec       q    Type
REMARK                         _______ _______ _______ _____ _____    ______ ____
ROOT
ATOM      1  C   UNL     1      44.659   4.475  11.670  0.00  0.00    +0.000 A 
ATOM      2  C   UNL     1      44.147   5.057  12.803  0.00  0.00    +0.000 A 
ATOM      3  N   UNL     1      44.590   6.231  13.305  0.00  0.00    +0.000 NA
ATOM      4  C   UNL     1      45.611   6.827  12.663  0.00  0.00    +0.000 A 
ATOM      5  N   UNL     1      45.952   8.094  13.141  0.00  0.00    +0.000 N 
ATOM      6  N   UNL     1      46.228   6.295  11.595  0.00  0.00    +0.000 NA
ATOM      7  C   UNL     1      45.735   5.128  11.116  0.00  0.00    +0.000 A 
ATOM      8  H   UNL     1      45.468   8.183  14.028  0.00  0.00    +0.000 HD
ENDROOT
BRANCH   1  10
ATOM      9  N   UNL     1      44.922   2.571  10.189  0.00  0.00    +0.000 N 
ATOM     10  C   UNL     1      44.117   3.256  11.061  0.00  0.00    +0.000 C 
ATOM     11  O   UNL     1      43.012   2.833  11.369  0.00  0.00    +0.000 OA
ATOM     12  H   UNL     1      44.575   1.668   9.885  0.00  0.00    +0.000 HD
ATOM     13  H   UNL     1      45.918   2.725  10.111  0.00  0.00    +0.000 HD
ENDBRANCH   1  10
BRANCH   5  14
ATOM     14  C   UNL     1      47.342   8.575  13.098  0.00  0.00    +0.000 C 
ATOM     15  C   UNL     1      47.533   9.993  12.567  0.00  0.00    +0.000 C 
ATOM     16  C   UNL     1      48.056   8.834  11.785  0.00  0.00    +0.000 C 
BRANCH  14  17
ATOM     17  C   UNL     1      48.149   8.156  14.314  0.00  0.00    +0.000 A 
ATOM     18  C   UNL     1      48.039   8.818  15.547  0.00  0.00    +0.000 A 
ATOM     19  C   UNL     1      48.716   8.353  16.672  0.00  0.00    +0.000 A 
ATOM     20  C   UNL     1      49.499   7.221  16.541  0.00  0.00    +0.000 A 
ATOM     21  N   UNL     1      49.656   6.554  15.379  0.00  0.00    +0.000 NA
ATOM     22  C   UNL     1      48.981   7.035  14.304  0.00  0.00    +0.000 A 
ENDBRANCH  14  17
ENDBRANCH   5  14
TORSDOF 3
ENDMDL
MODEL 7
REMARK VINA RESULT:    -5.273      5.724      7.430
REMARK INTER + INTRA:          -6.463
REMARK INTER:                  -6.144
REMARK INTRA:                  -0.319
REMARK UNBOUND:                -0.265
REMARK  Name = 
REMARK  3 active torsions:
REMARK  status: ('A' for Active; 'I' for Inactive)
REMARK    1  A    between atoms: C_2  and  C_4
REMARK    2  A    between atoms: N_8  and  C_9
REMARK    3  A    between atoms: C_9  and  C_10
REMARK                            x       y       z     vdW  Elec       q    Type
REMARK                         _______ _______ _______ _____ _____    ______ ____
ROOT
ATOM      1  C   UNL     1      49.520   7.358  12.921  0.00  0.00    +0.000 A 
ATOM      2  C   UNL     1      48.521   6.434  12.734  0.00  0.00    +0.000 A 
ATOM      3  N   UNL     1      47.893   5.798  13.748  0.00  0.00    +0.000 NA
ATOM      4  C   UNL     1      48.308   6.076  14.997  0.00  0.00    +0.000 A 
ATOM      5  N   UNL     1      47.550   5.493  16.016  0.00  0.00    +0.000 N 
ATOM      6  N   UNL     1      49.329   6.903  15.274  0.00  0.00    +0.000 NA
ATOM      7  C   UNL     1      49.914   7.532  14.227  0.00  0.00    +0.000 A 
ATOM      8  H   UNL     1      46.969   4.803  15.553  0.00  0.00    +0.000 HD
ENDROOT
BRANCH   1  10
ATOM      9  N   UNL     1      51.183   7.550  11.165  0.00  0.00    +0.000 N 
ATOM     10  C   UNL     1      50.136   8.126  11.834  0.00  0.00    +0.000 C 
ATOM     11  O   UNL     1      49.691   9.215  11.500  0.00  0.00    +0.000 OA
ATOM     12  H   UNL     1      51.503   8.044  10.339  0.00  0.00    +0.000 HD
ATOM     13  H   UNL     1      51.407   6.566  11.221  0.00  0.00    +0.000 HD
ENDBRANCH   1  10
BRANCH   5  14
ATOM     14  C   UNL     1      48.168   5.088  17.288  0.00  0.00    +0.000 C 
ATOM     15  C   UNL     1      47.248   5.110  18.505  0.00  0.00    +0.000 C 
ATOM     16  C   UNL     1      48.383   6.075  18.420  0.00  0.00    +0.000 C 
BRANCH  14  17
ATOM     17  C   UNL     1      49.118   3.913  17.134  0.00  0.00    +0.000 A 
ATOM     18  C   UNL     1      50.398   3.910  17.708  0.00  0.00    +0.000 A 
ATOM     19  C   UNL     1      51.212   2.781  17.635  0.00  0.00    +0.000 A 
ATOM     20  C   UNL     1      50.723   1.665  16.982  0.00  0.00    +0.000 A 
ATOM     21  N   UNL     1      49.509   1.616  16.397  0.00  0.00    +0.000 NA
ATOM     22  C   UNL     1      48.743   2.734  16.489  0.00  0.00    +0.000 A 
ENDBRANCH  14  17
ENDBRANCH   5  14
TORSDOF 3
ENDMDL
MODEL 8
REMARK VINA RESULT:    -5.159      3.209      5.962
REMARK INTER + INTRA:          -6.328
REMARK INTER:                  -7.039
REMARK INTRA:                   0.711
REMARK UNBOUND:                -0.265
REMARK  Name = 
REMARK  3 active torsions:
REMARK  status: ('A' for Active; 'I' for Inactive)
REMARK    1  A    between atoms: C_2  and  C_4
REMARK    2  A    between atoms: N_8  and  C_9
REMARK    3  A    between atoms: C_9  and  C_10
REMARK                            x       y       z     vdW  Elec       q    Type
REMARK                         _______ _______ _______ _____ _____    ______ ____
ROOT
ATOM      1  C   UNL     1      48.745   7.062  13.521  0.00  0.00    +0.000 A 
ATOM      2  C   UNL     1      48.246   6.244  14.505  0.00  0.00    +0.000 A 
ATOM      3  N   UNL     1      47.208   5.399  14.319  0.00  0.00    +0.000 NA
ATOM      4  C   UNL     1      46.625   5.401  13.107  0.00  0.00    +0.000 A 
ATOM      5  N   UNL     1      45.641   4.426  12.922  0.00  0.00    +0.000 N 
ATOM      6  N   UNL     1      46.991   6.221  12.109  0.00  0.00    +0.000 NA
ATOM      7  C   UNL     1      48.049   7.035  12.335  0.00  0.00    +0.000 A 
ATOM      8  H   UNL     1      45.444   4.067  13.850  0.00  0.00    +0.000 HD
ENDROOT
BRANCH   1  10
ATOM      9  N   UNL     1      50.934   7.776  12.758  0.00  0.00    +0.000 N 
ATOM     10  C   UNL     1      49.933   7.906  13.683  0.00  0.00    +0.000 C 
ATOM     11  O   UNL     1      49.999   8.738  14.577  0.00  0.00    +0.000 OA
ATOM     12  H   UNL     1      51.682   8.459  12.818  0.00  0.00    +0.000 HD
ATOM     13  H   UNL     1      50.815   7.310  11.869  0.00  0.00    +0.000 HD
ENDBRANCH   1  10
BRANCH   5  14
ATOM     14  C   UNL     1      44.481   4.671  12.050  0.00  0.00    +0.000 C 
ATOM     15  C   UNL     1      43.818   6.037  12.202  0.00  0.00    +0.000 C 
ATOM     16  C   UNL     1      43.078   4.807  12.610  0.00  0.00    +0.000 C 
BRANCH  14  17
ATOM     17  C   UNL     1      44.673   4.124  10.647  0.00  0.00    +0.000 A 
ATOM     18  C   UNL     1      45.313   4.864   9.640  0.00  0.00    +0.000 A 
ATOM     19  C   UNL     1      45.563   4.302   8.389  0.00  0.00    +0.000 A 
ATOM     20  C   UNL     1      45.165   2.998   8.168  0.00  0.00    +0.000 A 
ATOM     21  N   UNL     1      44.531   2.245   9.091  0.00  0.00    +0.000 NA
ATOM     22  C   UNL     1      44.304   2.824  10.298  0.00  0.00    +0.000 A 
ENDBRANCH  14  17
ENDBRANCH   5  14
TORSDOF 3
ENDMDL
MODEL 9
REMARK VINA RESULT:    -4.986      4.459      7.403
REMARK INTER + INTRA:          -6.125
REMARK INTER:                  -5.816
REMARK INTRA:                  -0.308
REMARK UNBOUND:                -0.265
REMARK  Name = 
REMARK  3 active torsions:
REMARK  status: ('A' for Active; 'I' for Inactive)
REMARK    1  A    between atoms: C_2  and  C_4
REMARK    2  A    between atoms: N_8  and  C_9
REMARK    3  A    between atoms: C_9  and  C_10
REMARK                            x       y       z     vdW  Elec       q    Type
REMARK                         _______ _______ _______ _____ _____    ______ ____
ROOT
ATOM      1  C   UNL     1      46.120   4.964  13.402  0.00  0.00    +0.000 A 
ATOM      2  C   UNL     1      46.460   6.230  12.995  0.00  0.00    +0.000 A 
ATOM      3  N   UNL     1      47.488   6.933  13.521  0.00  0.00    +0.000 NA
ATOM      4  C   UNL     1      48.179   6.355  14.519  0.00  0.00    +0.000 A 
ATOM      5  N   UNL     1      49.306   7.062  14.946  0.00  0.00    +0.000 N 
ATOM      6  N   UNL     1      47.870   5.155  15.038  0.00  0.00    +0.000 NA
ATOM      7  C   UNL     1      46.846   4.480  14.465  0.00  0.00    +0.000 A 
ATOM      8  H   UNL     1      49.217   7.982  14.528  0.00  0.00    +0.000 HD
ENDROOT
BRANCH   1  10
ATOM      9  N   UNL     1      45.337   2.827  12.561  0.00  0.00    +0.000 N 
ATOM     10  C   UNL     1      45.073   4.155  12.769  0.00  0.00    +0.000 C 
ATOM     11  O   UNL     1      43.983   4.636  12.495  0.00  0.00    +0.000 OA
ATOM     12  H   UNL     1      44.553   2.267  12.243  0.00  0.00    +0.000 HD
ATOM     13  H   UNL     1      46.099   2.334  13.005  0.00  0.00    +0.000 HD
ENDBRANCH   1  10
BRANCH   5  14
ATOM     14  C   UNL     1      49.748   7.015  16.349  0.00  0.00    +0.000 C 
ATOM     15  C   UNL     1      51.254   7.124  16.570  0.00  0.00    +0.000 C 
ATOM     16  C   UNL     1      50.550   5.848  16.894  0.00  0.00    +0.000 C 
BRANCH  14  17
ATOM     17  C   UNL     1      48.834   7.790  17.281  0.00  0.00    +0.000 A 
ATOM     18  C   UNL     1      48.305   7.221  18.449  0.00  0.00    +0.000 A 
ATOM     19  C   UNL     1      47.548   7.983  19.337  0.00  0.00    +0.000 A 
ATOM     20  C   UNL     1      47.333   9.314  19.035  0.00  0.00    +0.000 A 
ATOM     21  N   UNL     1      47.801   9.911  17.919  0.00  0.00    +0.000 NA
ATOM     22  C   UNL     1      48.534   9.138  17.078  0.00  0.00    +0.000 A 
ENDBRANCH  14  17
ENDBRANCH   5  14
TORSDOF 3
ENDMDL
