MODEL 1
REMARK VINA RESULT:    -7.496      0.000      0.000
REMARK INTER + INTRA:         -11.800
REMARK INTER:                 -10.564
REMARK INTRA:                  -1.236
REMARK UNBOUND:                -1.236
REMARK  Name = 
REMARK  7 active torsions:
REMARK  status: ('A' for Active; 'I' for Inactive)
REMARK    1  A    between atoms: C_2  and  C_3
REMARK    2  A    between atoms: C_8  and  C_9
REMARK    3  A    between atoms: N_11  and  C_12
REMARK    4  A    between atoms: C_12  and  C_13
REMARK    5  A    between atoms: C_16  and  C_17
REMARK    6  A    between atoms: C_17  and  N_18
REMARK    7  A    between atoms: C_19  and  C_21
REMARK                            x       y       z     vdW  Elec       q    Type
REMARK                         _______ _______ _______ _____ _____    ______ ____
ROOT
ATOM      1  C   UNL     1      50.078   7.075  15.668  0.00  0.00    +0.000 A 
ATOM      2  C   UNL     1      48.823   6.455  15.593  0.00  0.00    +0.000 A 
ATOM      3  C   UNL     1      48.015   6.610  14.461  0.00  0.00    +0.000 A 
ATOM      4  C   UNL     1      48.453   7.365  13.366  0.00  0.00    +0.000 A 
ATOM      5  C   UNL     1      49.707   7.988  13.443  0.00  0.00    +0.000 A 
ATOM      6  C   UNL     1      50.514   7.839  14.577  0.00  0.00    +0.000 A 
ENDROOT
BRANCH   1   7
ATOM      7  C   UNL     1      50.935   6.920  16.901  0.00  0.00    +0.000 C 
BRANCH   7  10
ATOM      8  C   UNL     1      51.142   4.695  17.940  0.00  0.00    +0.000 C 
ATOM      9  O   UNL     1      50.236   4.917  18.739  0.00  0.00    +0.000 OA
ATOM     10  N   UNL     1      51.540   5.606  16.988  0.00  0.00    +0.000 N 
ATOM     11  H   UNL     1      52.195   5.360  16.260  0.00  0.00    +0.000 HD
BRANCH   8  17
ATOM     12  C   UNL     1      51.326   2.187  17.396  0.00  0.00    +0.000 A 
ATOM     13  C   UNL     1      52.107   1.016  17.428  0.00  0.00    +0.000 A 
ATOM     14  C   UNL     1      53.359   1.008  18.041  0.00  0.00    +0.000 A 
ATOM     15  C   UNL     1      53.847   2.169  18.631  0.00  0.00    +0.000 A 
ATOM     16  C   UNL     1      53.086   3.339  18.596  0.00  0.00    +0.000 A 
ATOM     17  C   UNL     1      51.819   3.365  17.987  0.00  0.00    +0.000 A 
BRANCH  12  19
ATOM     18  N   UNL     1      49.035   2.119  16.190  0.00  0.00    +0.000 NA
ATOM     19  C   UNL     1      50.057   2.118  16.740  0.00  0.00    +0.000 C 
ENDBRANCH  12  19
ENDBRANCH   8  17
ENDBRANCH   7  10
ENDBRANCH   1   7
BRANCH   4  20
ATOM     20  C   UNL     1      47.587   7.528  12.142  0.00  0.00    +0.000 C 
BRANCH  20  21
ATOM     21  N   UNL     1      46.886   6.310  11.817  0.00  0.00    +0.000 N 
ATOM     22  C   UNL     1      45.515   6.250  11.831  0.00  0.00    +0.000 C 
ATOM     23  O   UNL     1      44.824   7.236  12.076  0.00  0.00    +0.000 OA
ATOM     24  H   UNL     1      47.425   5.450  11.835  0.00  0.00    +0.000 HD
BRANCH  22  25
ATOM     25  C   UNL     1      44.907   4.960  11.477  0.00  0.00    +0.000 A 
ATOM     26  C   UNL     1      44.162   4.266  12.422  0.00  0.00    +0.000 A 
ATOM     27  S   UNL     1      43.489   2.814  11.833  0.00  0.00    +0.000 S 
ATOM     28  C   UNL     1      44.213   3.033  10.309  0.00  0.00    +0.000 A 
ATOM     29  N   UNL     1      44.053   2.113   9.320  0.00  0.00    +0.000 NA
ATOM     30  C   UNL     1      44.680   2.390   8.226  0.00  0.00    +0.000 A 
ATOM     31  N   UNL     1      45.447   3.511   8.030  0.00  0.00    +0.000 N 
ATOM     32  C   UNL     1      45.613   4.478   8.988  0.00  0.00    +0.000 A 
ATOM     33  O   UNL     1      46.278   5.488   8.767  0.00  0.00    +0.000 OA
ATOM     34  C   UNL     1      44.941   4.210  10.244  0.00  0.00    +0.000 A 
ATOM     35  H   UNL     1      45.906   3.673   7.146  0.00  0.00    +0.000 HD
ENDBRANCH  22  25
ENDBRANCH  20  21
ENDBRANCH   4  20
TORSDOF 7
ENDMDL
MODEL 2
REMARK VINA RESULT:    -7.395      1.346      1.978
REMARK INTER + INTRA:         -11.657
REMARK INTER:                 -10.595
REMARK INTRA:                  -1.061
REMARK UNBOUND:                -1.236
REMARK  Name = 
REMARK  7 active torsions:
REMARK  status: ('A' for Active; 'I' for Inactive)
REMARK    1  A    between atoms: C_2  and  C_3
REMARK    2  A    between atoms: C_8  and  C_9
REMARK    3  A    between atoms: N_11  and  C_12
REMARK    4  A    between atoms: C_12  and  C_13
REMARK    5  A    between atoms: C_16  and  C_17
REMARK    6  A    between atoms: C_17  and  N_18
REMARK    7  A    between atoms: C_19  and  C_21
REMARK                            x       y       z     vdW  Elec       q    Type
REMARK                         _______ _______ _______ _____ _____    ______ ____
ROOT
ATOM      1  C   UNL     1      49.961   7.148  15.923  0.00  0.00    +0.000 A 
ATOM      2  C   UNL     1      48.695   6.690  15.535  0.00  0.00    +0.000 A 
ATOM      3  C   UNL     1      48.188   6.979  14.263  0.00  0.00    +0.000 A 
ATOM      4  C   UNL     1      48.947   7.709  13.338  0.00  0.00    +0.000 A 
ATOM      5  C   UNL     1      50.212   8.170  13.728  0.00  0.00    +0.000 A 
ATOM      6  C   UNL     1      50.718   7.887  15.003  0.00  0.00    +0.000 A 
ENDROOT
BRANCH   1   7
ATOM      7  C   UNL     1      50.493   6.850  17.304  0.00  0.00    +0.000 C 
BRANCH   7  10
ATOM      8  C   UNL     1      50.798   4.521  18.050  0.00  0.00    +0.000 C 
ATOM      9  O   UNL     1      49.723   4.507  18.644  0.00  0.00    +0.000 OA
ATOM     10  N   UNL     1      51.249   5.614  17.347  0.00  0.00    +0.000 N 
ATOM     11  H   UNL     1      52.070   5.566  16.760  0.00  0.00    +0.000 HD
BRANCH   8  17
ATOM     12  C   UNL     1      51.325   2.089  17.395  0.00  0.00    +0.000 A 
ATOM     13  C   UNL     1      52.245   1.024  17.412  0.00  0.00    +0.000 A 
ATOM     14  C   UNL     1      53.459   1.138  18.089  0.00  0.00    +0.000 A 
ATOM     15  C   UNL     1      53.767   2.317  18.760  0.00  0.00    +0.000 A 
ATOM     16  C   UNL     1      52.866   3.383  18.741  0.00  0.00    +0.000 A 
ATOM     17  C   UNL     1      51.636   3.285  18.068  0.00  0.00    +0.000 A 
BRANCH  12  19
ATOM     18  N   UNL     1      49.097   1.794  16.106  0.00  0.00    +0.000 NA
ATOM     19  C   UNL     1      50.106   1.899  16.669  0.00  0.00    +0.000 C 
ENDBRANCH  12  19
ENDBRANCH   8  17
ENDBRANCH   7  10
ENDBRANCH   1   7
BRANCH   4  20
ATOM     20  C   UNL     1      48.406   8.016  11.964  0.00  0.00    +0.000 C 
BRANCH  20  21
ATOM     21  N   UNL     1      47.673   6.901  11.417  0.00  0.00    +0.000 N 
ATOM     22  C   UNL     1      46.301   6.901  11.374  0.00  0.00    +0.000 C 
ATOM     23  O   UNL     1      45.639   7.863  11.755  0.00  0.00    +0.000 OA
ATOM     24  H   UNL     1      48.177   6.027  11.310  0.00  0.00    +0.000 HD
BRANCH  22  25
ATOM     25  C   UNL     1      45.659   5.716  10.789  0.00  0.00    +0.000 A 
ATOM     26  C   UNL     1      45.780   5.467   9.428  0.00  0.00    +0.000 A 
ATOM     27  S   UNL     1      45.016   4.028   8.923  0.00  0.00    +0.000 S 
ATOM     28  C   UNL     1      44.452   3.711  10.497  0.00  0.00    +0.000 A 
ATOM     29  N   UNL     1      43.691   2.615  10.759  0.00  0.00    +0.000 NA
ATOM     30  C   UNL     1      43.307   2.513  11.988  0.00  0.00    +0.000 A 
ATOM     31  N   UNL     1      43.624   3.407  12.980  0.00  0.00    +0.000 N 
ATOM     32  C   UNL     1      44.412   4.510  12.767  0.00  0.00    +0.000 A 
ATOM     33  O   UNL     1      44.706   5.270  13.686  0.00  0.00    +0.000 OA
ATOM     34  C   UNL     1      44.859   4.680  11.398  0.00  0.00    +0.000 A 
ATOM     35  H   UNL     1      43.298   3.265  13.924  0.00  0.00    +0.000 HD
ENDBRANCH  22  25
ENDBRANCH  20  21
ENDBRANCH   4  20
TORSDOF 7
ENDMDL
MODEL 3
REMARK VINA RESULT:    -7.256      2.935      9.664
REMARK INTER + INTRA:         -11.460
REMARK INTER:                 -10.425
REMARK INTRA:                  -1.036
REMARK UNBOUND:                -1.236
REMARK  Name = 
REMARK  7 active torsions:
REMARK  status: ('A' for Active; 'I' for Inactive)
REMARK    1  A    between atoms: C_2  and  C_3
REMARK    2  A    between atoms: C_8  and  C_9
REMARK    3  A    between atoms: N_11  and  C_12
REMARK    4  A    between atoms: C_12  and  C_13
REMARK    5  A    between atoms: C_16  and  C_17
REMARK    6  A    between atoms: C_17  and  N_18
REMARK    7  A    between atoms: C_19  and  C_21
REMARK                            x       y       z     vdW  Elec       q    Type
REMARK                         _______ _______ _______ _____ _____    ______ ____
ROOT
ATOM      1  C   UNL     1      47.443   5.717  14.533  0.00  0.00    +0.000 A 
ATOM      2  C   UNL     1      48.345   6.227  15.477  0.00  0.00    +0.000 A 
ATOM      3  C   UNL     1      48.650   5.506  16.638  0.00  0.00    +0.000 A 
ATOM      4  C   UNL     1      48.083   4.247  16.869  0.00  0.00    +0.000 A 
ATOM      5  C   UNL     1      47.178   3.738  15.927  0.00  0.00    +0.000 A 
ATOM      6  C   UNL     1      46.867   4.461  14.768  0.00  0.00    +0.000 A 
ENDROOT
BRANCH   1   7
ATOM      7  C   UNL     1      47.103   6.508  13.294  0.00  0.00    +0.000 C 
BRANCH   7  10
ATOM      8  C   UNL     1      45.566   5.626  11.582  0.00  0.00    +0.000 C 
ATOM      9  O   UNL     1      44.640   6.339  11.958  0.00  0.00    +0.000 OA
ATOM     10  N   UNL     1      46.815   5.654  12.159  0.00  0.00    +0.000 N 
ATOM     11  H   UNL     1      47.597   5.158  11.756  0.00  0.00    +0.000 HD
BRANCH   8  17
ATOM     12  C   UNL     1      44.554   3.538  10.470  0.00  0.00    +0.000 A 
ATOM     13  C   UNL     1      44.330   2.808   9.287  0.00  0.00    +0.000 A 
ATOM     14  C   UNL     1      44.872   3.231   8.074  0.00  0.00    +0.000 A 
ATOM     15  C   UNL     1      45.646   4.385   8.027  0.00  0.00    +0.000 A 
ATOM     16  C   UNL     1      45.865   5.122   9.193  0.00  0.00    +0.000 A 
ATOM     17  C   UNL     1      45.331   4.709  10.426  0.00  0.00    +0.000 A 
BRANCH  12  19
ATOM     18  N   UNL     1      43.486   2.591  12.632  0.00  0.00    +0.000 NA
ATOM     19  C   UNL     1      43.955   3.045  11.673  0.00  0.00    +0.000 C 
ENDBRANCH  12  19
ENDBRANCH   8  17
ENDBRANCH   7  10
ENDBRANCH   1   7
BRANCH   4  20
ATOM     20  C   UNL     1      48.416   3.465  18.115  0.00  0.00    +0.000 C 
BRANCH  20  21
ATOM     21  N   UNL     1      49.832   3.216  18.228  0.00  0.00    +0.000 N 
ATOM     22  C   UNL     1      50.464   2.313  17.411  0.00  0.00    +0.000 C 
ATOM     23  O   UNL     1      49.868   1.712  16.521  0.00  0.00    +0.000 OA
ATOM     24  H   UNL     1      50.287   3.523  19.082  0.00  0.00    +0.000 HD
BRANCH  22  25
ATOM     25  C   UNL     1      51.911   2.144  17.610  0.00  0.00    +0.000 A 
ATOM     26  C   UNL     1      52.448   0.867  17.714  0.00  0.00    +0.000 A 
ATOM     27  S   UNL     1      54.144   0.850  17.894  0.00  0.00    +0.000 S 
ATOM     28  C   UNL     1      54.217   2.549  17.891  0.00  0.00    +0.000 A 
ATOM     29  N   UNL     1      55.403   3.199  18.036  0.00  0.00    +0.000 NA
ATOM     30  C   UNL     1      55.309   4.487  18.045  0.00  0.00    +0.000 A 
ATOM     31  N   UNL     1      54.134   5.183  17.914  0.00  0.00    +0.000 N 
ATOM     32  C   UNL     1      52.919   4.571  17.737  0.00  0.00    +0.000 A 
ATOM     33  O   UNL     1      51.891   5.227  17.587  0.00  0.00    +0.000 OA
ATOM     34  C   UNL     1      52.965   3.122  17.734  0.00  0.00    +0.000 A 
ATOM     35  H   UNL     1      54.130   6.192  17.921  0.00  0.00    +0.000 HD
ENDBRANCH  22  25
ENDBRANCH  20  21
ENDBRANCH   4  20
TORSDOF 7
ENDMDL
MODEL 4
REMARK VINA RESULT:    -7.043      3.349      5.235
REMARK INTER + INTRA:         -11.160
REMARK INTER:                 -10.365
REMARK INTRA:                  -0.795
REMARK UNBOUND:                -1.236
REMARK  Name = 
REMARK  7 active torsions:
REMARK  status: ('A' for Active; 'I' for Inactive)
REMARK    1  A    between atoms: C_2  and  C_3
REMARK    2  A    between atoms: C_8  and  C_9
REMARK    3  A    between atoms: N_11  and  C_12
REMARK    4  A    between atoms: C_12  and  C_13
REMARK    5  A    between atoms: C_16  and  C_17
REMARK    6  A    between atoms: C_17  and  N_18
REMARK    7  A    between atoms: C_19  and  C_21
REMARK                            x       y       z     vdW  Elec       q    Type
REMARK                         _______ _______ _______ _____ _____    ______ ____
ROOT
ATOM      1  C   UNL     1      51.523   2.860  17.736  0.00  0.00    +0.000 A 
ATOM      2  C   UNL     1      50.739   1.866  17.134  0.00  0.00    +0.000 A 
ATOM      3  C   UNL     1      49.378   2.079  16.889  0.00  0.00    +0.000 A 
ATOM      4  C   UNL     1      48.774   3.300  17.214  0.00  0.00    +0.000 A 
ATOM      5  C   UNL     1      49.557   4.293  17.820  0.00  0.00    +0.000 A 
ATOM      6  C   UNL     1      50.918   4.079  18.071  0.00  0.00    +0.000 A 
ENDROOT
BRANCH   1   7
ATOM      7  C   UNL     1      52.986   2.615  18.016  0.00  0.00    +0.000 C 
BRANCH   7  10
ATOM      8  C   UNL     1      54.222   0.497  18.257  0.00  0.00    +0.000 C 
ATOM      9  O   UNL     1      54.552   0.751  19.413  0.00  0.00    +0.000 OA
ATOM     10  N   UNL     1      53.438   1.338  17.501  0.00  0.00    +0.000 N 
ATOM     11  H   UNL     1      53.071   1.056  16.603  0.00  0.00    +0.000 HD
BRANCH   8  17
ATOM     12  C   UNL     1      54.437  -2.067  18.220  0.00  0.00    +0.000 A 
ATOM     13  C   UNL     1      54.825  -3.219  17.510  0.00  0.00    +0.000 A 
ATOM     14  C   UNL     1      55.440  -3.117  16.262  0.00  0.00    +0.000 A 
ATOM     15  C   UNL     1      55.675  -1.864  15.709  0.00  0.00    +0.000 A 
ATOM     16  C   UNL     1      55.285  -0.714  16.399  0.00  0.00    +0.000 A 
ATOM     17  C   UNL     1      54.669  -0.797  17.660  0.00  0.00    +0.000 A 
BRANCH  12  19
ATOM     18  N   UNL     1      53.318  -2.357  20.537  0.00  0.00    +0.000 NA
ATOM     19  C   UNL     1      53.803  -2.254  19.489  0.00  0.00    +0.000 C 
ENDBRANCH  12  19
ENDBRANCH   8  17
ENDBRANCH   7  10
ENDBRANCH   1   7
BRANCH   4  20
ATOM     20  C   UNL     1      47.309   3.535  16.945  0.00  0.00    +0.000 C 
BRANCH  20  21
ATOM     21  N   UNL     1      47.105   4.567  15.959  0.00  0.00    +0.000 N 
ATOM     22  C   UNL     1      47.125   4.286  14.616  0.00  0.00    +0.000 C 
ATOM     23  O   UNL     1      47.272   3.141  14.194  0.00  0.00    +0.000 OA
ATOM     24  H   UNL     1      47.207   5.528  16.270  0.00  0.00    +0.000 HD
BRANCH  22  25
ATOM     25  C   UNL     1      46.899   5.414  13.701  0.00  0.00    +0.000 A 
ATOM     26  C   UNL     1      47.930   6.307  13.440  0.00  0.00    +0.000 A 
ATOM     27  S   UNL     1      47.514   7.527  12.323  0.00  0.00    +0.000 S 
ATOM     28  C   UNL     1      45.924   6.936  12.187  0.00  0.00    +0.000 A 
ATOM     29  N   UNL     1      45.014   7.555  11.388  0.00  0.00    +0.000 NA
ATOM     30  C   UNL     1      43.840   7.018  11.401  0.00  0.00    +0.000 A 
ATOM     31  N   UNL     1      43.496   5.913  12.138  0.00  0.00    +0.000 N 
ATOM     32  C   UNL     1      44.388   5.241  12.935  0.00  0.00    +0.000 A 
ATOM     33  O   UNL     1      44.055   4.233  13.554  0.00  0.00    +0.000 OA
ATOM     34  C   UNL     1      45.721   5.811  12.968  0.00  0.00    +0.000 A 
ATOM     35  H   UNL     1      42.560   5.538  12.098  0.00  0.00    +0.000 HD
ENDBRANCH  22  25
ENDBRANCH  20  21
ENDBRANCH   4  20
TORSDOF 7
ENDMDL
MODEL 5
REMARK VINA RESULT:    -6.729      2.857      9.078
REMARK INTER + INTRA:         -10.718
REMARK INTER:                  -9.554
REMARK INTRA:                  -1.164
REMARK UNBOUND:                -1.236
REMARK  Name = 
REMARK  7 active torsions:
REMARK  status: ('A' for Active; 'I' for Inactive)
REMARK    1  A    between atoms: C_2  and  C_3
REMARK    2  A    between atoms: C_8  and  C_9
REMARK    3  A    between atoms: N_11  and  C_12
REMARK    4  A    between atoms: C_12  and  C_13
REMARK    5  A    between atoms: C_16  and  C_17
REMARK    6  A    between atoms: C_17  and  N_18
REMARK    7  A    between atoms: C_19  and  C_21
REMARK                            x       y       z     vdW  Elec       q    Type
REMARK                         _______ _______ _______ _____ _____    ______ ____
ROOT
ATOM      1  C   UNL     1      47.763   7.846  13.347  0.00  0.00    +0.000 A 
ATOM      2  C   UNL     1      48.155   6.608  13.875  0.00  0.00    +0.000 A 
ATOM      3  C   UNL     1      48.630   6.508  15.188  0.00  0.00    +0.000 A 
ATOM      4  C   UNL     1      48.697   7.638  16.013  0.00  0.00    +0.000 A 
ATOM      5  C   UNL     1      48.309   8.877  15.484  0.00  0.00    +0.000 A 
ATOM      6  C   UNL     1      47.839   8.979  14.168  0.00  0.00    +0.000 A 
ENDROOT
BRANCH   1   7
ATOM      7  C   UNL     1      47.271   7.949  11.924  0.00  0.00    +0.000 C 
BRANCH   7  10
ATOM      8  C   UNL     1      45.551   6.420  11.041  0.00  0.00    +0.000 C 
ATOM      9  O   UNL     1      44.669   7.271  11.120  0.00  0.00    +0.000 OA
ATOM     10  N   UNL     1      46.860   6.666  11.390  0.00  0.00    +0.000 N 
ATOM     11  H   UNL     1      47.594   5.999  11.199  0.00  0.00    +0.000 HD
BRANCH   8  17
ATOM     12  C   UNL     1      44.462   4.097  11.221  0.00  0.00    +0.000 A 
ATOM     13  C   UNL     1      44.103   2.897  10.579  0.00  0.00    +0.000 A 
ATOM     14  C   UNL     1      44.465   2.659   9.253  0.00  0.00    +0.000 A 
ATOM     15  C   UNL     1      45.191   3.617   8.554  0.00  0.00    +0.000 A 
ATOM     16  C   UNL     1      45.543   4.815   9.178  0.00  0.00    +0.000 A 
ATOM     17  C   UNL     1      45.191   5.070  10.515  0.00  0.00    +0.000 A 
BRANCH  12  19
ATOM     18  N   UNL     1      43.719   4.354  13.689  0.00  0.00    +0.000 NA
ATOM     19  C   UNL     1      44.044   4.271  12.579  0.00  0.00    +0.000 C 
ENDBRANCH  12  19
ENDBRANCH   8  17
ENDBRANCH   7  10
ENDBRANCH   1   7
BRANCH   4  20
ATOM     20  C   UNL     1      49.202   7.532  17.431  0.00  0.00    +0.000 C 
BRANCH  20  21
ATOM     21  N   UNL     1      50.181   6.483  17.573  0.00  0.00    +0.000 N 
ATOM     22  C   UNL     1      50.393   5.864  18.779  0.00  0.00    +0.000 C 
ATOM     23  O   UNL     1      49.733   6.140  19.777  0.00  0.00    +0.000 OA
ATOM     24  H   UNL     1      50.876   6.399  16.838  0.00  0.00    +0.000 HD
BRANCH  22  25
ATOM     25  C   UNL     1      51.411   4.804  18.806  0.00  0.00    +0.000 A 
ATOM     26  C   UNL     1      52.608   5.013  19.479  0.00  0.00    +0.000 A 
ATOM     27  S   UNL     1      53.655   3.667  19.453  0.00  0.00    +0.000 S 
ATOM     28  C   UNL     1      52.568   2.772  18.497  0.00  0.00    +0.000 A 
ATOM     29  N   UNL     1      52.872   1.511  18.087  0.00  0.00    +0.000 NA
ATOM     30  C   UNL     1      51.972   0.960  17.344  0.00  0.00    +0.000 A 
ATOM     31  N   UNL     1      50.790   1.555  16.980  0.00  0.00    +0.000 N 
ATOM     32  C   UNL     1      50.430   2.813  17.393  0.00  0.00    +0.000 A 
ATOM     33  O   UNL     1      49.348   3.301  17.077  0.00  0.00    +0.000 OA
ATOM     34  C   UNL     1      51.413   3.485  18.220  0.00  0.00    +0.000 A 
ATOM     35  H   UNL     1      50.124   1.066  16.402  0.00  0.00    +0.000 HD
ENDBRANCH  22  25
ENDBRANCH  20  21
ENDBRANCH   4  20
TORSDOF 7
ENDMDL
MODEL 6
REMARK VINA RESULT:    -6.680      5.725      9.040
REMARK INTER + INTRA:         -10.649
REMARK INTER:                  -9.604
REMARK INTRA:                  -1.044
REMARK UNBOUND:                -1.236
REMARK  Name = 
REMARK  7 active torsions:
REMARK  status: ('A' for Active; 'I' for Inactive)
REMARK    1  A    between atoms: C_2  and  C_3
REMARK    2  A    between atoms: C_8  and  C_9
REMARK    3  A    between atoms: N_11  and  C_12
REMARK    4  A    between atoms: C_12  and  C_13
REMARK    5  A    between atoms: C_16  and  C_17
REMARK    6  A    between atoms: C_17  and  N_18
REMARK    7  A    between atoms: C_19  and  C_21
REMARK                            x       y       z     vdW  Elec       q    Type
REMARK                         _______ _______ _______ _____ _____    ______ ____
ROOT
ATOM      1  C   UNL     1      48.236   8.108  12.166  0.00  0.00    +0.000 A 
ATOM      2  C   UNL     1      48.246   9.471  11.842  0.00  0.00    +0.000 A 
ATOM      3  C   UNL     1      49.426  10.101  11.430  0.00  0.00    +0.000 A 
ATOM      4  C   UNL     1      50.618   9.377  11.306  0.00  0.00    +0.000 A 
ATOM      5  C   UNL     1      50.610   8.014  11.634  0.00  0.00    +0.000 A 
ATOM      6  C   UNL     1      49.431   7.384  12.052  0.00  0.00    +0.000 A 
ENDROOT
BRANCH   1   7
ATOM      7  C   UNL     1      46.965   7.440  12.629  0.00  0.00    +0.000 C 
BRANCH   7  10
ATOM      8  C   UNL     1      45.456   6.147  11.170  0.00  0.00    +0.000 C 
ATOM      9  O   UNL     1      44.614   7.041  11.148  0.00  0.00    +0.000 OA
ATOM     10  N   UNL     1      46.648   6.260  11.849  0.00  0.00    +0.000 N 
ATOM     11  H   UNL     1      47.381   5.572  11.752  0.00  0.00    +0.000 HD
BRANCH   8  17
ATOM     12  C   UNL     1      44.496   3.776  10.899  0.00  0.00    +0.000 A 
ATOM     13  C   UNL     1      44.220   2.694  10.042  0.00  0.00    +0.000 A 
ATOM     14  C   UNL     1      44.626   2.717   8.708  0.00  0.00    +0.000 A 
ATOM     15  C   UNL     1      45.313   3.820   8.214  0.00  0.00    +0.000 A 
ATOM     16  C   UNL     1      45.582   4.904   9.053  0.00  0.00    +0.000 A 
ATOM     17  C   UNL     1      45.185   4.897  10.401  0.00  0.00    +0.000 A 
BRANCH  12  19
ATOM     18  N   UNL     1      43.613   3.586  13.327  0.00  0.00    +0.000 NA
ATOM     19  C   UNL     1      44.038   3.682  12.251  0.00  0.00    +0.000 C 
ENDBRANCH  12  19
ENDBRANCH   8  17
ENDBRANCH   7  10
ENDBRANCH   1   7
BRANCH   4  20
ATOM     20  C   UNL     1      51.890  10.052  10.855  0.00  0.00    +0.000 C 
BRANCH  20  21
ATOM     21  N   UNL     1      52.409   9.461   9.646  0.00  0.00    +0.000 N 
ATOM     22  C   UNL     1      53.608   8.792   9.636  0.00  0.00    +0.000 C 
ATOM     23  O   UNL     1      54.268   8.627  10.659  0.00  0.00    +0.000 OA
ATOM     24  H   UNL     1      52.003   9.774   8.770  0.00  0.00    +0.000 HD
BRANCH  22  25
ATOM     25  C   UNL     1      54.036   8.226   8.350  0.00  0.00    +0.000 A 
ATOM     26  C   UNL     1      54.489   9.067   7.342  0.00  0.00    +0.000 A 
ATOM     27  S   UNL     1      54.991   8.244   5.935  0.00  0.00    +0.000 S 
ATOM     28  C   UNL     1      54.573   6.736   6.602  0.00  0.00    +0.000 A 
ATOM     29  N   UNL     1      54.731   5.588   5.890  0.00  0.00    +0.000 NA
ATOM     30  C   UNL     1      54.346   4.520   6.506  0.00  0.00    +0.000 A 
ATOM     31  N   UNL     1      53.823   4.497   7.774  0.00  0.00    +0.000 N 
ATOM     32  C   UNL     1      53.672   5.626   8.539  0.00  0.00    +0.000 A 
ATOM     33  O   UNL     1      53.233   5.565   9.685  0.00  0.00    +0.000 OA
ATOM     34  C   UNL     1      54.076   6.858   7.889  0.00  0.00    +0.000 A 
ATOM     35  H   UNL     1      53.548   3.627   8.203  0.00  0.00    +0.000 HD
ENDBRANCH  22  25
ENDBRANCH  20  21
ENDBRANCH   4  20
TORSDOF 7
ENDMDL
MODEL 7
REMARK VINA RESULT:    -6.448      3.461      5.438
REMARK INTER + INTRA:         -10.323
REMARK INTER:                  -9.412
REMARK INTRA:                  -0.911
REMARK UNBOUND:                -1.236
REMARK  Name = 
REMARK  7 active torsions:
REMARK  status: ('A' for Active; 'I' for Inactive)
REMARK    1  A    between atoms: C_2  and  C_3
REMARK    2  A    between atoms: C_8  and  C_9
REMARK    3  A    between atoms: N_11  and  C_12
REMARK    4  A    between atoms: C_12  and  C_13
REMARK    5  A    between atoms: C_16  and  C_17
REMARK    6  A    between atoms: C_17  and  N_18
REMARK    7  A    between atoms: C_19  and  C_21
REMARK                            x       y       z     vdW  Elec       q    Type
REMARK                         _______ _______ _______ _____ _____    ______ ____
ROOT
ATOM      1  C   UNL     1      46.232   7.338  12.853  0.00  0.00    +0.000 A 
ATOM      2  C   UNL     1      45.030   7.359  12.134  0.00  0.00    +0.000 A 
ATOM      3  C   UNL     1      44.366   6.170  11.814  0.00  0.00    +0.000 A 
ATOM      4  C   UNL     1      44.874   4.932  12.229  0.00  0.00    +0.000 A 
ATOM      5  C   UNL     1      46.079   4.910  12.946  0.00  0.00    +0.000 A 
ATOM      6  C   UNL     1      46.747   6.100  13.261  0.00  0.00    +0.000 A 
ENDROOT
BRANCH   1   7
ATOM      7  C   UNL     1      46.953   8.624  13.177  0.00  0.00    +0.000 C 
BRANCH   7  10
ATOM      8  C   UNL     1      48.413   8.641  15.163  0.00  0.00    +0.000 C 
ATOM      9  O   UNL     1      49.418   8.399  14.501  0.00  0.00    +0.000 OA
ATOM     10  N   UNL     1      47.165   8.791  14.601  0.00  0.00    +0.000 N 
ATOM     11  H   UNL     1      46.376   9.116  15.141  0.00  0.00    +0.000 HD
BRANCH   8  17
ATOM     12  C   UNL     1      49.067   7.833  17.516  0.00  0.00    +0.000 A 
ATOM     13  C   UNL     1      49.244   8.147  18.877  0.00  0.00    +0.000 A 
ATOM     14  C   UNL     1      48.918   9.412  19.367  0.00  0.00    +0.000 A 
ATOM     15  C   UNL     1      48.410  10.377  18.504  0.00  0.00    +0.000 A 
ATOM     16  C   UNL     1      48.240  10.078  17.151  0.00  0.00    +0.000 A 
ATOM     17  C   UNL     1      48.558   8.809  16.640  0.00  0.00    +0.000 A 
BRANCH  12  19
ATOM     18  N   UNL     1      49.789   5.468  16.745  0.00  0.00    +0.000 NA
ATOM     19  C   UNL     1      49.434   6.518  17.089  0.00  0.00    +0.000 C 
ENDBRANCH  12  19
ENDBRANCH   8  17
ENDBRANCH   7  10
ENDBRANCH   1   7
BRANCH   4  20
ATOM     20  C   UNL     1      44.156   3.649  11.892  0.00  0.00    +0.000 C 
BRANCH  20  21
ATOM     21  N   UNL     1      44.891   2.861  10.933  0.00  0.00    +0.000 N 
ATOM     22  C   UNL     1      44.687   3.009   9.584  0.00  0.00    +0.000 C 
ATOM     23  O   UNL     1      43.909   3.844   9.131  0.00  0.00    +0.000 OA
ATOM     24  H   UNL     1      45.358   2.030  11.280  0.00  0.00    +0.000 HD
BRANCH  22  25
ATOM     25  C   UNL     1      45.496   2.159   8.697  0.00  0.00    +0.000 A 
ATOM     26  C   UNL     1      45.386   0.777   8.779  0.00  0.00    +0.000 A 
ATOM     27  S   UNL     1      46.356  -0.055   7.649  0.00  0.00    +0.000 S 
ATOM     28  C   UNL     1      46.997   1.400   7.045  0.00  0.00    +0.000 A 
ATOM     29  N   UNL     1      47.928   1.396   6.053  0.00  0.00    +0.000 NA
ATOM     30  C   UNL     1      48.349   2.568   5.711  0.00  0.00    +0.000 A 
ATOM     31  N   UNL     1      47.917   3.745   6.268  0.00  0.00    +0.000 N 
ATOM     32  C   UNL     1      46.960   3.798   7.251  0.00  0.00    +0.000 A 
ATOM     33  O   UNL     1      46.570   4.872   7.702  0.00  0.00    +0.000 OA
ATOM     34  C   UNL     1      46.462   2.507   7.683  0.00  0.00    +0.000 A 
ATOM     35  H   UNL     1      48.281   4.630   5.950  0.00  0.00    +0.000 HD
ENDBRANCH  22  25
ENDBRANCH  20  21
ENDBRANCH   4  20
TORSDOF 7
ENDMDL
MODEL 8
REMARK VINA RESULT:    -6.386      3.122      9.354
REMARK INTER + INTRA:         -10.235
REMARK INTER:                  -9.284
REMARK INTRA:                  -0.951
REMARK UNBOUND:                -1.236
REMARK  Name = 
REMARK  7 active torsions:
REMARK  status: ('A' for Active; 'I' for Inactive)
REMARK    1  A    between atoms: C_2  and  C_3
REMARK    2  A    between atoms: C_8  and  C_9
REMARK    3  A    between atoms: N_11  and  C_12
REMARK    4  A    between atoms: C_12  and  C_13
REMARK    5  A    between atoms: C_16  and  C_17
REMARK    6  A    between atoms: C_17  and  N_18
REMARK    7  A    between atoms: C_19  and  C_21
REMARK                            x       y       z     vdW  Elec       q    Type
REMARK                         _______ _______ _______ _____ _____    ______ ____
ROOT
ATOM      1  C   UNL     1      47.975   7.927  12.532  0.00  0.00    +0.000 A 
ATOM      2  C   UNL     1      49.006   7.716  11.606  0.00  0.00    +0.000 A 
ATOM      3  C   UNL     1      50.335   8.000  11.939  0.00  0.00    +0.000 A 
ATOM      4  C   UNL     1      50.668   8.477  13.213  0.00  0.00    +0.000 A 
ATOM      5  C   UNL     1      49.637   8.692  14.137  0.00  0.00    +0.000 A 
ATOM      6  C   UNL     1      48.305   8.413  13.804  0.00  0.00    +0.000 A 
ENDROOT
BRANCH   1   7
ATOM      7  C   UNL     1      46.541   7.637  12.159  0.00  0.00    +0.000 C 
BRANCH   7  10
ATOM      8  C   UNL     1      45.184   5.933  11.006  0.00  0.00    +0.000 C 
ATOM      9  O   UNL     1      44.127   6.461  11.342  0.00  0.00    +0.000 OA
ATOM     10  N   UNL     1      46.416   6.449  11.339  0.00  0.00    +0.000 N 
ATOM     11  H   UNL     1      47.270   6.076  10.949  0.00  0.00    +0.000 HD
BRANCH   8  17
ATOM     12  C   UNL     1      44.570   3.470  10.587  0.00  0.00    +0.000 A 
ATOM     13  C   UNL     1      44.490   2.402   9.674  0.00  0.00    +0.000 A 
ATOM     14  C   UNL     1      44.958   2.541   8.368  0.00  0.00    +0.000 A 
ATOM     15  C   UNL     1      45.514   3.748   7.958  0.00  0.00    +0.000 A 
ATOM     16  C   UNL     1      45.589   4.817   8.853  0.00  0.00    +0.000 A 
ATOM     17  C   UNL     1      45.127   4.695  10.174  0.00  0.00    +0.000 A 
BRANCH  12  19
ATOM     18  N   UNL     1      43.671   3.127  12.992  0.00  0.00    +0.000 NA
ATOM     19  C   UNL     1      44.059   3.253  11.905  0.00  0.00    +0.000 C 
ENDBRANCH  12  19
ENDBRANCH   8  17
ENDBRANCH   7  10
ENDBRANCH   1   7
BRANCH   4  20
ATOM     20  C   UNL     1      52.101   8.778  13.576  0.00  0.00    +0.000 C 
BRANCH  20  21
ATOM     21  N   UNL     1      52.692   7.714  14.351  0.00  0.00    +0.000 N 
ATOM     22  C   UNL     1      52.895   7.843  15.702  0.00  0.00    +0.000 C 
ATOM     23  O   UNL     1      52.546   8.846  16.319  0.00  0.00    +0.000 OA
ATOM     24  H   UNL     1      53.182   6.989  13.837  0.00  0.00    +0.000 HD
BRANCH  22  25
ATOM     25  C   UNL     1      53.498   6.693  16.391  0.00  0.00    +0.000 A 
ATOM     26  C   UNL     1      54.877   6.618  16.530  0.00  0.00    +0.000 A 
ATOM     27  S   UNL     1      55.406   5.246  17.395  0.00  0.00    +0.000 S 
ATOM     28  C   UNL     1      53.813   4.675  17.570  0.00  0.00    +0.000 A 
ATOM     29  N   UNL     1      53.556   3.502  18.209  0.00  0.00    +0.000 NA
ATOM     30  C   UNL     1      52.307   3.175  18.244  0.00  0.00    +0.000 A 
ATOM     31  N   UNL     1      51.291   3.921  17.702  0.00  0.00    +0.000 N 
ATOM     32  C   UNL     1      51.500   5.122  17.074  0.00  0.00    +0.000 A 
ATOM     33  O   UNL     1      50.562   5.782  16.631  0.00  0.00    +0.000 OA
ATOM     34  C   UNL     1      52.889   5.532  16.994  0.00  0.00    +0.000 A 
ATOM     35  H   UNL     1      50.333   3.613  17.770  0.00  0.00    +0.000 HD
ENDBRANCH  22  25
ENDBRANCH  20  21
ENDBRANCH   4  20
TORSDOF 7
ENDMDL
MODEL 9
REMARK VINA RESULT:    -6.239      3.854      9.211
REMARK INTER + INTRA:         -10.028
REMARK INTER:                  -9.612
REMARK INTRA:                  -0.416
REMARK UNBOUND:                -1.236
REMARK  Name = 
REMARK  7 active torsions:
REMARK  status: ('A' for Active; 'I' for Inactive)
REMARK    1  A    between atoms: C_2  and  C_3
REMARK    2  A    between atoms: C_8  and  C_9
REMARK    3  A    between atoms: N_11  and  C_12
REMARK    4  A    between atoms: C_12  and  C_13
REMARK    5  A    between atoms: C_16  and  C_17
REMARK    6  A    between atoms: C_17  and  N_18
REMARK    7  A    between atoms: C_19  and  C_21
REMARK                            x       y       z     vdW  Elec       q    Type
REMARK                         _______ _______ _______ _____ _____    ______ ____
ROOT
ATOM      1  C   UNL     1      46.413   7.968  12.360  0.00  0.00    +0.000 A 
ATOM      2  C   UNL     1      46.516   8.796  13.487  0.00  0.00    +0.000 A 
ATOM      3  C   UNL     1      47.747   8.991  14.122  0.00  0.00    +0.000 A 
ATOM      4  C   UNL     1      48.911   8.384  13.631  0.00  0.00    +0.000 A 
ATOM      5  C   UNL     1      48.808   7.553  12.507  0.00  0.00    +0.000 A 
ATOM      6  C   UNL     1      47.575   7.353  11.873  0.00  0.00    +0.000 A 
ENDROOT
BRANCH   1   7
ATOM      7  C   UNL     1      45.078   7.746  11.692  0.00  0.00    +0.000 C 
BRANCH   7  10
ATOM      8  C   UNL     1      45.166   5.392  10.966  0.00  0.00    +0.000 C 
ATOM      9  O   UNL     1      45.092   4.972  12.118  0.00  0.00    +0.000 OA
ATOM     10  N   UNL     1      45.144   6.733  10.657  0.00  0.00    +0.000 N 
ATOM     11  H   UNL     1      45.075   7.056   9.703  0.00  0.00    +0.000 HD
BRANCH   8  17
ATOM     12  C   UNL     1      44.557   3.180   9.804  0.00  0.00    +0.000 A 
ATOM     13  C   UNL     1      44.649   2.375   8.652  0.00  0.00    +0.000 A 
ATOM     14  C   UNL     1      45.423   2.772   7.562  0.00  0.00    +0.000 A 
ATOM     15  C   UNL     1      46.116   3.976   7.610  0.00  0.00    +0.000 A 
ATOM     16  C   UNL     1      46.024   4.787   8.743  0.00  0.00    +0.000 A 
ATOM     17  C   UNL     1      45.253   4.402   9.852  0.00  0.00    +0.000 A 
BRANCH  12  19
ATOM     18  N   UNL     1      43.026   2.367  11.728  0.00  0.00    +0.000 NA
ATOM     19  C   UNL     1      43.735   2.709  10.876  0.00  0.00    +0.000 C 
ENDBRANCH  12  19
ENDBRANCH   8  17
ENDBRANCH   7  10
ENDBRANCH   1   7
BRANCH   4  20
ATOM     20  C   UNL     1      50.240   8.598  14.310  0.00  0.00    +0.000 C 
BRANCH  20  21
ATOM     21  N   UNL     1      50.132   8.494  15.745  0.00  0.00    +0.000 N 
ATOM     22  C   UNL     1      50.243   7.284  16.383  0.00  0.00    +0.000 C 
ATOM     23  O   UNL     1      50.484   6.246  15.771  0.00  0.00    +0.000 OA
ATOM     24  H   UNL     1      49.717   9.281  16.233  0.00  0.00    +0.000 HD
BRANCH  22  25
ATOM     25  C   UNL     1      50.122   7.297  17.847  0.00  0.00    +0.000 A 
ATOM     26  C   UNL     1      50.968   8.099  18.602  0.00  0.00    +0.000 A 
ATOM     27  S   UNL     1      50.662   8.031  20.279  0.00  0.00    +0.000 S 
ATOM     28  C   UNL     1      49.421   6.888  20.061  0.00  0.00    +0.000 A 
ATOM     29  N   UNL     1      48.745   6.379  21.126  0.00  0.00    +0.000 NA
ATOM     30  C   UNL     1      47.850   5.500  20.820  0.00  0.00    +0.000 A 
ATOM     31  N   UNL     1      47.566   5.089  19.542  0.00  0.00    +0.000 N 
ATOM     32  C   UNL     1      48.203   5.595  18.437  0.00  0.00    +0.000 A 
ATOM     33  O   UNL     1      47.899   5.231  17.303  0.00  0.00    +0.000 OA
ATOM     34  C   UNL     1      49.230   6.578  18.725  0.00  0.00    +0.000 A 
ATOM     35  H   UNL     1      46.848   4.402  19.369  0.00  0.00    +0.000 HD
ENDBRANCH  22  25
ENDBRANCH  20  21
ENDBRANCH   4  20
TORSDOF 7
ENDMDL
