MODEL 1
REMARK VINA RESULT:    -8.559      0.000      0.000
REMARK INTER + INTRA:         -11.662
REMARK INTER:                 -11.561
REMARK INTRA:                  -0.101
REMARK UNBOUND:                -0.101
REMARK  Name = 
REMARK  8 active torsions:
REMARK  status: ('A' for Active; 'I' for Inactive)
REMARK    1  A    between atoms: C_1  and  C_2
REMARK    2  A    between atoms: C_2  and  C_3
REMARK    3  A    between atoms: C_3  and  N_4
REMARK    4  A    between atoms: C_3  and  C_18
REMARK    5  A    between atoms: C_5  and  C_7
REMARK    6  A    between atoms: N_13  and  C_14
REMARK    7  A    between atoms: C_21  and  O_22
REMARK    8  A    between atoms: O_22  and  C_23
REMARK                            x       y       z     vdW  Elec       q    Type
REMARK                         _______ _______ _______ _____ _____    ______ ____
ROOT
ATOM      1  C   UNL     1      45.338   7.222  12.621  0.00  0.00    +0.000 C 
ENDROOT
BRANCH   1   2
ATOM      2  C   UNL     1      45.209   5.933  11.813  0.00  0.00    +0.000 A 
ATOM      3  C   UNL     1      45.394   5.987  10.422  0.00  0.00    +0.000 A 
ATOM      4  C   UNL     1      45.262   4.843   9.633  0.00  0.00    +0.000 A 
ATOM      5  C   UNL     1      44.977   3.610  10.221  0.00  0.00    +0.000 A 
ATOM      6  C   UNL     1      44.737   3.548  11.594  0.00  0.00    +0.000 A 
ATOM      7  C   UNL     1      44.845   4.702  12.383  0.00  0.00    +0.000 A 
BRANCH   5   8
ATOM      8  O   UNL     1      44.833   2.440   9.506  0.00  0.00    +0.000 OA
BRANCH   8   9
ATOM      9  C   UNL     1      45.667   2.235   8.410  0.00  0.00    +0.000 A 
ATOM     10  C   UNL     1      45.730   3.258   7.474  0.00  0.00    +0.000 A 
ATOM     11  C   UNL     1      46.571   3.095   6.375  0.00  0.00    +0.000 A 
ATOM     12  C   UNL     1      47.307   1.922   6.249  0.00  0.00    +0.000 A 
ATOM     13  C   UNL     1      47.160   0.946   7.219  0.00  0.00    +0.000 A 
ATOM     14  N   UNL     1      46.345   1.071   8.287  0.00  0.00    +0.000 NA
ENDBRANCH   8   9
ENDBRANCH   5   8
ENDBRANCH   1   2
BRANCH   1  15
ATOM     15  N   UNL     1      46.339   7.025  13.657  0.00  0.00    +0.000 N 
ATOM     16  C   UNL     1      47.682   6.912  13.390  0.00  0.00    +0.000 C 
ATOM     17  O   UNL     1      48.123   6.835  12.246  0.00  0.00    +0.000 OA
ATOM     18  H   UNL     1      46.052   7.268  14.598  0.00  0.00    +0.000 HD
BRANCH  16  19
ATOM     19  C   UNL     1      48.571   6.839  14.559  0.00  0.00    +0.000 A 
ATOM     20  C   UNL     1      49.547   7.806  14.761  0.00  0.00    +0.000 A 
ATOM     21  S   UNL     1      50.506   7.526  16.145  0.00  0.00    +0.000 S 
ATOM     22  C   UNL     1      49.610   6.140  16.556  0.00  0.00    +0.000 A 
ATOM     23  N   UNL     1      49.895   5.424  17.675  0.00  0.00    +0.000 NA
ATOM     24  C   UNL     1      49.099   4.427  17.891  0.00  0.00    +0.000 A 
ATOM     25  N   UNL     1      48.035   4.066  17.092  0.00  0.00    +0.000 N 
ATOM     26  C   UNL     1      47.178   2.953  17.439  0.00  0.00    +0.000 C 
ATOM     27  C   UNL     1      47.738   4.758  15.924  0.00  0.00    +0.000 A 
ATOM     28  O   UNL     1      46.825   4.427  15.176  0.00  0.00    +0.000 OA
ATOM     29  C   UNL     1      48.604   5.888  15.647  0.00  0.00    +0.000 A 
ENDBRANCH  16  19
ENDBRANCH   1  15
BRANCH   1  31
ATOM     30  C   UNL     1      44.856   9.697  12.221  0.00  0.00    +0.000 C 
ATOM     31  C   UNL     1      45.656   8.476  11.784  0.00  0.00    +0.000 C 
ENDBRANCH   1  31
TORSDOF 6
ENDMDL
MODEL 2
REMARK VINA RESULT:    -8.549      1.647      2.455
REMARK INTER + INTRA:         -11.649
REMARK INTER:                 -11.331
REMARK INTRA:                  -0.318
REMARK UNBOUND:                -0.101
REMARK  Name = 
REMARK  8 active torsions:
REMARK  status: ('A' for Active; 'I' for Inactive)
REMARK    1  A    between atoms: C_1  and  C_2
REMARK    2  A    between atoms: C_2  and  C_3
REMARK    3  A    between atoms: C_3  and  N_4
REMARK    4  A    between atoms: C_3  and  C_18
REMARK    5  A    between atoms: C_5  and  C_7
REMARK    6  A    between atoms: N_13  and  C_14
REMARK    7  A    between atoms: C_21  and  O_22
REMARK    8  A    between atoms: O_22  and  C_23
REMARK                            x       y       z     vdW  Elec       q    Type
REMARK                         _______ _______ _______ _____ _____    ______ ____
ROOT
ATOM      1  C   UNL     1      45.599   6.529  12.850  0.00  0.00    +0.000 C 
ENDROOT
BRANCH   1   2
ATOM      2  C   UNL     1      45.315   5.519  11.740  0.00  0.00    +0.000 A 
ATOM      3  C   UNL     1      44.771   4.272  12.087  0.00  0.00    +0.000 A 
ATOM      4  C   UNL     1      44.516   3.302  11.115  0.00  0.00    +0.000 A 
ATOM      5  C   UNL     1      44.767   3.570   9.768  0.00  0.00    +0.000 A 
ATOM      6  C   UNL     1      45.357   4.783   9.413  0.00  0.00    +0.000 A 
ATOM      7  C   UNL     1      45.637   5.747  10.392  0.00  0.00    +0.000 A 
BRANCH   5   8
ATOM      8  O   UNL     1      44.540   2.663   8.756  0.00  0.00    +0.000 OA
BRANCH   8   9
ATOM      9  C   UNL     1      45.604   2.331   7.922  0.00  0.00    +0.000 A 
ATOM     10  C   UNL     1      45.841   3.177   6.847  0.00  0.00    +0.000 A 
ATOM     11  C   UNL     1      46.911   2.887   6.003  0.00  0.00    +0.000 A 
ATOM     12  C   UNL     1      47.696   1.768   6.258  0.00  0.00    +0.000 A 
ATOM     13  C   UNL     1      47.368   0.968   7.339  0.00  0.00    +0.000 A 
ATOM     14  N   UNL     1      46.331   1.217   8.166  0.00  0.00    +0.000 NA
ENDBRANCH   8   9
ENDBRANCH   5   8
ENDBRANCH   1   2
BRANCH   1  15
ATOM     15  N   UNL     1      46.075   5.811  14.021  0.00  0.00    +0.000 N 
ATOM     16  C   UNL     1      47.384   5.430  14.186  0.00  0.00    +0.000 C 
ATOM     17  O   UNL     1      48.223   5.550  13.298  0.00  0.00    +0.000 OA
ATOM     18  H   UNL     1      45.479   5.860  14.840  0.00  0.00    +0.000 HD
BRANCH  16  19
ATOM     19  C   UNL     1      47.723   4.822  15.482  0.00  0.00    +0.000 A 
ATOM     20  C   UNL     1      47.470   3.477  15.714  0.00  0.00    +0.000 A 
ATOM     21  S   UNL     1      47.890   2.966  17.288  0.00  0.00    +0.000 S 
ATOM     22  C   UNL     1      48.483   4.509  17.691  0.00  0.00    +0.000 A 
ATOM     23  N   UNL     1      49.027   4.757  18.911  0.00  0.00    +0.000 NA
ATOM     24  C   UNL     1      49.485   5.958  19.060  0.00  0.00    +0.000 A 
ATOM     25  N   UNL     1      49.452   6.951  18.103  0.00  0.00    +0.000 N 
ATOM     26  C   UNL     1      50.025   8.256  18.354  0.00  0.00    +0.000 C 
ATOM     27  C   UNL     1      48.873   6.738  16.858  0.00  0.00    +0.000 A 
ATOM     28  O   UNL     1      48.793   7.619  16.009  0.00  0.00    +0.000 OA
ATOM     29  C   UNL     1      48.352   5.401  16.647  0.00  0.00    +0.000 A 
ENDBRANCH  16  19
ENDBRANCH   1  15
BRANCH   1  31
ATOM     30  C   UNL     1      46.368   8.926  13.272  0.00  0.00    +0.000 C 
ATOM     31  C   UNL     1      46.578   7.653  12.461  0.00  0.00    +0.000 C 
ENDBRANCH   1  31
TORSDOF 6
ENDMDL
MODEL 3
REMARK VINA RESULT:    -8.219      1.724      2.257
REMARK INTER + INTRA:         -11.203
REMARK INTER:                  -9.634
REMARK INTRA:                  -1.569
REMARK UNBOUND:                -0.101
REMARK  Name = 
REMARK  8 active torsions:
REMARK  status: ('A' for Active; 'I' for Inactive)
REMARK    1  A    between atoms: C_1  and  C_2
REMARK    2  A    between atoms: C_2  and  C_3
REMARK    3  A    between atoms: C_3  and  N_4
REMARK    4  A    between atoms: C_3  and  C_18
REMARK    5  A    between atoms: C_5  and  C_7
REMARK    6  A    between atoms: N_13  and  C_14
REMARK    7  A    between atoms: C_21  and  O_22
REMARK    8  A    between atoms: O_22  and  C_23
REMARK                            x       y       z     vdW  Elec       q    Type
REMARK                         _______ _______ _______ _____ _____    ______ ____
ROOT
ATOM      1  C   UNL     1      47.198   8.342  13.612  0.00  0.00    +0.000 C 
ENDROOT
BRANCH   1   2
ATOM      2  C   UNL     1      46.390   7.308  12.830  0.00  0.00    +0.000 A 
ATOM      3  C   UNL     1      45.280   7.742  12.087  0.00  0.00    +0.000 A 
ATOM      4  C   UNL     1      44.492   6.835  11.375  0.00  0.00    +0.000 A 
ATOM      5  C   UNL     1      44.817   5.478  11.360  0.00  0.00    +0.000 A 
ATOM      6  C   UNL     1      45.883   5.024  12.135  0.00  0.00    +0.000 A 
ATOM      7  C   UNL     1      46.660   5.930  12.871  0.00  0.00    +0.000 A 
BRANCH   5   8
ATOM      8  O   UNL     1      44.086   4.528  10.680  0.00  0.00    +0.000 OA
BRANCH   8   9
ATOM      9  C   UNL     1      44.734   3.776   9.704  0.00  0.00    +0.000 A 
ATOM     10  C   UNL     1      45.377   4.483   8.697  0.00  0.00    +0.000 A 
ATOM     11  C   UNL     1      46.055   3.764   7.715  0.00  0.00    +0.000 A 
ATOM     12  C   UNL     1      46.060   2.374   7.770  0.00  0.00    +0.000 A 
ATOM     13  C   UNL     1      45.369   1.755   8.798  0.00  0.00    +0.000 A 
ATOM     14  N   UNL     1      44.695   2.425   9.755  0.00  0.00    +0.000 NA
ENDBRANCH   8   9
ENDBRANCH   5   8
ENDBRANCH   1   2
BRANCH   1  15
ATOM     15  N   UNL     1      48.292   7.663  14.288  0.00  0.00    +0.000 N 
ATOM     16  C   UNL     1      48.771   8.050  15.515  0.00  0.00    +0.000 C 
ATOM     17  O   UNL     1      48.399   9.079  16.074  0.00  0.00    +0.000 OA
ATOM     18  H   UNL     1      48.493   6.723  13.964  0.00  0.00    +0.000 HD
BRANCH  16  19
ATOM     19  C   UNL     1      49.797   7.183  16.113  0.00  0.00    +0.000 A 
ATOM     20  C   UNL     1      51.090   7.653  16.302  0.00  0.00    +0.000 A 
ATOM     21  S   UNL     1      52.147   6.488  16.966  0.00  0.00    +0.000 S 
ATOM     22  C   UNL     1      50.899   5.338  17.082  0.00  0.00    +0.000 A 
ATOM     23  N   UNL     1      51.125   4.105  17.605  0.00  0.00    +0.000 NA
ATOM     24  C   UNL     1      50.074   3.354  17.680  0.00  0.00    +0.000 A 
ATOM     25  N   UNL     1      48.805   3.712  17.278  0.00  0.00    +0.000 N 
ATOM     26  C   UNL     1      47.683   2.811  17.438  0.00  0.00    +0.000 C 
ATOM     27  C   UNL     1      48.548   4.953  16.709  0.00  0.00    +0.000 A 
ATOM     28  O   UNL     1      47.437   5.276  16.304  0.00  0.00    +0.000 OA
ATOM     29  C   UNL     1      49.699   5.830  16.611  0.00  0.00    +0.000 A 
ENDBRANCH  16  19
ENDBRANCH   1  15
BRANCH   1  31
ATOM     30  C   UNL     1      48.770   9.096  11.748  0.00  0.00    +0.000 C 
ATOM     31  C   UNL     1      47.722   9.520  12.769  0.00  0.00    +0.000 C 
ENDBRANCH   1  31
TORSDOF 6
ENDMDL
MODEL 4
REMARK VINA RESULT:    -7.944      2.283      3.227
REMARK INTER + INTRA:         -10.832
REMARK INTER:                  -9.616
REMARK INTRA:                  -1.216
REMARK UNBOUND:                -0.101
REMARK  Name = 
REMARK  8 active torsions:
REMARK  status: ('A' for Active; 'I' for Inactive)
REMARK    1  A    between atoms: C_1  and  C_2
REMARK    2  A    between atoms: C_2  and  C_3
REMARK    3  A    between atoms: C_3  and  N_4
REMARK    4  A    between atoms: C_3  and  C_18
REMARK    5  A    between atoms: C_5  and  C_7
REMARK    6  A    between atoms: N_13  and  C_14
REMARK    7  A    between atoms: C_21  and  O_22
REMARK    8  A    between atoms: O_22  and  C_23
REMARK                            x       y       z     vdW  Elec       q    Type
REMARK                         _______ _______ _______ _____ _____    ______ ____
ROOT
ATOM      1  C   UNL     1      48.203   8.046  13.779  0.00  0.00    +0.000 C 
ENDROOT
BRANCH   1   2
ATOM      2  C   UNL     1      47.097   7.309  13.026  0.00  0.00    +0.000 A 
ATOM      3  C   UNL     1      47.053   5.907  13.095  0.00  0.00    +0.000 A 
ATOM      4  C   UNL     1      46.080   5.183  12.405  0.00  0.00    +0.000 A 
ATOM      5  C   UNL     1      45.104   5.845  11.658  0.00  0.00    +0.000 A 
ATOM      6  C   UNL     1      45.166   7.233  11.535  0.00  0.00    +0.000 A 
ATOM      7  C   UNL     1      46.159   7.959  12.207  0.00  0.00    +0.000 A 
BRANCH   5   8
ATOM      8  O   UNL     1      44.114   5.196  10.952  0.00  0.00    +0.000 OA
BRANCH   8   9
ATOM      9  C   UNL     1      44.494   4.224  10.031  0.00  0.00    +0.000 A 
ATOM     10  C   UNL     1      45.305   4.640   8.984  0.00  0.00    +0.000 A 
ATOM     11  C   UNL     1      45.722   3.690   8.055  0.00  0.00    +0.000 A 
ATOM     12  C   UNL     1      45.311   2.368   8.201  0.00  0.00    +0.000 A 
ATOM     13  C   UNL     1      44.482   2.053   9.263  0.00  0.00    +0.000 A 
ATOM     14  N   UNL     1      44.053   2.954  10.170  0.00  0.00    +0.000 NA
ENDBRANCH   8   9
ENDBRANCH   5   8
ENDBRANCH   1   2
BRANCH   1  15
ATOM     15  N   UNL     1      48.162   7.645  15.176  0.00  0.00    +0.000 N 
ATOM     16  C   UNL     1      48.648   8.427  16.195  0.00  0.00    +0.000 C 
ATOM     17  O   UNL     1      49.273   9.464  15.990  0.00  0.00    +0.000 OA
ATOM     18  H   UNL     1      47.502   6.909  15.403  0.00  0.00    +0.000 HD
BRANCH  16  19
ATOM     19  C   UNL     1      48.418   7.929  17.559  0.00  0.00    +0.000 A 
ATOM     20  C   UNL     1      47.912   8.773  18.539  0.00  0.00    +0.000 A 
ATOM     21  S   UNL     1      47.757   8.027  20.067  0.00  0.00    +0.000 S 
ATOM     22  C   UNL     1      48.301   6.535  19.457  0.00  0.00    +0.000 A 
ATOM     23  N   UNL     1      48.382   5.437  20.252  0.00  0.00    +0.000 NA
ATOM     24  C   UNL     1      48.761   4.360  19.643  0.00  0.00    +0.000 A 
ATOM     25  N   UNL     1      49.073   4.267  18.303  0.00  0.00    +0.000 N 
ATOM     26  C   UNL     1      49.452   3.005  17.705  0.00  0.00    +0.000 C 
ATOM     27  C   UNL     1      49.033   5.379  17.471  0.00  0.00    +0.000 A 
ATOM     28  O   UNL     1      49.349   5.329  16.288  0.00  0.00    +0.000 OA
ATOM     29  C   UNL     1      48.607   6.608  18.113  0.00  0.00    +0.000 A 
ENDBRANCH  16  19
ENDBRANCH   1  15
BRANCH   1  31
ATOM     30  C   UNL     1      49.688   8.164  11.706  0.00  0.00    +0.000 C 
ATOM     31  C   UNL     1      49.616   7.853  13.196  0.00  0.00    +0.000 C 
ENDBRANCH   1  31
TORSDOF 6
ENDMDL
MODEL 5
REMARK VINA RESULT:    -7.879      2.953      4.193
REMARK INTER + INTRA:         -10.743
REMARK INTER:                  -9.503
REMARK INTRA:                  -1.241
REMARK UNBOUND:                -0.101
REMARK  Name = 
REMARK  8 active torsions:
REMARK  status: ('A' for Active; 'I' for Inactive)
REMARK    1  A    between atoms: C_1  and  C_2
REMARK    2  A    between atoms: C_2  and  C_3
REMARK    3  A    between atoms: C_3  and  N_4
REMARK    4  A    between atoms: C_3  and  C_18
REMARK    5  A    between atoms: C_5  and  C_7
REMARK    6  A    between atoms: N_13  and  C_14
REMARK    7  A    between atoms: C_21  and  O_22
REMARK    8  A    between atoms: O_22  and  C_23
REMARK                            x       y       z     vdW  Elec       q    Type
REMARK                         _______ _______ _______ _____ _____    ______ ____
ROOT
ATOM      1  C   UNL     1      47.732   4.916  15.198  0.00  0.00    +0.000 C 
ENDROOT
BRANCH   1   2
ATOM      2  C   UNL     1      46.920   4.787  13.911  0.00  0.00    +0.000 A 
ATOM      3  C   UNL     1      46.331   3.549  13.607  0.00  0.00    +0.000 A 
ATOM      4  C   UNL     1      45.601   3.368  12.431  0.00  0.00    +0.000 A 
ATOM      5  C   UNL     1      45.412   4.433  11.548  0.00  0.00    +0.000 A 
ATOM      6  C   UNL     1      46.034   5.653  11.808  0.00  0.00    +0.000 A 
ATOM      7  C   UNL     1      46.789   5.827  12.976  0.00  0.00    +0.000 A 
BRANCH   5   8
ATOM      8  O   UNL     1      44.703   4.328  10.370  0.00  0.00    +0.000 OA
BRANCH   8   9
ATOM      9  C   UNL     1      45.337   3.754   9.272  0.00  0.00    +0.000 A 
ATOM     10  C   UNL     1      45.375   2.367   9.228  0.00  0.00    +0.000 A 
ATOM     11  C   UNL     1      45.983   1.758   8.133  0.00  0.00    +0.000 A 
ATOM     12  C   UNL     1      46.533   2.551   7.131  0.00  0.00    +0.000 A 
ATOM     13  C   UNL     1      46.470   3.926   7.274  0.00  0.00    +0.000 A 
ATOM     14  N   UNL     1      45.899   4.543   8.328  0.00  0.00    +0.000 NA
ENDBRANCH   8   9
ENDBRANCH   5   8
ENDBRANCH   1   2
BRANCH   1  15
ATOM     15  N   UNL     1      47.875   6.328  15.518  0.00  0.00    +0.000 N 
ATOM     16  C   UNL     1      49.091   6.928  15.735  0.00  0.00    +0.000 C 
ATOM     17  O   UNL     1      50.138   6.290  15.806  0.00  0.00    +0.000 OA
ATOM     18  H   UNL     1      47.080   6.914  15.287  0.00  0.00    +0.000 HD
BRANCH  16  19
ATOM     19  C   UNL     1      49.069   8.386  15.926  0.00  0.00    +0.000 A 
ATOM     20  C   UNL     1      49.521   9.233  14.924  0.00  0.00    +0.000 A 
ATOM     21  S   UNL     1      49.459  10.885  15.349  0.00  0.00    +0.000 S 
ATOM     22  C   UNL     1      48.766  10.529  16.861  0.00  0.00    +0.000 A 
ATOM     23  N   UNL     1      48.428  11.516  17.730  0.00  0.00    +0.000 NA
ATOM     24  C   UNL     1      47.863  11.102  18.818  0.00  0.00    +0.000 A 
ATOM     25  N   UNL     1      47.600   9.786  19.132  0.00  0.00    +0.000 N 
ATOM     26  C   UNL     1      46.928   9.425  20.362  0.00  0.00    +0.000 C 
ATOM     27  C   UNL     1      47.965   8.751  18.279  0.00  0.00    +0.000 A 
ATOM     28  O   UNL     1      47.782   7.571  18.558  0.00  0.00    +0.000 OA
ATOM     29  C   UNL     1      48.597   9.172  17.044  0.00  0.00    +0.000 A 
ENDBRANCH  16  19
ENDBRANCH   1  15
BRANCH   1  31
ATOM     30  C   UNL     1      48.169   3.170  17.007  0.00  0.00    +0.000 C 
ATOM     31  C   UNL     1      47.162   4.138  16.399  0.00  0.00    +0.000 C 
ENDBRANCH   1  31
TORSDOF 6
ENDMDL
MODEL 6
REMARK VINA RESULT:    -7.747      2.310      4.495
REMARK INTER + INTRA:         -10.566
REMARK INTER:                  -9.196
REMARK INTRA:                  -1.370
REMARK UNBOUND:                -0.101
REMARK  Name = 
REMARK  8 active torsions:
REMARK  status: ('A' for Active; 'I' for Inactive)
REMARK    1  A    between atoms: C_1  and  C_2
REMARK    2  A    between atoms: C_2  and  C_3
REMARK    3  A    between atoms: C_3  and  N_4
REMARK    4  A    between atoms: C_3  and  C_18
REMARK    5  A    between atoms: C_5  and  C_7
REMARK    6  A    between atoms: N_13  and  C_14
REMARK    7  A    between atoms: C_21  and  O_22
REMARK    8  A    between atoms: O_22  and  C_23
REMARK                            x       y       z     vdW  Elec       q    Type
REMARK                         _______ _______ _______ _____ _____    ______ ____
ROOT
ATOM      1  C   UNL     1      47.650   4.675  15.499  0.00  0.00    +0.000 C 
ENDROOT
BRANCH   1   2
ATOM      2  C   UNL     1      46.809   4.610  14.226  0.00  0.00    +0.000 A 
ATOM      3  C   UNL     1      46.511   3.351  13.679  0.00  0.00    +0.000 A 
ATOM      4  C   UNL     1      45.768   3.235  12.502  0.00  0.00    +0.000 A 
ATOM      5  C   UNL     1      45.277   4.375  11.863  0.00  0.00    +0.000 A 
ATOM      6  C   UNL     1      45.610   5.634  12.363  0.00  0.00    +0.000 A 
ATOM      7  C   UNL     1      46.377   5.751  13.530  0.00  0.00    +0.000 A 
BRANCH   5   8
ATOM      8  O   UNL     1      44.537   4.337  10.701  0.00  0.00    +0.000 OA
BRANCH   8   9
ATOM      9  C   UNL     1      45.103   3.728   9.584  0.00  0.00    +0.000 A 
ATOM     10  C   UNL     1      45.673   4.568   8.637  0.00  0.00    +0.000 A 
ATOM     11  C   UNL     1      46.267   3.992   7.516  0.00  0.00    +0.000 A 
ATOM     12  C   UNL     1      46.264   2.607   7.380  0.00  0.00    +0.000 A 
ATOM     13  C   UNL     1      45.649   1.852   8.363  0.00  0.00    +0.000 A 
ATOM     14  N   UNL     1      45.056   2.383   9.452  0.00  0.00    +0.000 NA
ENDBRANCH   8   9
ENDBRANCH   5   8
ENDBRANCH   1   2
BRANCH   1  15
ATOM     15  N   UNL     1      48.006   6.063  15.751  0.00  0.00    +0.000 N 
ATOM     16  C   UNL     1      49.256   6.452  16.164  0.00  0.00    +0.000 C 
ATOM     17  O   UNL     1      50.128   5.647  16.480  0.00  0.00    +0.000 OA
ATOM     18  H   UNL     1      47.397   6.757  15.331  0.00  0.00    +0.000 HD
BRANCH  16  19
ATOM     19  C   UNL     1      49.486   7.902  16.255  0.00  0.00    +0.000 A 
ATOM     20  C   UNL     1      49.753   8.496  17.481  0.00  0.00    +0.000 A 
ATOM     21  S   UNL     1      49.946  10.190  17.389  0.00  0.00    +0.000 S 
ATOM     22  C   UNL     1      49.744  10.179  15.701  0.00  0.00    +0.000 A 
ATOM     23  N   UNL     1      49.824  11.324  14.975  0.00  0.00    +0.000 NA
ATOM     24  C   UNL     1      49.702  11.159  13.697  0.00  0.00    +0.000 A 
ATOM     25  N   UNL     1      49.504   9.951  13.062  0.00  0.00    +0.000 N 
ATOM     26  C   UNL     1      49.417   9.865  11.620  0.00  0.00    +0.000 C 
ATOM     27  C   UNL     1      49.384   8.767  13.779  0.00  0.00    +0.000 A 
ATOM     28  O   UNL     1      49.163   7.689  13.239  0.00  0.00    +0.000 OA
ATOM     29  C   UNL     1      49.520   8.907  15.216  0.00  0.00    +0.000 A 
ENDBRANCH  16  19
ENDBRANCH   1  15
BRANCH   1  31
ATOM     30  C   UNL     1      47.789   2.885  17.313  0.00  0.00    +0.000 C 
ATOM     31  C   UNL     1      46.987   4.047  16.740  0.00  0.00    +0.000 C 
ENDBRANCH   1  31
TORSDOF 6
ENDMDL
MODEL 7
REMARK VINA RESULT:    -7.694      2.452      3.612
REMARK INTER + INTRA:         -10.494
REMARK INTER:                  -9.528
REMARK INTRA:                  -0.966
REMARK UNBOUND:                -0.101
REMARK  Name = 
REMARK  8 active torsions:
REMARK  status: ('A' for Active; 'I' for Inactive)
REMARK    1  A    between atoms: C_1  and  C_2
REMARK    2  A    between atoms: C_2  and  C_3
REMARK    3  A    between atoms: C_3  and  N_4
REMARK    4  A    between atoms: C_3  and  C_18
REMARK    5  A    between atoms: C_5  and  C_7
REMARK    6  A    between atoms: N_13  and  C_14
REMARK    7  A    between atoms: C_21  and  O_22
REMARK    8  A    between atoms: O_22  and  C_23
REMARK                            x       y       z     vdW  Elec       q    Type
REMARK                         _______ _______ _______ _____ _____    ______ ____
ROOT
ATOM      1  C   UNL     1      47.527   7.272  14.002  0.00  0.00    +0.000 C 
ENDROOT
BRANCH   1   2
ATOM      2  C   UNL     1      46.698   6.552  12.941  0.00  0.00    +0.000 A 
ATOM      3  C   UNL     1      46.085   5.334  13.276  0.00  0.00    +0.000 A 
ATOM      4  C   UNL     1      45.338   4.621  12.336  0.00  0.00    +0.000 A 
ATOM      5  C   UNL     1      45.157   5.128  11.048  0.00  0.00    +0.000 A 
ATOM      6  C   UNL     1      45.804   6.308  10.683  0.00  0.00    +0.000 A 
ATOM      7  C   UNL     1      46.575   7.010  11.619  0.00  0.00    +0.000 A 
BRANCH   5   8
ATOM      8  O   UNL     1      44.433   4.480  10.070  0.00  0.00    +0.000 OA
BRANCH   8   9
ATOM      9  C   UNL     1      45.131   3.746   9.115  0.00  0.00    +0.000 A 
ATOM     10  C   UNL     1      45.248   2.381   9.339  0.00  0.00    +0.000 A 
ATOM     11  C   UNL     1      45.922   1.612   8.393  0.00  0.00    +0.000 A 
ATOM     12  C   UNL     1      46.458   2.231   7.269  0.00  0.00    +0.000 A 
ATOM     13  C   UNL     1      46.314   3.602   7.143  0.00  0.00    +0.000 A 
ATOM     14  N   UNL     1      45.677   4.373   8.048  0.00  0.00    +0.000 NA
ENDBRANCH   8   9
ENDBRANCH   5   8
ENDBRANCH   1   2
BRANCH   1  15
ATOM     15  N   UNL     1      48.261   6.280  14.772  0.00  0.00    +0.000 N 
ATOM     16  C   UNL     1      48.652   6.479  16.073  0.00  0.00    +0.000 C 
ATOM     17  O   UNL     1      48.528   7.561  16.641  0.00  0.00    +0.000 OA
ATOM     18  H   UNL     1      48.218   5.330  14.420  0.00  0.00    +0.000 HD
BRANCH  16  19
ATOM     19  C   UNL     1      49.277   5.330  16.744  0.00  0.00    +0.000 A 
ATOM     20  C   UNL     1      48.518   4.221  17.092  0.00  0.00    +0.000 A 
ATOM     21  S   UNL     1      49.410   3.012  17.902  0.00  0.00    +0.000 S 
ATOM     22  C   UNL     1      50.853   3.900  17.759  0.00  0.00    +0.000 A 
ATOM     23  N   UNL     1      52.030   3.412  18.230  0.00  0.00    +0.000 NA
ATOM     24  C   UNL     1      53.054   4.171  18.005  0.00  0.00    +0.000 A 
ATOM     25  N   UNL     1      53.022   5.385  17.352  0.00  0.00    +0.000 N 
ATOM     26  C   UNL     1      54.231   6.144  17.116  0.00  0.00    +0.000 C 
ATOM     27  C   UNL     1      51.829   5.927  16.889  0.00  0.00    +0.000 A 
ATOM     28  O   UNL     1      51.771   7.024  16.345  0.00  0.00    +0.000 OA
ATOM     29  C   UNL     1      50.656   5.105  17.116  0.00  0.00    +0.000 A 
ENDBRANCH  16  19
ENDBRANCH   1  15
BRANCH   1  31
ATOM     30  C   UNL     1      49.815   7.782  12.992  0.00  0.00    +0.000 C 
ATOM     31  C   UNL     1      48.478   8.352  13.452  0.00  0.00    +0.000 C 
ENDBRANCH   1  31
TORSDOF 6
ENDMDL
MODEL 8
REMARK VINA RESULT:    -7.558      2.811      3.931
REMARK INTER + INTRA:         -10.311
REMARK INTER:                  -9.661
REMARK INTRA:                  -0.650
REMARK UNBOUND:                -0.101
REMARK  Name = 
REMARK  8 active torsions:
REMARK  status: ('A' for Active; 'I' for Inactive)
REMARK    1  A    between atoms: C_1  and  C_2
REMARK    2  A    between atoms: C_2  and  C_3
REMARK    3  A    between atoms: C_3  and  N_4
REMARK    4  A    between atoms: C_3  and  C_18
REMARK    5  A    between atoms: C_5  and  C_7
REMARK    6  A    between atoms: N_13  and  C_14
REMARK    7  A    between atoms: C_21  and  O_22
REMARK    8  A    between atoms: O_22  and  C_23
REMARK                            x       y       z     vdW  Elec       q    Type
REMARK                         _______ _______ _______ _____ _____    ______ ____
ROOT
ATOM      1  C   UNL     1      46.220   7.302  12.795  0.00  0.00    +0.000 C 
ENDROOT
BRANCH   1   2
ATOM      2  C   UNL     1      45.776   6.201  11.836  0.00  0.00    +0.000 A 
ATOM      3  C   UNL     1      45.191   5.040  12.367  0.00  0.00    +0.000 A 
ATOM      4  C   UNL     1      44.791   3.991  11.537  0.00  0.00    +0.000 A 
ATOM      5  C   UNL     1      44.935   4.092  10.152  0.00  0.00    +0.000 A 
ATOM      6  C   UNL     1      45.563   5.215   9.613  0.00  0.00    +0.000 A 
ATOM      7  C   UNL     1      45.988   6.257  10.448  0.00  0.00    +0.000 A 
BRANCH   5   8
ATOM      8  O   UNL     1      44.562   3.099   9.273  0.00  0.00    +0.000 OA
BRANCH   8   9
ATOM      9  C   UNL     1      45.521   2.611   8.390  0.00  0.00    +0.000 A 
ATOM     10  C   UNL     1      45.948   3.476   7.392  0.00  0.00    +0.000 A 
ATOM     11  C   UNL     1      46.923   3.028   6.503  0.00  0.00    +0.000 A 
ATOM     12  C   UNL     1      47.428   1.739   6.639  0.00  0.00    +0.000 A 
ATOM     13  C   UNL     1      46.923   0.940   7.650  0.00  0.00    +0.000 A 
ATOM     14  N   UNL     1      45.972   1.342   8.517  0.00  0.00    +0.000 NA
ENDBRANCH   8   9
ENDBRANCH   5   8
ENDBRANCH   1   2
BRANCH   1  15
ATOM     15  N   UNL     1      47.566   7.719  12.435  0.00  0.00    +0.000 N 
ATOM     16  C   UNL     1      48.695   7.092  12.901  0.00  0.00    +0.000 C 
ATOM     17  O   UNL     1      48.656   6.217  13.763  0.00  0.00    +0.000 OA
ATOM     18  H   UNL     1      47.641   8.293  11.602  0.00  0.00    +0.000 HD
BRANCH  16  19
ATOM     19  C   UNL     1      49.973   7.560  12.344  0.00  0.00    +0.000 A 
ATOM     20  C   UNL     1      50.309   7.282  11.026  0.00  0.00    +0.000 A 
ATOM     21  S   UNL     1      51.848   7.868  10.576  0.00  0.00    +0.000 S 
ATOM     22  C   UNL     1      52.091   8.567  12.107  0.00  0.00    +0.000 A 
ATOM     23  N   UNL     1      53.223   9.264  12.391  0.00  0.00    +0.000 NA
ATOM     24  C   UNL     1      53.249   9.785  13.575  0.00  0.00    +0.000 A 
ATOM     25  N   UNL     1      52.249   9.677  14.518  0.00  0.00    +0.000 N 
ATOM     26  C   UNL     1      52.357  10.330  15.806  0.00  0.00    +0.000 C 
ATOM     27  C   UNL     1      51.095   8.944  14.271  0.00  0.00    +0.000 A 
ATOM     28  O   UNL     1      50.214   8.799  15.110  0.00  0.00    +0.000 OA
ATOM     29  C   UNL     1      51.022   8.347  12.951  0.00  0.00    +0.000 A 
ENDBRANCH  16  19
ENDBRANCH   1  15
BRANCH   1  31
ATOM     30  C   UNL     1      45.807   9.727  12.112  0.00  0.00    +0.000 C 
ATOM     31  C   UNL     1      45.272   8.515  12.865  0.00  0.00    +0.000 C 
ENDBRANCH   1  31
TORSDOF 6
ENDMDL
MODEL 9
REMARK VINA RESULT:    -7.406      2.849      4.212
REMARK INTER + INTRA:         -10.106
REMARK INTER:                  -8.505
REMARK INTRA:                  -1.600
REMARK UNBOUND:                -0.101
REMARK  Name = 
REMARK  8 active torsions:
REMARK  status: ('A' for Active; 'I' for Inactive)
REMARK    1  A    between atoms: C_1  and  C_2
REMARK    2  A    between atoms: C_2  and  C_3
REMARK    3  A    between atoms: C_3  and  N_4
REMARK    4  A    between atoms: C_3  and  C_18
REMARK    5  A    between atoms: C_5  and  C_7
REMARK    6  A    between atoms: N_13  and  C_14
REMARK    7  A    between atoms: C_21  and  O_22
REMARK    8  A    between atoms: O_22  and  C_23
REMARK                            x       y       z     vdW  Elec       q    Type
REMARK                         _______ _______ _______ _____ _____    ______ ____
ROOT
ATOM      1  C   UNL     1      49.615   8.650  13.475  0.00  0.00    +0.000 C 
ENDROOT
BRANCH   1   2
ATOM      2  C   UNL     1      48.241   8.196  12.988  0.00  0.00    +0.000 A 
ATOM      3  C   UNL     1      48.164   7.089  12.128  0.00  0.00    +0.000 A 
ATOM      4  C   UNL     1      46.935   6.648  11.631  0.00  0.00    +0.000 A 
ATOM      5  C   UNL     1      45.752   7.282  12.012  0.00  0.00    +0.000 A 
ATOM      6  C   UNL     1      45.816   8.416  12.822  0.00  0.00    +0.000 A 
ATOM      7  C   UNL     1      47.051   8.874  13.300  0.00  0.00    +0.000 A 
BRANCH   5   8
ATOM      8  O   UNL     1      44.505   6.902  11.563  0.00  0.00    +0.000 OA
BRANCH   8   9
ATOM      9  C   UNL     1      44.176   5.550  11.611  0.00  0.00    +0.000 A 
ATOM     10  C   UNL     1      43.849   5.031  12.857  0.00  0.00    +0.000 A 
ATOM     11  C   UNL     1      43.493   3.687  12.939  0.00  0.00    +0.000 A 
ATOM     12  C   UNL     1      43.483   2.913  11.783  0.00  0.00    +0.000 A 
ATOM     13  C   UNL     1      43.849   3.511  10.590  0.00  0.00    +0.000 A 
ATOM     14  N   UNL     1      44.209   4.806  10.482  0.00  0.00    +0.000 NA
ENDBRANCH   8   9
ENDBRANCH   5   8
ENDBRANCH   1   2
BRANCH   1  15
ATOM     15  N   UNL     1      50.183   7.603  14.309  0.00  0.00    +0.000 N 
ATOM     16  C   UNL     1      50.771   7.849  15.525  0.00  0.00    +0.000 C 
ATOM     17  O   UNL     1      50.981   8.986  15.939  0.00  0.00    +0.000 OA
ATOM     18  H   UNL     1      49.870   6.660  14.105  0.00  0.00    +0.000 HD
BRANCH  16  19
ATOM     19  C   UNL     1      51.185   6.667  16.296  0.00  0.00    +0.000 A 
ATOM     20  C   UNL     1      52.501   6.525  16.713  0.00  0.00    +0.000 A 
ATOM     21  S   UNL     1      52.796   5.069  17.554  0.00  0.00    +0.000 S 
ATOM     22  C   UNL     1      51.163   4.608  17.445  0.00  0.00    +0.000 A 
ATOM     23  N   UNL     1      50.719   3.450  17.999  0.00  0.00    +0.000 NA
ATOM     24  C   UNL     1      49.446   3.254  17.885  0.00  0.00    +0.000 A 
ATOM     25  N   UNL     1      48.558   4.106  17.264  0.00  0.00    +0.000 N 
ATOM     26  C   UNL     1      47.140   3.815  17.221  0.00  0.00    +0.000 C 
ATOM     27  C   UNL     1      48.985   5.282  16.658  0.00  0.00    +0.000 A 
ATOM     28  O   UNL     1      48.220   6.032  16.062  0.00  0.00    +0.000 OA
ATOM     29  C   UNL     1      50.407   5.543  16.768  0.00  0.00    +0.000 A 
ENDBRANCH  16  19
ENDBRANCH   1  15
BRANCH   1  31
ATOM     30  C   UNL     1      50.027  10.115  11.426  0.00  0.00    +0.000 C 
ATOM     31  C   UNL     1      50.595   9.050  12.356  0.00  0.00    +0.000 C 
ENDBRANCH   1  31
TORSDOF 6
ENDMDL
