MODEL 1
REMARK VINA RESULT:    -8.014      0.000      0.000
REMARK INTER + INTRA:         -11.143
REMARK INTER:                 -10.357
REMARK INTRA:                  -0.786
REMARK UNBOUND:                -0.786
REMARK  Name = 
REMARK  6 active torsions:
REMARK  status: ('A' for Active; 'I' for Inactive)
REMARK    1  A    between atoms: C_1  and  C_2
REMARK    2  A    between atoms: C_2  and  C_3
REMARK    3  A    between atoms: C_2  and  C_14
REMARK    4  A    between atoms: C_3  and  N_4
REMARK    5  A    between atoms: C_8  and  C_9
REMARK    6  A    between atoms: C_18  and  C_19
REMARK                            x       y       z     vdW  Elec       q    Type
REMARK                         _______ _______ _______ _____ _____    ______ ____
ROOT
ATOM      1  C   UNL     1      43.626   4.773  10.552  0.00  0.00    +0.000 C 
ENDROOT
BRANCH   1   2
ATOM      2  N   UNL     1      43.956   3.365  10.355  0.00  0.00    +0.000 N 
ATOM      3  C   UNL     1      44.894   3.140   9.334  0.00  0.00    +0.000 A 
ATOM      4  C   UNL     1      45.274   1.828   9.012  0.00  0.00    +0.000 A 
ATOM      5  N   UNL     1      46.151   1.501   8.024  0.00  0.00    +0.000 NA
ATOM      6  C   UNL     1      46.661   2.573   7.357  0.00  0.00    +0.000 A 
ATOM      7  C   UNL     1      46.322   3.875   7.679  0.00  0.00    +0.000 A 
ATOM      8  N   UNL     1      45.442   4.180   8.668  0.00  0.00    +0.000 NA
ATOM      9  H   UNL     1      43.119   2.820  10.165  0.00  0.00    +0.000 HD
BRANCH   6  10
ATOM     10  C   UNL     1      47.598   2.316   6.230  0.00  0.00    +0.000 C 
ATOM     11  N   UNL     1      47.521   3.191   5.180  0.00  0.00    +0.000 N 
ATOM     12  O   UNL     1      48.396   1.389   6.241  0.00  0.00    +0.000 OA
ATOM     13  H   UNL     1      46.859   3.958   5.203  0.00  0.00    +0.000 HD
ATOM     14  H   UNL     1      48.149   3.081   4.396  0.00  0.00    +0.000 HD
ENDBRANCH   6  10
ENDBRANCH   1   2
BRANCH   1  16
ATOM     15  C   UNL     1      42.668   5.295  12.885  0.00  0.00    +0.000 C 
ATOM     16  C   UNL     1      43.857   5.085  12.002  0.00  0.00    +0.000 C 
BRANCH  16  17
ATOM     17  C   UNL     1      45.210   5.352  12.510  0.00  0.00    +0.000 A 
ATOM     18  C   UNL     1      46.063   6.263  11.875  0.00  0.00    +0.000 A 
ATOM     19  C   UNL     1      47.347   6.506  12.369  0.00  0.00    +0.000 A 
ATOM     20  C   UNL     1      47.790   5.855  13.520  0.00  0.00    +0.000 A 
ATOM     21  C   UNL     1      46.953   4.951  14.184  0.00  0.00    +0.000 A 
ATOM     22  C   UNL     1      45.674   4.695  13.658  0.00  0.00    +0.000 A 
BRANCH  21  23
ATOM     23  C   UNL     1      47.382   4.268  15.457  0.00  0.00    +0.000 C 
ATOM     24  F   UNL     1      46.420   4.246  16.419  0.00  0.00    +0.000 F 
ATOM     25  F   UNL     1      47.731   2.967  15.249  0.00  0.00    +0.000 F 
ATOM     26  F   UNL     1      48.469   4.858  16.027  0.00  0.00    +0.000 F 
ENDBRANCH  21  23
ENDBRANCH  16  17
ENDBRANCH   1  16
TORSDOF 5
ENDMDL
MODEL 2
REMARK VINA RESULT:    -7.580      4.617      6.653
REMARK INTER + INTRA:         -10.582
REMARK INTER:                  -9.821
REMARK INTRA:                  -0.761
REMARK UNBOUND:                -0.786
REMARK  Name = 
REMARK  6 active torsions:
REMARK  status: ('A' for Active; 'I' for Inactive)
REMARK    1  A    between atoms: C_1  and  C_2
REMARK    2  A    between atoms: C_2  and  C_3
REMARK    3  A    between atoms: C_2  and  C_14
REMARK    4  A    between atoms: C_3  and  N_4
REMARK    5  A    between atoms: C_8  and  C_9
REMARK    6  A    between atoms: C_18  and  C_19
REMARK                            x       y       z     vdW  Elec       q    Type
REMARK                         _______ _______ _______ _____ _____    ______ ____
ROOT
ATOM      1  C   UNL     1      43.829   4.308  12.009  0.00  0.00    +0.000 C 
ENDROOT
BRANCH   1   2
ATOM      2  N   UNL     1      44.702   3.991  13.136  0.00  0.00    +0.000 N 
ATOM      3  C   UNL     1      45.819   4.836  13.242  0.00  0.00    +0.000 A 
ATOM      4  C   UNL     1      46.762   4.622  14.259  0.00  0.00    +0.000 A 
ATOM      5  N   UNL     1      47.890   5.363  14.431  0.00  0.00    +0.000 NA
ATOM      6  C   UNL     1      48.036   6.371  13.527  0.00  0.00    +0.000 A 
ATOM      7  C   UNL     1      47.103   6.618  12.536  0.00  0.00    +0.000 A 
ATOM      8  N   UNL     1      45.983   5.863  12.380  0.00  0.00    +0.000 NA
ATOM      9  H   UNL     1      45.017   3.026  13.089  0.00  0.00    +0.000 HD
BRANCH   6  10
ATOM     10  C   UNL     1      49.261   7.212  13.608  0.00  0.00    +0.000 C 
ATOM     11  N   UNL     1      50.059   7.209  12.496  0.00  0.00    +0.000 N 
ATOM     12  O   UNL     1      49.535   7.875  14.599  0.00  0.00    +0.000 OA
ATOM     13  H   UNL     1      49.801   6.661  11.683  0.00  0.00    +0.000 HD
ATOM     14  H   UNL     1      50.892   7.781  12.482  0.00  0.00    +0.000 HD
ENDBRANCH   6  10
ENDBRANCH   1   2
BRANCH   1  16
ATOM     15  C   UNL     1      43.393   1.860  11.337  0.00  0.00    +0.000 C 
ATOM     16  C   UNL     1      43.975   3.199  11.009  0.00  0.00    +0.000 C 
BRANCH  16  17
ATOM     17  C   UNL     1      44.817   3.365   9.815  0.00  0.00    +0.000 A 
ATOM     18  C   UNL     1      45.114   4.634   9.302  0.00  0.00    +0.000 A 
ATOM     19  C   UNL     1      45.916   4.777   8.167  0.00  0.00    +0.000 A 
ATOM     20  C   UNL     1      46.447   3.651   7.538  0.00  0.00    +0.000 A 
ATOM     21  C   UNL     1      46.179   2.372   8.039  0.00  0.00    +0.000 A 
ATOM     22  C   UNL     1      45.347   2.243   9.165  0.00  0.00    +0.000 A 
BRANCH  21  23
ATOM     23  C   UNL     1      46.778   1.138   7.412  0.00  0.00    +0.000 C 
ATOM     24  F   UNL     1      46.290  -0.026   7.921  0.00  0.00    +0.000 F 
ATOM     25  F   UNL     1      46.551   1.083   6.070  0.00  0.00    +0.000 F 
ATOM     26  F   UNL     1      48.130   1.078   7.564  0.00  0.00    +0.000 F 
ENDBRANCH  21  23
ENDBRANCH  16  17
ENDBRANCH   1  16
TORSDOF 5
ENDMDL
MODEL 3
REMARK VINA RESULT:    -7.419      1.710      2.551
REMARK INTER + INTRA:         -10.374
REMARK INTER:                  -9.885
REMARK INTRA:                  -0.489
REMARK UNBOUND:                -0.786
REMARK  Name = 
REMARK  6 active torsions:
REMARK  status: ('A' for Active; 'I' for Inactive)
REMARK    1  A    between atoms: C_1  and  C_2
REMARK    2  A    between atoms: C_2  and  C_3
REMARK    3  A    between atoms: C_2  and  C_14
REMARK    4  A    between atoms: C_3  and  N_4
REMARK    5  A    between atoms: C_8  and  C_9
REMARK    6  A    between atoms: C_18  and  C_19
REMARK                            x       y       z     vdW  Elec       q    Type
REMARK                         _______ _______ _______ _____ _____    ______ ____
ROOT
ATOM      1  C   UNL     1      43.342   4.758  10.717  0.00  0.00    +0.000 C 
ENDROOT
BRANCH   1   2
ATOM      2  N   UNL     1      44.322   5.169   9.715  0.00  0.00    +0.000 N 
ATOM      3  C   UNL     1      44.986   4.095   9.099  0.00  0.00    +0.000 A 
ATOM      4  C   UNL     1      45.981   4.348   8.142  0.00  0.00    +0.000 A 
ATOM      5  N   UNL     1      46.703   3.383   7.509  0.00  0.00    +0.000 NA
ATOM      6  C   UNL     1      46.370   2.113   7.871  0.00  0.00    +0.000 A 
ATOM      7  C   UNL     1      45.372   1.842   8.789  0.00  0.00    +0.000 A 
ATOM      8  N   UNL     1      44.665   2.821   9.412  0.00  0.00    +0.000 NA
ATOM      9  H   UNL     1      45.009   5.799  10.118  0.00  0.00    +0.000 HD
BRANCH   6  10
ATOM     10  C   UNL     1      47.133   0.989   7.264  0.00  0.00    +0.000 C 
ATOM     11  N   UNL     1      46.783  -0.265   7.685  0.00  0.00    +0.000 N 
ATOM     12  O   UNL     1      48.012   1.169   6.431  0.00  0.00    +0.000 OA
ATOM     13  H   UNL     1      46.042  -0.386   8.366  0.00  0.00    +0.000 HD
ATOM     14  H   UNL     1      47.249  -1.070   7.290  0.00  0.00    +0.000 HD
ENDBRANCH   6  10
ENDBRANCH   1   2
BRANCH   1  16
ATOM     15  C   UNL     1      43.359   4.441  13.272  0.00  0.00    +0.000 C 
ATOM     16  C   UNL     1      43.898   5.131  12.060  0.00  0.00    +0.000 C 
BRANCH  16  17
ATOM     17  C   UNL     1      44.820   6.267  12.207  0.00  0.00    +0.000 A 
ATOM     18  C   UNL     1      44.477   7.548  11.757  0.00  0.00    +0.000 A 
ATOM     19  C   UNL     1      45.364   8.618  11.903  0.00  0.00    +0.000 A 
ATOM     20  C   UNL     1      46.600   8.426  12.519  0.00  0.00    +0.000 A 
ATOM     21  C   UNL     1      46.961   7.159  12.991  0.00  0.00    +0.000 A 
ATOM     22  C   UNL     1      46.071   6.085  12.812  0.00  0.00    +0.000 A 
BRANCH  21  23
ATOM     23  C   UNL     1      48.268   6.927  13.706  0.00  0.00    +0.000 C 
ATOM     24  F   UNL     1      49.301   6.622  12.874  0.00  0.00    +0.000 F 
ATOM     25  F   UNL     1      48.669   8.023  14.411  0.00  0.00    +0.000 F 
ATOM     26  F   UNL     1      48.199   5.909  14.607  0.00  0.00    +0.000 F 
ENDBRANCH  21  23
ENDBRANCH  16  17
ENDBRANCH   1  16
TORSDOF 5
ENDMDL
MODEL 4
REMARK VINA RESULT:    -7.419      2.251      2.923
REMARK INTER + INTRA:         -10.373
REMARK INTER:                  -9.774
REMARK INTRA:                  -0.599
REMARK UNBOUND:                -0.786
REMARK  Name = 
REMARK  6 active torsions:
REMARK  status: ('A' for Active; 'I' for Inactive)
REMARK    1  A    between atoms: C_1  and  C_2
REMARK    2  A    between atoms: C_2  and  C_3
REMARK    3  A    between atoms: C_2  and  C_14
REMARK    4  A    between atoms: C_3  and  N_4
REMARK    5  A    between atoms: C_8  and  C_9
REMARK    6  A    between atoms: C_18  and  C_19
REMARK                            x       y       z     vdW  Elec       q    Type
REMARK                         _______ _______ _______ _____ _____    ______ ____
ROOT
ATOM      1  C   UNL     1      43.503   4.306  10.924  0.00  0.00    +0.000 C 
ENDROOT
BRANCH   1   2
ATOM      2  N   UNL     1      44.292   5.014   9.920  0.00  0.00    +0.000 N 
ATOM      3  C   UNL     1      45.080   4.170   9.120  0.00  0.00    +0.000 A 
ATOM      4  C   UNL     1      45.918   4.721   8.139  0.00  0.00    +0.000 A 
ATOM      5  N   UNL     1      46.740   3.996   7.333  0.00  0.00    +0.000 NA
ATOM      6  C   UNL     1      46.679   2.652   7.543  0.00  0.00    +0.000 A 
ATOM      7  C   UNL     1      45.838   2.086   8.484  0.00  0.00    +0.000 A 
ATOM      8  N   UNL     1      45.027   2.830   9.281  0.00  0.00    +0.000 NA
ATOM      9  H   UNL     1      44.888   5.713  10.355  0.00  0.00    +0.000 HD
BRANCH   6  10
ATOM     10  C   UNL     1      47.574   1.776   6.738  0.00  0.00    +0.000 C 
ATOM     11  N   UNL     1      48.683   2.381   6.211  0.00  0.00    +0.000 N 
ATOM     12  O   UNL     1      47.344   0.586   6.567  0.00  0.00    +0.000 OA
ATOM     13  H   UNL     1      48.856   3.365   6.380  0.00  0.00    +0.000 HD
ATOM     14  H   UNL     1      49.341   1.831   5.676  0.00  0.00    +0.000 HD
ENDBRANCH   6  10
ENDBRANCH   1   2
BRANCH   1  16
ATOM     15  C   UNL     1      42.632   5.445  13.063  0.00  0.00    +0.000 C 
ATOM     16  C   UNL     1      43.786   4.953  12.248  0.00  0.00    +0.000 C 
BRANCH  16  17
ATOM     17  C   UNL     1      45.163   5.257  12.661  0.00  0.00    +0.000 A 
ATOM     18  C   UNL     1      45.946   4.316  13.343  0.00  0.00    +0.000 A 
ATOM     19  C   UNL     1      47.254   4.619  13.730  0.00  0.00    +0.000 A 
ATOM     20  C   UNL     1      47.805   5.863  13.423  0.00  0.00    +0.000 A 
ATOM     21  C   UNL     1      47.050   6.816  12.729  0.00  0.00    +0.000 A 
ATOM     22  C   UNL     1      45.726   6.507  12.371  0.00  0.00    +0.000 A 
BRANCH  21  23
ATOM     23  C   UNL     1      47.633   8.151  12.339  0.00  0.00    +0.000 C 
ATOM     24  F   UNL     1      48.598   8.069  11.382  0.00  0.00    +0.000 F 
ATOM     25  F   UNL     1      46.687   8.998  11.843  0.00  0.00    +0.000 F 
ATOM     26  F   UNL     1      48.201   8.802  13.391  0.00  0.00    +0.000 F 
ENDBRANCH  21  23
ENDBRANCH  16  17
ENDBRANCH   1  16
TORSDOF 5
ENDMDL
MODEL 5
REMARK VINA RESULT:    -7.378      3.400      4.091
REMARK INTER + INTRA:         -10.321
REMARK INTER:                  -9.875
REMARK INTRA:                  -0.446
REMARK UNBOUND:                -0.786
REMARK  Name = 
REMARK  6 active torsions:
REMARK  status: ('A' for Active; 'I' for Inactive)
REMARK    1  A    between atoms: C_1  and  C_2
REMARK    2  A    between atoms: C_2  and  C_3
REMARK    3  A    between atoms: C_2  and  C_14
REMARK    4  A    between atoms: C_3  and  N_4
REMARK    5  A    between atoms: C_8  and  C_9
REMARK    6  A    between atoms: C_18  and  C_19
REMARK                            x       y       z     vdW  Elec       q    Type
REMARK                         _______ _______ _______ _____ _____    ______ ____
ROOT
ATOM      1  C   UNL     1      43.246   4.663  10.768  0.00  0.00    +0.000 C 
ENDROOT
BRANCH   1   2
ATOM      2  N   UNL     1      44.173   5.103   9.730  0.00  0.00    +0.000 N 
ATOM      3  C   UNL     1      44.879   4.054   9.118  0.00  0.00    +0.000 A 
ATOM      4  C   UNL     1      45.832   4.337   8.128  0.00  0.00    +0.000 A 
ATOM      5  N   UNL     1      46.587   3.398   7.496  0.00  0.00    +0.000 NA
ATOM      6  C   UNL     1      46.334   2.121   7.894  0.00  0.00    +0.000 A 
ATOM      7  C   UNL     1      45.378   1.818   8.847  0.00  0.00    +0.000 A 
ATOM      8  N   UNL     1      44.635   2.772   9.468  0.00  0.00    +0.000 NA
ATOM      9  H   UNL     1      44.836   5.779  10.099  0.00  0.00    +0.000 HD
BRANCH   6  10
ATOM     10  C   UNL     1      47.141   1.026   7.290  0.00  0.00    +0.000 C 
ATOM     11  N   UNL     1      46.822  -0.242   7.695  0.00  0.00    +0.000 N 
ATOM     12  O   UNL     1      48.027   1.240   6.473  0.00  0.00    +0.000 OA
ATOM     13  H   UNL     1      46.074  -0.392   8.362  0.00  0.00    +0.000 HD
ATOM     14  H   UNL     1      47.319  -1.028   7.300  0.00  0.00    +0.000 HD
ENDBRANCH   6  10
ENDBRANCH   1   2
BRANCH   1  16
ATOM     15  C   UNL     1      43.350   4.382  13.326  0.00  0.00    +0.000 C 
ATOM     16  C   UNL     1      43.831   5.072  12.088  0.00  0.00    +0.000 C 
BRANCH  16  17
ATOM     17  C   UNL     1      44.722   6.236  12.192  0.00  0.00    +0.000 A 
ATOM     18  C   UNL     1      46.015   6.121  12.718  0.00  0.00    +0.000 A 
ATOM     19  C   UNL     1      46.851   7.237  12.810  0.00  0.00    +0.000 A 
ATOM     20  C   UNL     1      46.413   8.481  12.359  0.00  0.00    +0.000 A 
ATOM     21  C   UNL     1      45.131   8.621  11.814  0.00  0.00    +0.000 A 
ATOM     22  C   UNL     1      44.290   7.495  11.754  0.00  0.00    +0.000 A 
BRANCH  21  23
ATOM     23  C   UNL     1      44.644   9.941  11.272  0.00  0.00    +0.000 C 
ATOM     24  F   UNL     1      43.857  10.633  12.140  0.00  0.00    +0.000 F 
ATOM     25  F   UNL     1      45.673  10.776  10.955  0.00  0.00    +0.000 F 
ATOM     26  F   UNL     1      43.913   9.801  10.132  0.00  0.00    +0.000 F 
ENDBRANCH  21  23
ENDBRANCH  16  17
ENDBRANCH   1  16
TORSDOF 5
ENDMDL
MODEL 6
REMARK VINA RESULT:    -6.975      4.925      7.490
REMARK INTER + INTRA:          -9.800
REMARK INTER:                  -9.342
REMARK INTRA:                  -0.458
REMARK UNBOUND:                -0.786
REMARK  Name = 
REMARK  6 active torsions:
REMARK  status: ('A' for Active; 'I' for Inactive)
REMARK    1  A    between atoms: C_1  and  C_2
REMARK    2  A    between atoms: C_2  and  C_3
REMARK    3  A    between atoms: C_2  and  C_14
REMARK    4  A    between atoms: C_3  and  N_4
REMARK    5  A    between atoms: C_8  and  C_9
REMARK    6  A    between atoms: C_18  and  C_19
REMARK                            x       y       z     vdW  Elec       q    Type
REMARK                         _______ _______ _______ _____ _____    ______ ____
ROOT
ATOM      1  C   UNL     1      47.914   6.935  12.143  0.00  0.00    +0.000 C 
ENDROOT
BRANCH   1   2
ATOM      2  N   UNL     1      48.386   7.317  13.471  0.00  0.00    +0.000 N 
ATOM      3  C   UNL     1      48.151   6.344  14.457  0.00  0.00    +0.000 A 
ATOM      4  C   UNL     1      48.521   6.596  15.787  0.00  0.00    +0.000 A 
ATOM      5  N   UNL     1      48.313   5.735  16.819  0.00  0.00    +0.000 NA
ATOM      6  C   UNL     1      47.714   4.567  16.457  0.00  0.00    +0.000 A 
ATOM      7  C   UNL     1      47.369   4.287  15.147  0.00  0.00    +0.000 A 
ATOM      8  N   UNL     1      47.584   5.163  14.130  0.00  0.00    +0.000 NA
ATOM      9  H   UNL     1      47.970   8.196  13.764  0.00  0.00    +0.000 HD
BRANCH   6  10
ATOM     10  C   UNL     1      47.405   3.577  17.525  0.00  0.00    +0.000 C 
ATOM     11  N   UNL     1      48.266   3.561  18.589  0.00  0.00    +0.000 N 
ATOM     12  O   UNL     1      46.436   2.832  17.465  0.00  0.00    +0.000 OA
ATOM     13  H   UNL     1      49.053   4.199  18.619  0.00  0.00    +0.000 HD
ATOM     14  H   UNL     1      48.093   2.927  19.357  0.00  0.00    +0.000 HD
ENDBRANCH   6  10
ENDBRANCH   1   2
BRANCH   1  16
ATOM     15  C   UNL     1      45.982   8.506  12.801  0.00  0.00    +0.000 C 
ATOM     16  C   UNL     1      46.457   7.290  12.071  0.00  0.00    +0.000 C 
BRANCH  16  17
ATOM     17  C   UNL     1      45.487   6.376  11.449  0.00  0.00    +0.000 A 
ATOM     18  C   UNL     1      44.157   6.318  11.883  0.00  0.00    +0.000 A 
ATOM     19  C   UNL     1      43.247   5.445  11.283  0.00  0.00    +0.000 A 
ATOM     20  C   UNL     1      43.650   4.630  10.226  0.00  0.00    +0.000 A 
ATOM     21  C   UNL     1      44.969   4.679   9.762  0.00  0.00    +0.000 A 
ATOM     22  C   UNL     1      45.882   5.543  10.394  0.00  0.00    +0.000 A 
BRANCH  21  23
ATOM     23  C   UNL     1      45.425   3.848   8.589  0.00  0.00    +0.000 C 
ATOM     24  F   UNL     1      45.835   2.596   8.931  0.00  0.00    +0.000 F 
ATOM     25  F   UNL     1      44.436   3.678   7.667  0.00  0.00    +0.000 F 
ATOM     26  F   UNL     1      46.466   4.415   7.919  0.00  0.00    +0.000 F 
ENDBRANCH  21  23
ENDBRANCH  16  17
ENDBRANCH   1  16
TORSDOF 5
ENDMDL
MODEL 7
REMARK VINA RESULT:    -6.927      5.150      7.817
REMARK INTER + INTRA:          -9.737
REMARK INTER:                  -9.194
REMARK INTRA:                  -0.543
REMARK UNBOUND:                -0.786
REMARK  Name = 
REMARK  6 active torsions:
REMARK  status: ('A' for Active; 'I' for Inactive)
REMARK    1  A    between atoms: C_1  and  C_2
REMARK    2  A    between atoms: C_2  and  C_3
REMARK    3  A    between atoms: C_2  and  C_14
REMARK    4  A    between atoms: C_3  and  N_4
REMARK    5  A    between atoms: C_8  and  C_9
REMARK    6  A    between atoms: C_18  and  C_19
REMARK                            x       y       z     vdW  Elec       q    Type
REMARK                         _______ _______ _______ _____ _____    ______ ____
ROOT
ATOM      1  C   UNL     1      45.239   5.117  13.281  0.00  0.00    +0.000 C 
ENDROOT
BRANCH   1   2
ATOM      2  N   UNL     1      46.434   5.851  13.686  0.00  0.00    +0.000 N 
ATOM      3  C   UNL     1      47.127   5.260  14.756  0.00  0.00    +0.000 A 
ATOM      4  C   UNL     1      48.275   5.880  15.272  0.00  0.00    +0.000 A 
ATOM      5  N   UNL     1      49.000   5.406  16.321  0.00  0.00    +0.000 NA
ATOM      6  C   UNL     1      48.526   4.241  16.843  0.00  0.00    +0.000 A 
ATOM      7  C   UNL     1      47.414   3.598  16.330  0.00  0.00    +0.000 A 
ATOM      8  N   UNL     1      46.702   4.090  15.282  0.00  0.00    +0.000 NA
ATOM      9  H   UNL     1      46.206   6.811  13.928  0.00  0.00    +0.000 HD
BRANCH   6  10
ATOM     10  C   UNL     1      49.227   3.665  18.022  0.00  0.00    +0.000 C 
ATOM     11  N   UNL     1      48.422   3.216  19.034  0.00  0.00    +0.000 N 
ATOM     12  O   UNL     1      50.447   3.585  18.083  0.00  0.00    +0.000 OA
ATOM     13  H   UNL     1      47.414   3.283  18.951  0.00  0.00    +0.000 HD
ATOM     14  H   UNL     1      48.840   2.792  19.850  0.00  0.00    +0.000 HD
ENDBRANCH   6  10
ENDBRANCH   1   2
BRANCH   1  16
ATOM     15  C   UNL     1      44.728   6.792  11.393  0.00  0.00    +0.000 C 
ATOM     16  C   UNL     1      45.024   5.390  11.821  0.00  0.00    +0.000 C 
BRANCH  16  17
ATOM     17  C   UNL     1      44.931   4.288  10.853  0.00  0.00    +0.000 A 
ATOM     18  C   UNL     1      44.071   3.203  11.062  0.00  0.00    +0.000 A 
ATOM     19  C   UNL     1      43.993   2.162  10.133  0.00  0.00    +0.000 A 
ATOM     20  C   UNL     1      44.762   2.201   8.971  0.00  0.00    +0.000 A 
ATOM     21  C   UNL     1      45.619   3.281   8.729  0.00  0.00    +0.000 A 
ATOM     22  C   UNL     1      45.708   4.307   9.686  0.00  0.00    +0.000 A 
BRANCH  21  23
ATOM     23  C   UNL     1      46.426   3.378   7.459  0.00  0.00    +0.000 C 
ATOM     24  F   UNL     1      45.690   3.205   6.327  0.00  0.00    +0.000 F 
ATOM     25  F   UNL     1      47.032   4.591   7.328  0.00  0.00    +0.000 F 
ATOM     26  F   UNL     1      47.425   2.455   7.402  0.00  0.00    +0.000 F 
ENDBRANCH  21  23
ENDBRANCH  16  17
ENDBRANCH   1  16
TORSDOF 5
ENDMDL
MODEL 8
REMARK VINA RESULT:    -6.814      5.414      8.059
REMARK INTER + INTRA:          -9.592
REMARK INTER:                  -9.008
REMARK INTRA:                  -0.584
REMARK UNBOUND:                -0.786
REMARK  Name = 
REMARK  6 active torsions:
REMARK  status: ('A' for Active; 'I' for Inactive)
REMARK    1  A    between atoms: C_1  and  C_2
REMARK    2  A    between atoms: C_2  and  C_3
REMARK    3  A    between atoms: C_2  and  C_14
REMARK    4  A    between atoms: C_3  and  N_4
REMARK    5  A    between atoms: C_8  and  C_9
REMARK    6  A    between atoms: C_18  and  C_19
REMARK                            x       y       z     vdW  Elec       q    Type
REMARK                         _______ _______ _______ _____ _____    ______ ____
ROOT
ATOM      1  C   UNL     1      47.447   6.223  13.485  0.00  0.00    +0.000 C 
ENDROOT
BRANCH   1   2
ATOM      2  N   UNL     1      46.909   5.109  14.261  0.00  0.00    +0.000 N 
ATOM      3  C   UNL     1      47.519   4.945  15.516  0.00  0.00    +0.000 A 
ATOM      4  C   UNL     1      47.124   3.889  16.350  0.00  0.00    +0.000 A 
ATOM      5  N   UNL     1      47.670   3.626  17.569  0.00  0.00    +0.000 NA
ATOM      6  C   UNL     1      48.648   4.498  17.940  0.00  0.00    +0.000 A 
ATOM      7  C   UNL     1      49.030   5.563  17.145  0.00  0.00    +0.000 A 
ATOM      8  N   UNL     1      48.474   5.806  15.929  0.00  0.00    +0.000 NA
ATOM      9  H   UNL     1      46.978   4.239  13.740  0.00  0.00    +0.000 HD
BRANCH   6  10
ATOM     10  C   UNL     1      49.335   4.268  19.239  0.00  0.00    +0.000 C 
ATOM     11  N   UNL     1      48.608   3.601  20.188  0.00  0.00    +0.000 N 
ATOM     12  O   UNL     1      50.483   4.638  19.447  0.00  0.00    +0.000 OA
ATOM     13  H   UNL     1      47.664   3.293  19.985  0.00  0.00    +0.000 HD
ATOM     14  H   UNL     1      49.031   3.393  21.082  0.00  0.00    +0.000 HD
ENDBRANCH   6  10
ENDBRANCH   1   2
BRANCH   1  16
ATOM     15  C   UNL     1      46.030   8.320  13.009  0.00  0.00    +0.000 C 
ATOM     16  C   UNL     1      46.293   6.866  12.773  0.00  0.00    +0.000 C 
BRANCH  16  17
ATOM     17  C   UNL     1      45.337   6.059  12.002  0.00  0.00    +0.000 A 
ATOM     18  C   UNL     1      44.007   5.911  12.413  0.00  0.00    +0.000 A 
ATOM     19  C   UNL     1      43.109   5.140  11.670  0.00  0.00    +0.000 A 
ATOM     20  C   UNL     1      43.525   4.521  10.492  0.00  0.00    +0.000 A 
ATOM     21  C   UNL     1      44.845   4.665  10.049  0.00  0.00    +0.000 A 
ATOM     22  C   UNL     1      45.745   5.420  10.823  0.00  0.00    +0.000 A 
BRANCH  21  23
ATOM     23  C   UNL     1      45.314   4.050   8.755  0.00  0.00    +0.000 C 
ATOM     24  F   UNL     1      45.753   2.767   8.885  0.00  0.00    +0.000 F 
ATOM     25  F   UNL     1      44.327   4.013   7.817  0.00  0.00    +0.000 F 
ATOM     26  F   UNL     1      46.341   4.742   8.188  0.00  0.00    +0.000 F 
ENDBRANCH  21  23
ENDBRANCH  16  17
ENDBRANCH   1  16
TORSDOF 5
ENDMDL
MODEL 9
REMARK VINA RESULT:    -6.214      3.700      5.697
REMARK INTER + INTRA:          -8.816
REMARK INTER:                  -7.968
REMARK INTRA:                  -0.849
REMARK UNBOUND:                -0.786
REMARK  Name = 
REMARK  6 active torsions:
REMARK  status: ('A' for Active; 'I' for Inactive)
REMARK    1  A    between atoms: C_1  and  C_2
REMARK    2  A    between atoms: C_2  and  C_3
REMARK    3  A    between atoms: C_2  and  C_14
REMARK    4  A    between atoms: C_3  and  N_4
REMARK    5  A    between atoms: C_8  and  C_9
REMARK    6  A    between atoms: C_18  and  C_19
REMARK                            x       y       z     vdW  Elec       q    Type
REMARK                         _______ _______ _______ _____ _____    ______ ____
ROOT
ATOM      1  C   UNL     1      48.488   7.319  14.053  0.00  0.00    +0.000 C 
ENDROOT
BRANCH   1   2
ATOM      2  N   UNL     1      47.144   7.715  13.644  0.00  0.00    +0.000 N 
ATOM      3  C   UNL     1      46.351   6.646  13.195  0.00  0.00    +0.000 A 
ATOM      4  C   UNL     1      45.048   6.890  12.735  0.00  0.00    +0.000 A 
ATOM      5  N   UNL     1      44.210   5.932  12.254  0.00  0.00    +0.000 NA
ATOM      6  C   UNL     1      44.736   4.677  12.264  0.00  0.00    +0.000 A 
ATOM      7  C   UNL     1      46.007   4.411  12.741  0.00  0.00    +0.000 A 
ATOM      8  N   UNL     1      46.829   5.383  13.215  0.00  0.00    +0.000 NA
ATOM      9  H   UNL     1      47.182   8.429  12.921  0.00  0.00    +0.000 HD
BRANCH   6  10
ATOM     10  C   UNL     1      43.910   3.566  11.717  0.00  0.00    +0.000 C 
ATOM     11  N   UNL     1      43.778   2.469  12.524  0.00  0.00    +0.000 N 
ATOM     12  O   UNL     1      43.371   3.631  10.620  0.00  0.00    +0.000 OA
ATOM     13  H   UNL     1      44.225   2.447  13.434  0.00  0.00    +0.000 HD
ATOM     14  H   UNL     1      43.209   1.693  12.217  0.00  0.00    +0.000 HD
ENDBRANCH   6  10
ENDBRANCH   1   2
BRANCH   1  16
ATOM     15  C   UNL     1      48.909   9.138  15.826  0.00  0.00    +0.000 C 
ATOM     16  C   UNL     1      48.645   7.704  15.495  0.00  0.00    +0.000 C 
BRANCH  16  17
ATOM     17  C   UNL     1      48.713   6.679  16.548  0.00  0.00    +0.000 A 
ATOM     18  C   UNL     1      49.013   7.014  17.874  0.00  0.00    +0.000 A 
ATOM     19  C   UNL     1      49.075   6.029  18.863  0.00  0.00    +0.000 A 
ATOM     20  C   UNL     1      48.818   4.696  18.543  0.00  0.00    +0.000 A 
ATOM     21  C   UNL     1      48.501   4.337  17.228  0.00  0.00    +0.000 A 
ATOM     22  C   UNL     1      48.470   5.334  16.238  0.00  0.00    +0.000 A 
BRANCH  21  23
ATOM     23  C   UNL     1      48.169   2.913  16.858  0.00  0.00    +0.000 C 
ATOM     24  F   UNL     1      49.215   2.053  16.996  0.00  0.00    +0.000 F 
ATOM     25  F   UNL     1      47.165   2.404  17.626  0.00  0.00    +0.000 F 
ATOM     26  F   UNL     1      47.750   2.791  15.568  0.00  0.00    +0.000 F 
ENDBRANCH  21  23
ENDBRANCH  16  17
ENDBRANCH   1  16
TORSDOF 5
ENDMDL
