MODEL 1
REMARK VINA RESULT:    -9.179      0.000      0.000
REMARK INTER + INTRA:         -13.427
REMARK INTER:                 -12.399
REMARK INTRA:                  -1.028
REMARK UNBOUND:                -1.028
REMARK  Name = 
REMARK  6 active torsions:
REMARK  status: ('A' for Active; 'I' for Inactive)
REMARK    1  A    between atoms: C_2  and  C_4
REMARK    2  A    between atoms: N_8  and  C_9
REMARK    3  A    between atoms: C_9  and  C_10
REMARK    4  A    between atoms: C_10  and  C_13
REMARK    5  A    between atoms: C_17  and  O_18
REMARK    6  A    between atoms: O_18  and  C_19
REMARK                            x       y       z     vdW  Elec       q    Type
REMARK                         _______ _______ _______ _____ _____    ______ ____
ROOT
ATOM      1  C   UNL     1      43.363   4.419  11.055  0.00  0.00    +0.000 C 
ENDROOT
BRANCH   1   6
ATOM      2  C   UNL     1      46.558   2.625   7.431  0.00  0.00    +0.000 A 
ATOM      3  C   UNL     1      46.147   3.920   7.726  0.00  0.00    +0.000 A 
ATOM      4  C   UNL     1      45.240   4.124   8.768  0.00  0.00    +0.000 A 
ATOM      5  C   UNL     1      44.759   3.038   9.494  0.00  0.00    +0.000 A 
ATOM      6  N   UNL     1      43.884   3.160  10.537  0.00  0.00    +0.000 N 
ATOM      7  N   UNL     1      45.138   1.781   9.201  0.00  0.00    +0.000 NA
ATOM      8  C   UNL     1      46.015   1.592   8.179  0.00  0.00    +0.000 A 
ATOM      9  H   UNL     1      43.614   2.280  10.966  0.00  0.00    +0.000 HD
BRANCH   2  11
ATOM     10  N   UNL     1      47.540   3.140   5.270  0.00  0.00    +0.000 N 
ATOM     11  C   UNL     1      47.525   2.314   6.359  0.00  0.00    +0.000 C 
ATOM     12  O   UNL     1      48.305   1.374   6.451  0.00  0.00    +0.000 OA
ATOM     13  H   UNL     1      48.279   2.975   4.598  0.00  0.00    +0.000 HD
ATOM     14  H   UNL     1      47.103   4.051   5.272  0.00  0.00    +0.000 HD
ENDBRANCH   2  11
ENDBRANCH   1   6
BRANCH   1  15
ATOM     15  C   UNL     1      43.687   4.662  12.552  0.00  0.00    +0.000 C 
ATOM     16  F   UNL     1      42.757   5.518  13.069  0.00  0.00    +0.000 F 
ATOM     17  F   UNL     1      43.515   3.489  13.232  0.00  0.00    +0.000 F 
BRANCH  15  18
ATOM     18  C   UNL     1      45.095   5.200  12.705  0.00  0.00    +0.000 A 
ATOM     19  C   UNL     1      45.620   6.126  11.796  0.00  0.00    +0.000 A 
ATOM     20  C   UNL     1      46.904   6.604  12.002  0.00  0.00    +0.000 A 
ATOM     21  N   UNL     1      47.690   6.229  13.033  0.00  0.00    +0.000 NA
ATOM     22  C   UNL     1      47.170   5.331  13.892  0.00  0.00    +0.000 A 
ATOM     23  C   UNL     1      45.896   4.799  13.780  0.00  0.00    +0.000 A 
BRANCH  22  24
ATOM     24  O   UNL     1      47.919   4.918  14.977  0.00  0.00    +0.000 OA
BRANCH  24  25
ATOM     25  C   UNL     1      47.281   3.978  15.871  0.00  0.00    +0.000 C 
ATOM     26  C   UNL     1      47.197   4.396  17.358  0.00  0.00    +0.000 C 
ATOM     27  C   UNL     1      47.735   3.018  17.760  0.00  0.00    +0.000 C 
ATOM     28  C   UNL     1      48.188   2.803  16.310  0.00  0.00    +0.000 C 
ENDBRANCH  24  25
ENDBRANCH  22  24
ENDBRANCH  15  18
ENDBRANCH   1  15
TORSDOF 6
ENDMDL
MODEL 2
REMARK VINA RESULT:    -8.754      1.953      3.401
REMARK INTER + INTRA:         -12.852
REMARK INTER:                 -11.780
REMARK INTRA:                  -1.073
REMARK UNBOUND:                -1.028
REMARK  Name = 
REMARK  6 active torsions:
REMARK  status: ('A' for Active; 'I' for Inactive)
REMARK    1  A    between atoms: C_2  and  C_4
REMARK    2  A    between atoms: N_8  and  C_9
REMARK    3  A    between atoms: C_9  and  C_10
REMARK    4  A    between atoms: C_10  and  C_13
REMARK    5  A    between atoms: C_17  and  O_18
REMARK    6  A    between atoms: O_18  and  C_19
REMARK                            x       y       z     vdW  Elec       q    Type
REMARK                         _______ _______ _______ _____ _____    ______ ____
ROOT
ATOM      1  C   UNL     1      43.322   4.747  10.914  0.00  0.00    +0.000 C 
ENDROOT
BRANCH   1   6
ATOM      2  C   UNL     1      46.444   2.312   7.616  0.00  0.00    +0.000 A 
ATOM      3  C   UNL     1      45.703   1.836   8.691  0.00  0.00    +0.000 A 
ATOM      4  C   UNL     1      44.945   2.735   9.444  0.00  0.00    +0.000 A 
ATOM      5  C   UNL     1      44.941   4.087   9.115  0.00  0.00    +0.000 A 
ATOM      6  N   UNL     1      44.211   5.024   9.793  0.00  0.00    +0.000 N 
ATOM      7  N   UNL     1      45.672   4.557   8.088  0.00  0.00    +0.000 NA
ATOM      8  C   UNL     1      46.413   3.675   7.366  0.00  0.00    +0.000 A 
ATOM      9  H   UNL     1      44.314   5.972   9.444  0.00  0.00    +0.000 HD
BRANCH   2  11
ATOM     10  N   UNL     1      48.317   2.008   6.099  0.00  0.00    +0.000 N 
ATOM     11  C   UNL     1      47.263   1.435   6.754  0.00  0.00    +0.000 C 
ATOM     12  O   UNL     1      47.029   0.237   6.651  0.00  0.00    +0.000 OA
ATOM     13  H   UNL     1      48.927   1.373   5.600  0.00  0.00    +0.000 HD
ATOM     14  H   UNL     1      48.687   2.913   6.351  0.00  0.00    +0.000 HD
ENDBRANCH   2  11
ENDBRANCH   1   6
BRANCH   1  15
ATOM     15  C   UNL     1      43.600   5.621  12.165  0.00  0.00    +0.000 C 
ATOM     16  F   UNL     1      43.451   6.935  11.824  0.00  0.00    +0.000 F 
ATOM     17  F   UNL     1      42.626   5.377  13.092  0.00  0.00    +0.000 F 
BRANCH  15  18
ATOM     18  C   UNL     1      44.983   5.333  12.711  0.00  0.00    +0.000 A 
ATOM     19  C   UNL     1      45.397   4.024  12.981  0.00  0.00    +0.000 A 
ATOM     20  C   UNL     1      46.684   3.818  13.454  0.00  0.00    +0.000 A 
ATOM     21  N   UNL     1      47.571   4.811  13.675  0.00  0.00    +0.000 NA
ATOM     22  C   UNL     1      47.150   6.064  13.417  0.00  0.00    +0.000 A 
ATOM     23  C   UNL     1      45.889   6.375  12.935  0.00  0.00    +0.000 A 
BRANCH  22  24
ATOM     24  O   UNL     1      48.017   7.123  13.609  0.00  0.00    +0.000 OA
BRANCH  24  25
ATOM     25  C   UNL     1      48.073   8.101  12.546  0.00  0.00    +0.000 C 
ATOM     26  C   UNL     1      49.171   7.886  11.477  0.00  0.00    +0.000 C 
ATOM     27  C   UNL     1      49.574   9.359  11.619  0.00  0.00    +0.000 C 
ATOM     28  C   UNL     1      48.784   9.419  12.933  0.00  0.00    +0.000 C 
ENDBRANCH  24  25
ENDBRANCH  22  24
ENDBRANCH  15  18
ENDBRANCH   1  15
TORSDOF 6
ENDMDL
MODEL 3
REMARK VINA RESULT:    -8.199      2.305      3.066
REMARK INTER + INTRA:         -12.103
REMARK INTER:                 -11.093
REMARK INTRA:                  -1.010
REMARK UNBOUND:                -1.028
REMARK  Name = 
REMARK  6 active torsions:
REMARK  status: ('A' for Active; 'I' for Inactive)
REMARK    1  A    between atoms: C_2  and  C_4
REMARK    2  A    between atoms: N_8  and  C_9
REMARK    3  A    between atoms: C_9  and  C_10
REMARK    4  A    between atoms: C_10  and  C_13
REMARK    5  A    between atoms: C_17  and  O_18
REMARK    6  A    between atoms: O_18  and  C_19
REMARK                            x       y       z     vdW  Elec       q    Type
REMARK                         _______ _______ _______ _____ _____    ______ ____
ROOT
ATOM      1  C   UNL     1      43.393   3.460  11.276  0.00  0.00    +0.000 C 
ENDROOT
BRANCH   1   6
ATOM      2  C   UNL     1      46.543   2.724   7.264  0.00  0.00    +0.000 A 
ATOM      3  C   UNL     1      45.945   3.879   7.755  0.00  0.00    +0.000 A 
ATOM      4  C   UNL     1      45.103   3.788   8.865  0.00  0.00    +0.000 A 
ATOM      5  C   UNL     1      44.871   2.553   9.464  0.00  0.00    +0.000 A 
ATOM      6  N   UNL     1      44.075   2.388  10.563  0.00  0.00    +0.000 N 
ATOM      7  N   UNL     1      45.430   1.428   8.981  0.00  0.00    +0.000 NA
ATOM      8  C   UNL     1      46.242   1.526   7.895  0.00  0.00    +0.000 A 
ATOM      9  H   UNL     1      43.991   1.427  10.883  0.00  0.00    +0.000 HD
BRANCH   2  11
ATOM     10  N   UNL     1      48.768   2.408   6.343  0.00  0.00    +0.000 N 
ATOM     11  C   UNL     1      47.459   2.723   6.105  0.00  0.00    +0.000 C 
ATOM     12  O   UNL     1      47.061   2.964   4.973  0.00  0.00    +0.000 OA
ATOM     13  H   UNL     1      49.355   2.308   5.525  0.00  0.00    +0.000 HD
ATOM     14  H   UNL     1      49.075   1.964   7.197  0.00  0.00    +0.000 HD
ENDBRANCH   2  11
ENDBRANCH   1   6
BRANCH   1  15
ATOM     15  C   UNL     1      44.128   3.925  12.560  0.00  0.00    +0.000 C 
ATOM     16  F   UNL     1      43.257   3.865  13.611  0.00  0.00    +0.000 F 
ATOM     17  F   UNL     1      45.108   3.017  12.854  0.00  0.00    +0.000 F 
BRANCH  15  18
ATOM     18  C   UNL     1      44.690   5.318  12.371  0.00  0.00    +0.000 A 
ATOM     19  C   UNL     1      44.030   6.264  11.578  0.00  0.00    +0.000 A 
ATOM     20  C   UNL     1      44.576   7.532  11.463  0.00  0.00    +0.000 A 
ATOM     21  N   UNL     1      45.717   7.917  12.072  0.00  0.00    +0.000 NA
ATOM     22  C   UNL     1      46.342   6.991  12.825  0.00  0.00    +0.000 A 
ATOM     23  C   UNL     1      45.875   5.700  13.010  0.00  0.00    +0.000 A 
BRANCH  22  24
ATOM     24  O   UNL     1      47.506   7.328  13.487  0.00  0.00    +0.000 OA
BRANCH  24  25
ATOM     25  C   UNL     1      48.417   8.195  12.773  0.00  0.00    +0.000 C 
ATOM     26  C   UNL     1      49.017   7.627  11.464  0.00  0.00    +0.000 C 
ATOM     27  C   UNL     1      50.410   8.064  11.934  0.00  0.00    +0.000 C 
ATOM     28  C   UNL     1      49.851   8.226  13.353  0.00  0.00    +0.000 C 
ENDBRANCH  24  25
ENDBRANCH  22  24
ENDBRANCH  15  18
ENDBRANCH   1  15
TORSDOF 6
ENDMDL
MODEL 4
REMARK VINA RESULT:    -7.867      2.720      4.618
REMARK INTER + INTRA:         -11.655
REMARK INTER:                 -10.652
REMARK INTRA:                  -1.002
REMARK UNBOUND:                -1.028
REMARK  Name = 
REMARK  6 active torsions:
REMARK  status: ('A' for Active; 'I' for Inactive)
REMARK    1  A    between atoms: C_2  and  C_4
REMARK    2  A    between atoms: N_8  and  C_9
REMARK    3  A    between atoms: C_9  and  C_10
REMARK    4  A    between atoms: C_10  and  C_13
REMARK    5  A    between atoms: C_17  and  O_18
REMARK    6  A    between atoms: O_18  and  C_19
REMARK                            x       y       z     vdW  Elec       q    Type
REMARK                         _______ _______ _______ _____ _____    ______ ____
ROOT
ATOM      1  C   UNL     1      43.368   3.744  11.267  0.00  0.00    +0.000 C 
ENDROOT
BRANCH   1   6
ATOM      2  C   UNL     1      46.514   2.780   7.301  0.00  0.00    +0.000 A 
ATOM      3  C   UNL     1      45.960   3.971   7.758  0.00  0.00    +0.000 A 
ATOM      4  C   UNL     1      45.107   3.942   8.863  0.00  0.00    +0.000 A 
ATOM      5  C   UNL     1      44.821   2.733   9.490  0.00  0.00    +0.000 A 
ATOM      6  N   UNL     1      44.010   2.627  10.586  0.00  0.00    +0.000 N 
ATOM      7  N   UNL     1      45.337   1.575   9.040  0.00  0.00    +0.000 NA
ATOM      8  C   UNL     1      46.160   1.612   7.958  0.00  0.00    +0.000 A 
ATOM      9  H   UNL     1      43.886   1.680  10.929  0.00  0.00    +0.000 HD
BRANCH   2  11
ATOM     10  N   UNL     1      48.740   2.388   6.411  0.00  0.00    +0.000 N 
ATOM     11  C   UNL     1      47.438   2.714   6.150  0.00  0.00    +0.000 C 
ATOM     12  O   UNL     1      47.052   2.911   5.005  0.00  0.00    +0.000 OA
ATOM     13  H   UNL     1      49.331   2.242   5.603  0.00  0.00    +0.000 HD
ATOM     14  H   UNL     1      49.034   1.978   7.286  0.00  0.00    +0.000 HD
ENDBRANCH   2  11
ENDBRANCH   1   6
BRANCH   1  15
ATOM     15  C   UNL     1      44.037   4.127  12.612  0.00  0.00    +0.000 C 
ATOM     16  F   UNL     1      43.088   4.116  13.594  0.00  0.00    +0.000 F 
ATOM     17  F   UNL     1      44.921   3.141  12.955  0.00  0.00    +0.000 F 
BRANCH  15  18
ATOM     18  C   UNL     1      44.716   5.476  12.498  0.00  0.00    +0.000 A 
ATOM     19  C   UNL     1      45.857   5.779  13.249  0.00  0.00    +0.000 A 
ATOM     20  C   UNL     1      46.451   7.020  13.083  0.00  0.00    +0.000 A 
ATOM     21  N   UNL     1      45.994   7.965  12.235  0.00  0.00    +0.000 NA
ATOM     22  C   UNL     1      44.891   7.657  11.527  0.00  0.00    +0.000 A 
ATOM     23  C   UNL     1      44.227   6.445  11.614  0.00  0.00    +0.000 A 
BRANCH  22  24
ATOM     24  O   UNL     1      44.382   8.577  10.630  0.00  0.00    +0.000 OA
BRANCH  24  25
ATOM     25  C   UNL     1      43.641   9.680  11.201  0.00  0.00    +0.000 C 
ATOM     26  C   UNL     1      42.285  10.011  10.533  0.00  0.00    +0.000 C 
ATOM     27  C   UNL     1      42.685  11.491  10.492  0.00  0.00    +0.000 C 
ATOM     28  C   UNL     1      44.138  11.076  10.758  0.00  0.00    +0.000 C 
ENDBRANCH  24  25
ENDBRANCH  22  24
ENDBRANCH  15  18
ENDBRANCH   1  15
TORSDOF 6
ENDMDL
MODEL 5
REMARK VINA RESULT:    -7.740      2.271      7.415
REMARK INTER + INTRA:         -11.483
REMARK INTER:                 -10.638
REMARK INTRA:                  -0.845
REMARK UNBOUND:                -1.028
REMARK  Name = 
REMARK  6 active torsions:
REMARK  status: ('A' for Active; 'I' for Inactive)
REMARK    1  A    between atoms: C_2  and  C_4
REMARK    2  A    between atoms: N_8  and  C_9
REMARK    3  A    between atoms: C_9  and  C_10
REMARK    4  A    between atoms: C_10  and  C_13
REMARK    5  A    between atoms: C_17  and  O_18
REMARK    6  A    between atoms: O_18  and  C_19
REMARK                            x       y       z     vdW  Elec       q    Type
REMARK                         _______ _______ _______ _____ _____    ______ ____
ROOT
ATOM      1  C   UNL     1      46.871   6.596  11.720  0.00  0.00    +0.000 C 
ENDROOT
BRANCH   1   6
ATOM      2  C   UNL     1      47.813   4.103  16.131  0.00  0.00    +0.000 A 
ATOM      3  C   UNL     1      47.093   3.723  15.004  0.00  0.00    +0.000 A 
ATOM      4  C   UNL     1      46.977   4.619  13.939  0.00  0.00    +0.000 A 
ATOM      5  C   UNL     1      47.575   5.873  14.017  0.00  0.00    +0.000 A 
ATOM      6  N   UNL     1      47.520   6.796  13.009  0.00  0.00    +0.000 N 
ATOM      7  N   UNL     1      48.256   6.255  15.113  0.00  0.00    +0.000 NA
ATOM      8  C   UNL     1      48.357   5.378  16.147  0.00  0.00    +0.000 A 
ATOM      9  H   UNL     1      47.996   7.671  13.212  0.00  0.00    +0.000 HD
BRANCH   2  11
ATOM     10  N   UNL     1      46.879   2.710  17.888  0.00  0.00    +0.000 N 
ATOM     11  C   UNL     1      48.003   3.218  17.299  0.00  0.00    +0.000 C 
ATOM     12  O   UNL     1      49.120   2.925  17.706  0.00  0.00    +0.000 OA
ATOM     13  H   UNL     1      47.032   2.023  18.616  0.00  0.00    +0.000 HD
ATOM     14  H   UNL     1      45.975   2.721  17.438  0.00  0.00    +0.000 HD
ENDBRANCH   2  11
ENDBRANCH   1   6
BRANCH   1  15
ATOM     15  C   UNL     1      45.326   6.722  11.770  0.00  0.00    +0.000 C 
ATOM     16  F   UNL     1      44.964   7.192  13.000  0.00  0.00    +0.000 F 
ATOM     17  F   UNL     1      44.939   7.691  10.887  0.00  0.00    +0.000 F 
BRANCH  15  18
ATOM     18  C   UNL     1      44.678   5.389  11.462  0.00  0.00    +0.000 A 
ATOM     19  C   UNL     1      43.807   4.780  12.372  0.00  0.00    +0.000 A 
ATOM     20  C   UNL     1      43.221   3.572  12.024  0.00  0.00    +0.000 A 
ATOM     21  N   UNL     1      43.441   2.939  10.853  0.00  0.00    +0.000 NA
ATOM     22  C   UNL     1      44.289   3.538   9.994  0.00  0.00    +0.000 A 
ATOM     23  C   UNL     1      44.919   4.747  10.242  0.00  0.00    +0.000 A 
BRANCH  22  24
ATOM     24  O   UNL     1      44.544   2.947   8.771  0.00  0.00    +0.000 OA
BRANCH  24  25
ATOM     25  C   UNL     1      45.932   2.886   8.371  0.00  0.00    +0.000 C 
ATOM     26  C   UNL     1      46.256   3.390   6.945  0.00  0.00    +0.000 C 
ATOM     27  C   UNL     1      47.073   2.116   6.698  0.00  0.00    +0.000 C 
ATOM     28  C   UNL     1      46.402   1.481   7.923  0.00  0.00    +0.000 C 
ENDBRANCH  24  25
ENDBRANCH  22  24
ENDBRANCH  15  18
ENDBRANCH   1  15
TORSDOF 6
ENDMDL
MODEL 6
REMARK VINA RESULT:    -6.518      3.464      4.944
REMARK INTER + INTRA:          -9.832
REMARK INTER:                  -8.798
REMARK INTRA:                  -1.034
REMARK UNBOUND:                -1.028
REMARK  Name = 
REMARK  6 active torsions:
REMARK  status: ('A' for Active; 'I' for Inactive)
REMARK    1  A    between atoms: C_2  and  C_4
REMARK    2  A    between atoms: N_8  and  C_9
REMARK    3  A    between atoms: C_9  and  C_10
REMARK    4  A    between atoms: C_10  and  C_13
REMARK    5  A    between atoms: C_17  and  O_18
REMARK    6  A    between atoms: O_18  and  C_19
REMARK                            x       y       z     vdW  Elec       q    Type
REMARK                         _______ _______ _______ _____ _____    ______ ____
ROOT
ATOM      1  C   UNL     1      46.847   8.731  12.482  0.00  0.00    +0.000 C 
ENDROOT
BRANCH   1   6
ATOM      2  C   UNL     1      44.497   4.269  11.417  0.00  0.00    +0.000 A 
ATOM      3  C   UNL     1      45.295   5.091  10.630  0.00  0.00    +0.000 A 
ATOM      4  C   UNL     1      45.794   6.276  11.174  0.00  0.00    +0.000 A 
ATOM      5  C   UNL     1      45.489   6.621  12.488  0.00  0.00    +0.000 A 
ATOM      6  N   UNL     1      45.954   7.754  13.095  0.00  0.00    +0.000 N 
ATOM      7  N   UNL     1      44.701   5.840  13.249  0.00  0.00    +0.000 NA
ATOM      8  C   UNL     1      44.214   4.692  12.707  0.00  0.00    +0.000 A 
ATOM      9  H   UNL     1      45.641   7.878  14.053  0.00  0.00    +0.000 HD
BRANCH   2  11
ATOM     10  N   UNL     1      43.423   2.139  11.871  0.00  0.00    +0.000 N 
ATOM     11  C   UNL     1      43.938   2.990  10.934  0.00  0.00    +0.000 C 
ATOM     12  O   UNL     1      43.906   2.714   9.742  0.00  0.00    +0.000 OA
ATOM     13  H   UNL     1      42.949   1.319  11.513  0.00  0.00    +0.000 HD
ATOM     14  H   UNL     1      43.202   2.433  12.812  0.00  0.00    +0.000 HD
ENDBRANCH   2  11
ENDBRANCH   1   6
BRANCH   1  15
ATOM     15  C   UNL     1      48.351   8.445  12.728  0.00  0.00    +0.000 C 
ATOM     16  F   UNL     1      48.726   7.377  11.962  0.00  0.00    +0.000 F 
ATOM     17  F   UNL     1      49.078   9.501  12.253  0.00  0.00    +0.000 F 
BRANCH  15  18
ATOM     18  C   UNL     1      48.608   8.202  14.200  0.00  0.00    +0.000 A 
ATOM     19  C   UNL     1      48.512   9.241  15.133  0.00  0.00    +0.000 A 
ATOM     20  C   UNL     1      48.731   8.954  16.472  0.00  0.00    +0.000 A 
ATOM     21  N   UNL     1      49.034   7.724  16.937  0.00  0.00    +0.000 NA
ATOM     22  C   UNL     1      49.129   6.739  16.022  0.00  0.00    +0.000 A 
ATOM     23  C   UNL     1      48.922   6.920  14.665  0.00  0.00    +0.000 A 
BRANCH  22  24
ATOM     24  O   UNL     1      49.422   5.455  16.437  0.00  0.00    +0.000 OA
BRANCH  24  25
ATOM     25  C   UNL     1      48.449   4.827  17.302  0.00  0.00    +0.000 C 
ATOM     26  C   UNL     1      48.816   3.425  17.843  0.00  0.00    +0.000 C 
ATOM     27  C   UNL     1      47.429   2.920  17.430  0.00  0.00    +0.000 C 
ATOM     28  C   UNL     1      47.266   4.168  16.554  0.00  0.00    +0.000 C 
ENDBRANCH  24  25
ENDBRANCH  22  24
ENDBRANCH  15  18
ENDBRANCH   1  15
TORSDOF 6
ENDMDL
MODEL 7
REMARK VINA RESULT:    -6.434      2.688      8.350
REMARK INTER + INTRA:          -9.719
REMARK INTER:                  -9.147
REMARK INTRA:                  -0.571
REMARK UNBOUND:                -1.028
REMARK  Name = 
REMARK  6 active torsions:
REMARK  status: ('A' for Active; 'I' for Inactive)
REMARK    1  A    between atoms: C_2  and  C_4
REMARK    2  A    between atoms: N_8  and  C_9
REMARK    3  A    between atoms: C_9  and  C_10
REMARK    4  A    between atoms: C_10  and  C_13
REMARK    5  A    between atoms: C_17  and  O_18
REMARK    6  A    between atoms: O_18  and  C_19
REMARK                            x       y       z     vdW  Elec       q    Type
REMARK                         _______ _______ _______ _____ _____    ______ ____
ROOT
ATOM      1  C   UNL     1      46.427   5.462  13.119  0.00  0.00    +0.000 C 
ENDROOT
BRANCH   1   6
ATOM      2  C   UNL     1      49.924   6.041  16.859  0.00  0.00    +0.000 A 
ATOM      3  C   UNL     1      48.756   5.289  16.811  0.00  0.00    +0.000 A 
ATOM      4  C   UNL     1      47.969   5.332  15.658  0.00  0.00    +0.000 A 
ATOM      5  C   UNL     1      48.356   6.122  14.580  0.00  0.00    +0.000 A 
ATOM      6  N   UNL     1      47.648   6.203  13.413  0.00  0.00    +0.000 N 
ATOM      7  N   UNL     1      49.475   6.869  14.629  0.00  0.00    +0.000 NA
ATOM      8  C   UNL     1      50.230   6.826  15.758  0.00  0.00    +0.000 A 
ATOM      9  H   UNL     1      48.047   6.827  12.719  0.00  0.00    +0.000 HD
BRANCH   2  11
ATOM     10  N   UNL     1      50.300   5.663  19.229  0.00  0.00    +0.000 N 
ATOM     11  C   UNL     1      50.828   6.047  18.028  0.00  0.00    +0.000 C 
ATOM     12  O   UNL     1      52.009   6.352  17.924  0.00  0.00    +0.000 OA
ATOM     13  H   UNL     1      50.957   5.570  19.993  0.00  0.00    +0.000 HD
ATOM     14  H   UNL     1      49.421   5.172  19.306  0.00  0.00    +0.000 HD
ENDBRANCH   2  11
ENDBRANCH   1   6
BRANCH   1  15
ATOM     15  C   UNL     1      45.566   6.096  11.996  0.00  0.00    +0.000 C 
ATOM     16  F   UNL     1      44.451   6.650  12.557  0.00  0.00    +0.000 F 
ATOM     17  F   UNL     1      46.256   7.145  11.456  0.00  0.00    +0.000 F 
BRANCH  15  18
ATOM     18  C   UNL     1      45.215   5.057  10.951  0.00  0.00    +0.000 A 
ATOM     19  C   UNL     1      44.318   4.020  11.233  0.00  0.00    +0.000 A 
ATOM     20  C   UNL     1      44.013   3.114  10.230  0.00  0.00    +0.000 A 
ATOM     21  N   UNL     1      44.533   3.168   8.985  0.00  0.00    +0.000 NA
ATOM     22  C   UNL     1      45.400   4.168   8.736  0.00  0.00    +0.000 A 
ATOM     23  C   UNL     1      45.764   5.128   9.666  0.00  0.00    +0.000 A 
BRANCH  22  24
ATOM     24  O   UNL     1      45.955   4.285   7.476  0.00  0.00    +0.000 OA
BRANCH  24  25
ATOM     25  C   UNL     1      46.201   3.048   6.771  0.00  0.00    +0.000 C 
ATOM     26  C   UNL     1      47.463   2.259   7.193  0.00  0.00    +0.000 C 
ATOM     27  C   UNL     1      47.849   2.118   5.715  0.00  0.00    +0.000 C 
ATOM     28  C   UNL     1      46.847   3.229   5.377  0.00  0.00    +0.000 C 
ENDBRANCH  24  25
ENDBRANCH  22  24
ENDBRANCH  15  18
ENDBRANCH   1  15
TORSDOF 6
ENDMDL
MODEL 8
REMARK VINA RESULT:    -6.423      3.076      7.556
REMARK INTER + INTRA:          -9.703
REMARK INTER:                  -9.168
REMARK INTRA:                  -0.535
REMARK UNBOUND:                -1.028
REMARK  Name = 
REMARK  6 active torsions:
REMARK  status: ('A' for Active; 'I' for Inactive)
REMARK    1  A    between atoms: C_2  and  C_4
REMARK    2  A    between atoms: N_8  and  C_9
REMARK    3  A    between atoms: C_9  and  C_10
REMARK    4  A    between atoms: C_10  and  C_13
REMARK    5  A    between atoms: C_17  and  O_18
REMARK    6  A    between atoms: O_18  and  C_19
REMARK                            x       y       z     vdW  Elec       q    Type
REMARK                         _______ _______ _______ _____ _____    ______ ____
ROOT
ATOM      1  C   UNL     1      46.603   5.457  13.251  0.00  0.00    +0.000 C 
ENDROOT
BRANCH   1   6
ATOM      2  C   UNL     1      50.536   8.778  13.005  0.00  0.00    +0.000 A 
ATOM      3  C   UNL     1      50.115   7.795  12.116  0.00  0.00    +0.000 A 
ATOM      4  C   UNL     1      49.010   7.008  12.449  0.00  0.00    +0.000 A 
ATOM      5  C   UNL     1      48.349   7.213  13.656  0.00  0.00    +0.000 A 
ATOM      6  N   UNL     1      47.251   6.495  14.043  0.00  0.00    +0.000 N 
ATOM      7  N   UNL     1      48.764   8.149  14.529  0.00  0.00    +0.000 NA
ATOM      8  C   UNL     1      49.845   8.904  14.200  0.00  0.00    +0.000 A 
ATOM      9  H   UNL     1      46.880   6.749  14.953  0.00  0.00    +0.000 HD
BRANCH   2  11
ATOM     10  N   UNL     1      52.589   9.253  11.796  0.00  0.00    +0.000 N 
ATOM     11  C   UNL     1      51.684   9.668  12.733  0.00  0.00    +0.000 C 
ATOM     12  O   UNL     1      51.806  10.747  13.297  0.00  0.00    +0.000 OA
ATOM     13  H   UNL     1      53.307   9.922  11.547  0.00  0.00    +0.000 HD
ATOM     14  H   UNL     1      52.393   8.510  11.141  0.00  0.00    +0.000 HD
ENDBRANCH   2  11
ENDBRANCH   1   6
BRANCH   1  15
ATOM     15  C   UNL     1      45.394   5.962  12.423  0.00  0.00    +0.000 C 
ATOM     16  F   UNL     1      44.380   6.286  13.279  0.00  0.00    +0.000 F 
ATOM     17  F   UNL     1      45.742   7.137  11.816  0.00  0.00    +0.000 F 
BRANCH  15  18
ATOM     18  C   UNL     1      44.970   4.913  11.416  0.00  0.00    +0.000 A 
ATOM     19  C   UNL     1      44.170   3.829  11.794  0.00  0.00    +0.000 A 
ATOM     20  C   UNL     1      43.790   2.915  10.823  0.00  0.00    +0.000 A 
ATOM     21  N   UNL     1      44.146   3.004   9.525  0.00  0.00    +0.000 NA
ATOM     22  C   UNL     1      44.921   4.051   9.183  0.00  0.00    +0.000 A 
ATOM     23  C   UNL     1      45.349   5.023  10.073  0.00  0.00    +0.000 A 
BRANCH  22  24
ATOM     24  O   UNL     1      45.307   4.208   7.866  0.00  0.00    +0.000 OA
BRANCH  24  25
ATOM     25  C   UNL     1      45.636   2.995   7.151  0.00  0.00    +0.000 C 
ATOM     26  C   UNL     1      46.582   2.008   7.876  0.00  0.00    +0.000 C 
ATOM     27  C   UNL     1      47.429   1.909   6.601  0.00  0.00    +0.000 C 
ATOM     28  C   UNL     1      46.734   3.171   6.074  0.00  0.00    +0.000 C 
ENDBRANCH  24  25
ENDBRANCH  22  24
ENDBRANCH  15  18
ENDBRANCH   1  15
TORSDOF 6
ENDMDL
MODEL 9
REMARK VINA RESULT:    -6.422      2.825      8.132
REMARK INTER + INTRA:          -9.702
REMARK INTER:                  -9.217
REMARK INTRA:                  -0.485
REMARK UNBOUND:                -1.028
REMARK  Name = 
REMARK  6 active torsions:
REMARK  status: ('A' for Active; 'I' for Inactive)
REMARK    1  A    between atoms: C_2  and  C_4
REMARK    2  A    between atoms: N_8  and  C_9
REMARK    3  A    between atoms: C_9  and  C_10
REMARK    4  A    between atoms: C_10  and  C_13
REMARK    5  A    between atoms: C_17  and  O_18
REMARK    6  A    between atoms: O_18  and  C_19
REMARK                            x       y       z     vdW  Elec       q    Type
REMARK                         _______ _______ _______ _____ _____    ______ ____
ROOT
ATOM      1  C   UNL     1      47.551   5.915  13.003  0.00  0.00    +0.000 C 
ENDROOT
BRANCH   1   6
ATOM      2  C   UNL     1      48.265   5.189  18.055  0.00  0.00    +0.000 A 
ATOM      3  C   UNL     1      48.806   6.126  17.182  0.00  0.00    +0.000 A 
ATOM      4  C   UNL     1      48.450   6.081  15.833  0.00  0.00    +0.000 A 
ATOM      5  C   UNL     1      47.567   5.107  15.378  0.00  0.00    +0.000 A 
ATOM      6  N   UNL     1      47.158   5.010  14.076  0.00  0.00    +0.000 N 
ATOM      7  N   UNL     1      47.056   4.184  16.213  0.00  0.00    +0.000 NA
ATOM      8  C   UNL     1      47.414   4.231  17.524  0.00  0.00    +0.000 A 
ATOM      9  H   UNL     1      46.519   4.243  13.891  0.00  0.00    +0.000 HD
BRANCH   2  11
ATOM     10  N   UNL     1      48.843   6.364  20.100  0.00  0.00    +0.000 N 
ATOM     11  C   UNL     1      48.570   5.167  19.500  0.00  0.00    +0.000 C 
ATOM     12  O   UNL     1      48.549   4.126  20.144  0.00  0.00    +0.000 OA
ATOM     13  H   UNL     1      48.943   6.343  21.107  0.00  0.00    +0.000 HD
ATOM     14  H   UNL     1      48.624   7.252  19.670  0.00  0.00    +0.000 HD
ENDBRANCH   2  11
ENDBRANCH   1   6
BRANCH   1  15
ATOM     15  C   UNL     1      46.401   6.824  12.498  0.00  0.00    +0.000 C 
ATOM     16  F   UNL     1      45.936   7.567  13.545  0.00  0.00    +0.000 F 
ATOM     17  F   UNL     1      46.919   7.731  11.615  0.00  0.00    +0.000 F 
BRANCH  15  18
ATOM     18  C   UNL     1      45.306   5.988  11.869  0.00  0.00    +0.000 A 
ATOM     19  C   UNL     1      43.997   6.472  11.761  0.00  0.00    +0.000 A 
ATOM     20  C   UNL     1      43.042   5.673  11.151  0.00  0.00    +0.000 A 
ATOM     21  N   UNL     1      43.297   4.446  10.650  0.00  0.00    +0.000 NA
ATOM     22  C   UNL     1      44.560   3.995  10.771  0.00  0.00    +0.000 A 
ATOM     23  C   UNL     1      45.588   4.717  11.355  0.00  0.00    +0.000 A 
BRANCH  22  24
ATOM     24  O   UNL     1      44.888   2.753  10.265  0.00  0.00    +0.000 OA
BRANCH  24  25
ATOM     25  C   UNL     1      44.915   2.639   8.824  0.00  0.00    +0.000 C 
ATOM     26  C   UNL     1      46.020   1.732   8.230  0.00  0.00    +0.000 C 
ATOM     27  C   UNL     1      46.379   2.846   7.239  0.00  0.00    +0.000 C 
ATOM     28  C   UNL     1      45.587   3.834   8.105  0.00  0.00    +0.000 C 
ENDBRANCH  24  25
ENDBRANCH  22  24
ENDBRANCH  15  18
ENDBRANCH   1  15
TORSDOF 6
ENDMDL
