MODEL 1
REMARK VINA RESULT:    -7.632      0.000      0.000
REMARK INTER + INTRA:         -10.312
REMARK INTER:                  -9.640
REMARK INTRA:                  -0.672
REMARK UNBOUND:                -0.672
REMARK  Name = 
REMARK  8 active torsions:
REMARK  status: ('A' for Active; 'I' for Inactive)
REMARK    1  A    between atoms: C_1  and  C_2
REMARK    2  A    between atoms: C_2  and  C_3
REMARK    3  A    between atoms: C_2  and  C_4
REMARK    4  A    between atoms: C_2  and  C_5
REMARK    5  A    between atoms: N_7  and  C_8
REMARK    6  A    between atoms: C_8  and  C_9
REMARK    7  A    between atoms: C_12  and  C_13
REMARK    8  A    between atoms: C_13  and  N_14
REMARK                            x       y       z     vdW  Elec       q    Type
REMARK                         _______ _______ _______ _____ _____    ______ ____
ROOT
ATOM      1  C   UNL     1      46.057   7.133  12.097  0.00  0.00    +0.000 A 
ATOM      2  N   UNL     1      45.131   6.884  11.158  0.00  0.00    +0.000 NA
ATOM      3  N   UNL     1      44.943   5.546  11.206  0.00  0.00    +0.000 N 
ATOM      4  C   UNL     1      45.647   4.927  12.211  0.00  0.00    +0.000 A 
ATOM      5  C   UNL     1      45.703   3.592  12.641  0.00  0.00    +0.000 A 
ATOM      6  C   UNL     1      46.573   3.280  13.689  0.00  0.00    +0.000 A 
ATOM      7  C   UNL     1      47.351   4.264  14.289  0.00  0.00    +0.000 A 
ATOM      8  C   UNL     1      47.275   5.595  13.858  0.00  0.00    +0.000 A 
ATOM      9  C   UNL     1      46.407   5.937  12.802  0.00  0.00    +0.000 A 
ENDROOT
BRANCH   1  11
ATOM     10  C   UNL     1      46.759   8.898  13.791  0.00  0.00    +0.000 C 
ATOM     11  C   UNL     1      46.590   8.550  12.293  0.00  0.00    +0.000 C 
ATOM     12  C   UNL     1      45.614   9.580  11.691  0.00  0.00    +0.000 C 
ATOM     13  C   UNL     1      47.969   8.714  11.624  0.00  0.00    +0.000 C 
ENDBRANCH   1  11
BRANCH   3  14
ATOM     14  C   UNL     1      44.042   4.918  10.245  0.00  0.00    +0.000 C 
BRANCH  14  15
ATOM     15  C   UNL     1      44.786   3.971   9.334  0.00  0.00    +0.000 A 
ATOM     16  C   UNL     1      44.661   2.583   9.481  0.00  0.00    +0.000 A 
ATOM     17  C   UNL     1      45.450   1.713   8.725  0.00  0.00    +0.000 A 
ATOM     18  C   UNL     1      46.374   2.204   7.792  0.00  0.00    +0.000 A 
ATOM     19  C   UNL     1      46.466   3.592   7.617  0.00  0.00    +0.000 A 
ATOM     20  C   UNL     1      45.681   4.465   8.376  0.00  0.00    +0.000 A 
BRANCH  18  21
ATOM     21  C   UNL     1      47.325   1.247   7.115  0.00  0.00    +0.000 C 
BRANCH  21  22
ATOM     22  N   UNL     1      48.402   1.908   6.385  0.00  0.00    +0.000 NA
ATOM     23  H   UNL     1      48.444   1.519   5.444  0.00  0.00    +0.000 HD
ATOM     24  H   UNL     1      49.288   1.683   6.832  0.00  0.00    +0.000 HD
ENDBRANCH  21  22
ENDBRANCH  18  21
ENDBRANCH  14  15
ENDBRANCH   3  14
TORSDOF 5
ENDMDL
MODEL 2
REMARK VINA RESULT:    -6.668      1.408      3.198
REMARK INTER + INTRA:          -9.094
REMARK INTER:                  -8.630
REMARK INTRA:                  -0.464
REMARK UNBOUND:                -0.672
REMARK  Name = 
REMARK  8 active torsions:
REMARK  status: ('A' for Active; 'I' for Inactive)
REMARK    1  A    between atoms: C_1  and  C_2
REMARK    2  A    between atoms: C_2  and  C_3
REMARK    3  A    between atoms: C_2  and  C_4
REMARK    4  A    between atoms: C_2  and  C_5
REMARK    5  A    between atoms: N_7  and  C_8
REMARK    6  A    between atoms: C_8  and  C_9
REMARK    7  A    between atoms: C_12  and  C_13
REMARK    8  A    between atoms: C_13  and  N_14
REMARK                            x       y       z     vdW  Elec       q    Type
REMARK                         _______ _______ _______ _____ _____    ______ ____
ROOT
ATOM      1  C   UNL     1      46.408   6.741  12.573  0.00  0.00    +0.000 A 
ATOM      2  N   UNL     1      45.825   5.617  12.126  0.00  0.00    +0.000 NA
ATOM      3  N   UNL     1      44.711   6.038  11.486  0.00  0.00    +0.000 N 
ATOM      4  C   UNL     1      44.599   7.407  11.419  0.00  0.00    +0.000 A 
ATOM      5  C   UNL     1      43.651   8.249  10.816  0.00  0.00    +0.000 A 
ATOM      6  C   UNL     1      43.808   9.628  10.976  0.00  0.00    +0.000 A 
ATOM      7  C   UNL     1      44.875  10.146  11.702  0.00  0.00    +0.000 A 
ATOM      8  C   UNL     1      45.821   9.295  12.286  0.00  0.00    +0.000 A 
ATOM      9  C   UNL     1      45.685   7.899  12.143  0.00  0.00    +0.000 A 
ENDROOT
BRANCH   1  11
ATOM     10  C   UNL     1      47.818   7.892  14.352  0.00  0.00    +0.000 C 
ATOM     11  C   UNL     1      47.674   6.663  13.422  0.00  0.00    +0.000 C 
ATOM     12  C   UNL     1      48.925   6.623  12.520  0.00  0.00    +0.000 C 
ATOM     13  C   UNL     1      47.659   5.408  14.316  0.00  0.00    +0.000 C 
ENDBRANCH   1  11
BRANCH   3  14
ATOM     14  C   UNL     1      43.788   5.050  10.938  0.00  0.00    +0.000 C 
BRANCH  14  15
ATOM     15  C   UNL     1      44.471   4.167   9.921  0.00  0.00    +0.000 A 
ATOM     16  C   UNL     1      44.375   2.771  10.000  0.00  0.00    +0.000 A 
ATOM     17  C   UNL     1      45.115   1.957   9.138  0.00  0.00    +0.000 A 
ATOM     18  C   UNL     1      45.957   2.514   8.166  0.00  0.00    +0.000 A 
ATOM     19  C   UNL     1      46.019   3.911   8.062  0.00  0.00    +0.000 A 
ATOM     20  C   UNL     1      45.284   4.727   8.926  0.00  0.00    +0.000 A 
BRANCH  18  21
ATOM     21  C   UNL     1      46.865   1.612   7.365  0.00  0.00    +0.000 C 
BRANCH  21  22
ATOM     22  N   UNL     1      46.783   0.206   7.750  0.00  0.00    +0.000 NA
ATOM     23  H   UNL     1      47.483   0.024   8.467  0.00  0.00    +0.000 HD
ATOM     24  H   UNL     1      47.034  -0.368   6.948  0.00  0.00    +0.000 HD
ENDBRANCH  21  22
ENDBRANCH  18  21
ENDBRANCH  14  15
ENDBRANCH   3  14
TORSDOF 5
ENDMDL
MODEL 3
REMARK VINA RESULT:    -6.214      1.390      2.511
REMARK INTER + INTRA:          -8.521
REMARK INTER:                  -8.025
REMARK INTRA:                  -0.496
REMARK UNBOUND:                -0.672
REMARK  Name = 
REMARK  8 active torsions:
REMARK  status: ('A' for Active; 'I' for Inactive)
REMARK    1  A    between atoms: C_1  and  C_2
REMARK    2  A    between atoms: C_2  and  C_3
REMARK    3  A    between atoms: C_2  and  C_4
REMARK    4  A    between atoms: C_2  and  C_5
REMARK    5  A    between atoms: N_7  and  C_8
REMARK    6  A    between atoms: C_8  and  C_9
REMARK    7  A    between atoms: C_12  and  C_13
REMARK    8  A    between atoms: C_13  and  N_14
REMARK                            x       y       z     vdW  Elec       q    Type
REMARK                         _______ _______ _______ _____ _____    ______ ____
ROOT
ATOM      1  C   UNL     1      44.318   8.216  11.205  0.00  0.00    +0.000 A 
ATOM      2  N   UNL     1      43.577   7.142  10.893  0.00  0.00    +0.000 NA
ATOM      3  N   UNL     1      44.345   6.083  11.233  0.00  0.00    +0.000 N 
ATOM      4  C   UNL     1      45.526   6.433  11.845  0.00  0.00    +0.000 A 
ATOM      5  C   UNL     1      46.569   5.669  12.393  0.00  0.00    +0.000 A 
ATOM      6  C   UNL     1      47.673   6.350  12.911  0.00  0.00    +0.000 A 
ATOM      7  C   UNL     1      47.730   7.739  12.891  0.00  0.00    +0.000 A 
ATOM      8  C   UNL     1      46.676   8.489  12.354  0.00  0.00    +0.000 A 
ATOM      9  C   UNL     1      45.550   7.827  11.821  0.00  0.00    +0.000 A 
ENDROOT
BRANCH   1  11
ATOM     10  C   UNL     1      44.099  10.609  12.045  0.00  0.00    +0.000 C 
ATOM     11  C   UNL     1      43.806   9.619  10.891  0.00  0.00    +0.000 C 
ATOM     12  C   UNL     1      42.278   9.600  10.681  0.00  0.00    +0.000 C 
ATOM     13  C   UNL     1      44.481  10.179   9.623  0.00  0.00    +0.000 C 
ENDBRANCH   1  11
BRANCH   3  14
ATOM     14  C   UNL     1      43.866   4.734  10.950  0.00  0.00    +0.000 C 
BRANCH  14  15
ATOM     15  C   UNL     1      44.733   4.049   9.920  0.00  0.00    +0.000 A 
ATOM     16  C   UNL     1      45.456   4.794   8.978  0.00  0.00    +0.000 A 
ATOM     17  C   UNL     1      46.151   4.155   7.948  0.00  0.00    +0.000 A 
ATOM     18  C   UNL     1      46.154   2.757   7.839  0.00  0.00    +0.000 A 
ATOM     19  C   UNL     1      45.465   2.014   8.807  0.00  0.00    +0.000 A 
ATOM     20  C   UNL     1      44.765   2.651   9.836  0.00  0.00    +0.000 A 
BRANCH  18  21
ATOM     21  C   UNL     1      46.773   2.110   6.624  0.00  0.00    +0.000 C 
BRANCH  21  22
ATOM     22  N   UNL     1      48.123   1.604   6.851  0.00  0.00    +0.000 NA
ATOM     23  H   UNL     1      48.150   0.619   6.592  0.00  0.00    +0.000 HD
ATOM     24  H   UNL     1      48.326   1.647   7.848  0.00  0.00    +0.000 HD
ENDBRANCH  21  22
ENDBRANCH  18  21
ENDBRANCH  14  15
ENDBRANCH   3  14
TORSDOF 5
ENDMDL
MODEL 4
REMARK VINA RESULT:    -5.980      3.933      6.803
REMARK INTER + INTRA:          -8.226
REMARK INTER:                  -7.817
REMARK INTRA:                  -0.408
REMARK UNBOUND:                -0.672
REMARK  Name = 
REMARK  8 active torsions:
REMARK  status: ('A' for Active; 'I' for Inactive)
REMARK    1  A    between atoms: C_1  and  C_2
REMARK    2  A    between atoms: C_2  and  C_3
REMARK    3  A    between atoms: C_2  and  C_4
REMARK    4  A    between atoms: C_2  and  C_5
REMARK    5  A    between atoms: N_7  and  C_8
REMARK    6  A    between atoms: C_8  and  C_9
REMARK    7  A    between atoms: C_12  and  C_13
REMARK    8  A    between atoms: C_13  and  N_14
REMARK                            x       y       z     vdW  Elec       q    Type
REMARK                         _______ _______ _______ _____ _____    ______ ____
ROOT
ATOM      1  C   UNL     1      48.312   6.640  13.748  0.00  0.00    +0.000 A 
ATOM      2  N   UNL     1      48.358   6.012  14.934  0.00  0.00    +0.000 NA
ATOM      3  N   UNL     1      47.302   5.169  14.917  0.00  0.00    +0.000 N 
ATOM      4  C   UNL     1      46.624   5.158  13.720  0.00  0.00    +0.000 A 
ATOM      5  C   UNL     1      45.527   4.411  13.262  0.00  0.00    +0.000 A 
ATOM      6  C   UNL     1      45.044   4.681  11.979  0.00  0.00    +0.000 A 
ATOM      7  C   UNL     1      45.639   5.653  11.182  0.00  0.00    +0.000 A 
ATOM      8  C   UNL     1      46.742   6.381  11.646  0.00  0.00    +0.000 A 
ATOM      9  C   UNL     1      47.248   6.130  12.938  0.00  0.00    +0.000 A 
ENDROOT
BRANCH   1  11
ATOM     10  C   UNL     1      49.985   7.521  12.044  0.00  0.00    +0.000 C 
ATOM     11  C   UNL     1      49.319   7.741  13.424  0.00  0.00    +0.000 C 
ATOM     12  C   UNL     1      50.446   7.766  14.477  0.00  0.00    +0.000 C 
ATOM     13  C   UNL     1      48.633   9.120  13.389  0.00  0.00    +0.000 C 
ENDBRANCH   1  11
BRANCH   3  14
ATOM     14  C   UNL     1      47.005   4.374  16.104  0.00  0.00    +0.000 C 
BRANCH  14  15
ATOM     15  C   UNL     1      48.241   3.673  16.617  0.00  0.00    +0.000 A 
ATOM     16  C   UNL     1      49.183   4.355  17.398  0.00  0.00    +0.000 A 
ATOM     17  C   UNL     1      50.386   3.741  17.759  0.00  0.00    +0.000 A 
ATOM     18  C   UNL     1      50.672   2.427  17.363  0.00  0.00    +0.000 A 
ATOM     19  C   UNL     1      49.708   1.733  16.617  0.00  0.00    +0.000 A 
ATOM     20  C   UNL     1      48.507   2.347  16.251  0.00  0.00    +0.000 A 
BRANCH  18  21
ATOM     21  C   UNL     1      52.044   1.855  17.626  0.00  0.00    +0.000 C 
BRANCH  21  22
ATOM     22  N   UNL     1      52.024   0.470  18.084  0.00  0.00    +0.000 NA
ATOM     23  H   UNL     1      52.564   0.404  18.946  0.00  0.00    +0.000 HD
ATOM     24  H   UNL     1      52.503  -0.110  17.397  0.00  0.00    +0.000 HD
ENDBRANCH  21  22
ENDBRANCH  18  21
ENDBRANCH  14  15
ENDBRANCH   3  14
TORSDOF 5
ENDMDL
MODEL 5
REMARK VINA RESULT:    -5.952      1.822      3.858
REMARK INTER + INTRA:          -8.190
REMARK INTER:                  -8.395
REMARK INTRA:                   0.205
REMARK UNBOUND:                -0.672
REMARK  Name = 
REMARK  8 active torsions:
REMARK  status: ('A' for Active; 'I' for Inactive)
REMARK    1  A    between atoms: C_1  and  C_2
REMARK    2  A    between atoms: C_2  and  C_3
REMARK    3  A    between atoms: C_2  and  C_4
REMARK    4  A    between atoms: C_2  and  C_5
REMARK    5  A    between atoms: N_7  and  C_8
REMARK    6  A    between atoms: C_8  and  C_9
REMARK    7  A    between atoms: C_12  and  C_13
REMARK    8  A    between atoms: C_13  and  N_14
REMARK                            x       y       z     vdW  Elec       q    Type
REMARK                         _______ _______ _______ _____ _____    ______ ____
ROOT
ATOM      1  C   UNL     1      47.167   4.776  14.907  0.00  0.00    +0.000 A 
ATOM      2  N   UNL     1      46.041   4.256  14.393  0.00  0.00    +0.000 NA
ATOM      3  N   UNL     1      45.741   5.053  13.343  0.00  0.00    +0.000 N 
ATOM      4  C   UNL     1      46.687   6.021  13.099  0.00  0.00    +0.000 A 
ATOM      5  C   UNL     1      46.797   7.003  12.102  0.00  0.00    +0.000 A 
ATOM      6  C   UNL     1      47.885   7.877  12.166  0.00  0.00    +0.000 A 
ATOM      7  C   UNL     1      48.830   7.770  13.180  0.00  0.00    +0.000 A 
ATOM      8  C   UNL     1      48.715   6.776  14.161  0.00  0.00    +0.000 A 
ATOM      9  C   UNL     1      47.625   5.881  14.122  0.00  0.00    +0.000 A 
ENDROOT
BRANCH   1  11
ATOM     10  C   UNL     1      49.028   4.972  16.632  0.00  0.00    +0.000 C 
ATOM     11  C   UNL     1      47.781   4.180  16.171  0.00  0.00    +0.000 C 
ATOM     12  C   UNL     1      48.230   2.726  15.916  0.00  0.00    +0.000 C 
ATOM     13  C   UNL     1      46.769   4.197  17.333  0.00  0.00    +0.000 C 
ENDBRANCH   1  11
BRANCH   3  14
ATOM     14  C   UNL     1      44.512   4.813  12.594  0.00  0.00    +0.000 C 
BRANCH  14  15
ATOM     15  C   UNL     1      44.810   4.335  11.192  0.00  0.00    +0.000 A 
ATOM     16  C   UNL     1      44.797   2.970  10.879  0.00  0.00    +0.000 A 
ATOM     17  C   UNL     1      45.201   2.525   9.617  0.00  0.00    +0.000 A 
ATOM     18  C   UNL     1      45.614   3.432   8.631  0.00  0.00    +0.000 A 
ATOM     19  C   UNL     1      45.585   4.801   8.934  0.00  0.00    +0.000 A 
ATOM     20  C   UNL     1      45.186   5.248  10.197  0.00  0.00    +0.000 A 
BRANCH  18  21
ATOM     21  C   UNL     1      46.199   2.911   7.341  0.00  0.00    +0.000 C 
BRANCH  21  22
ATOM     22  N   UNL     1      46.719   3.957   6.467  0.00  0.00    +0.000 NA
ATOM     23  H   UNL     1      46.424   3.761   5.512  0.00  0.00    +0.000 HD
ATOM     24  H   UNL     1      47.736   3.913   6.471  0.00  0.00    +0.000 HD
ENDBRANCH  21  22
ENDBRANCH  18  21
ENDBRANCH  14  15
ENDBRANCH   3  14
TORSDOF 5
ENDMDL
MODEL 6
REMARK VINA RESULT:    -5.939      4.098      7.296
REMARK INTER + INTRA:          -8.173
REMARK INTER:                  -7.813
REMARK INTRA:                  -0.360
REMARK UNBOUND:                -0.672
REMARK  Name = 
REMARK  8 active torsions:
REMARK  status: ('A' for Active; 'I' for Inactive)
REMARK    1  A    between atoms: C_1  and  C_2
REMARK    2  A    between atoms: C_2  and  C_3
REMARK    3  A    between atoms: C_2  and  C_4
REMARK    4  A    between atoms: C_2  and  C_5
REMARK    5  A    between atoms: N_7  and  C_8
REMARK    6  A    between atoms: C_8  and  C_9
REMARK    7  A    between atoms: C_12  and  C_13
REMARK    8  A    between atoms: C_13  and  N_14
REMARK                            x       y       z     vdW  Elec       q    Type
REMARK                         _______ _______ _______ _____ _____    ______ ____
ROOT
ATOM      1  C   UNL     1      46.482   5.186  13.618  0.00  0.00    +0.000 A 
ATOM      2  N   UNL     1      46.395   4.681  14.858  0.00  0.00    +0.000 NA
ATOM      3  N   UNL     1      47.463   5.191  15.512  0.00  0.00    +0.000 N 
ATOM      4  C   UNL     1      48.190   6.087  14.764  0.00  0.00    +0.000 A 
ATOM      5  C   UNL     1      49.316   6.871  15.062  0.00  0.00    +0.000 A 
ATOM      6  C   UNL     1      49.849   7.662  14.041  0.00  0.00    +0.000 A 
ATOM      7  C   UNL     1      49.275   7.675  12.774  0.00  0.00    +0.000 A 
ATOM      8  C   UNL     1      48.143   6.898  12.495  0.00  0.00    +0.000 A 
ATOM      9  C   UNL     1      47.586   6.089  13.507  0.00  0.00    +0.000 A 
ENDROOT
BRANCH   1  11
ATOM     10  C   UNL     1      45.507   3.245  12.290  0.00  0.00    +0.000 C 
ATOM     11  C   UNL     1      45.474   4.770  12.548  0.00  0.00    +0.000 C 
ATOM     12  C   UNL     1      45.792   5.468  11.210  0.00  0.00    +0.000 C 
ATOM     13  C   UNL     1      44.039   5.133  12.976  0.00  0.00    +0.000 C 
ENDBRANCH   1  11
BRANCH   3  14
ATOM     14  C   UNL     1      47.720   4.778  16.888  0.00  0.00    +0.000 C 
BRANCH  14  15
ATOM     15  C   UNL     1      48.943   3.895  16.975  0.00  0.00    +0.000 A 
ATOM     16  C   UNL     1      48.880   2.541  16.617  0.00  0.00    +0.000 A 
ATOM     17  C   UNL     1      49.975   1.699  16.824  0.00  0.00    +0.000 A 
ATOM     18  C   UNL     1      51.167   2.189  17.377  0.00  0.00    +0.000 A 
ATOM     19  C   UNL     1      51.240   3.553  17.694  0.00  0.00    +0.000 A 
ATOM     20  C   UNL     1      50.144   4.396  17.494  0.00  0.00    +0.000 A 
BRANCH  18  21
ATOM     21  C   UNL     1      52.268   1.223  17.739  0.00  0.00    +0.000 C 
BRANCH  21  22
ATOM     22  N   UNL     1      51.784  -0.066  18.222  0.00  0.00    +0.000 NA
ATOM     23  H   UNL     1      52.030  -0.159  19.207  0.00  0.00    +0.000 HD
ATOM     24  H   UNL     1      52.278  -0.808  17.730  0.00  0.00    +0.000 HD
ENDBRANCH  21  22
ENDBRANCH  18  21
ENDBRANCH  14  15
ENDBRANCH   3  14
TORSDOF 5
ENDMDL
MODEL 7
REMARK VINA RESULT:    -5.432      3.821      6.307
REMARK INTER + INTRA:          -7.533
REMARK INTER:                  -6.876
REMARK INTRA:                  -0.657
REMARK UNBOUND:                -0.672
REMARK  Name = 
REMARK  8 active torsions:
REMARK  status: ('A' for Active; 'I' for Inactive)
REMARK    1  A    between atoms: C_1  and  C_2
REMARK    2  A    between atoms: C_2  and  C_3
REMARK    3  A    between atoms: C_2  and  C_4
REMARK    4  A    between atoms: C_2  and  C_5
REMARK    5  A    between atoms: N_7  and  C_8
REMARK    6  A    between atoms: C_8  and  C_9
REMARK    7  A    between atoms: C_12  and  C_13
REMARK    8  A    between atoms: C_13  and  N_14
REMARK                            x       y       z     vdW  Elec       q    Type
REMARK                         _______ _______ _______ _____ _____    ______ ____
ROOT
ATOM      1  C   UNL     1      48.678   6.073  16.745  0.00  0.00    +0.000 A 
ATOM      2  N   UNL     1      48.648   5.545  15.511  0.00  0.00    +0.000 NA
ATOM      3  N   UNL     1      48.606   6.612  14.682  0.00  0.00    +0.000 N 
ATOM      4  C   UNL     1      48.702   7.819  15.332  0.00  0.00    +0.000 A 
ATOM      5  C   UNL     1      48.750   9.143  14.866  0.00  0.00    +0.000 A 
ATOM      6  C   UNL     1      48.806  10.167  15.814  0.00  0.00    +0.000 A 
ATOM      7  C   UNL     1      48.821   9.881  17.175  0.00  0.00    +0.000 A 
ATOM      8  C   UNL     1      48.787   8.555  17.626  0.00  0.00    +0.000 A 
ATOM      9  C   UNL     1      48.728   7.502  16.691  0.00  0.00    +0.000 A 
ENDROOT
BRANCH   1  11
ATOM     10  C   UNL     1      49.947   5.300  18.812  0.00  0.00    +0.000 C 
ATOM     11  C   UNL     1      48.655   5.162  17.970  0.00  0.00    +0.000 C 
ATOM     12  C   UNL     1      48.546   3.685  17.539  0.00  0.00    +0.000 C 
ATOM     13  C   UNL     1      47.468   5.507  18.889  0.00  0.00    +0.000 C 
ENDBRANCH   1  11
BRANCH   3  14
ATOM     14  C   UNL     1      48.486   6.393  13.244  0.00  0.00    +0.000 C 
BRANCH  14  15
ATOM     15  C   UNL     1      47.039   6.254  12.830  0.00  0.00    +0.000 A 
ATOM     16  C   UNL     1      46.243   5.218  13.336  0.00  0.00    +0.000 A 
ATOM     17  C   UNL     1      44.948   5.015  12.851  0.00  0.00    +0.000 A 
ATOM     18  C   UNL     1      44.410   5.849  11.861  0.00  0.00    +0.000 A 
ATOM     19  C   UNL     1      45.195   6.911  11.388  0.00  0.00    +0.000 A 
ATOM     20  C   UNL     1      46.492   7.113  11.868  0.00  0.00    +0.000 A 
BRANCH  18  21
ATOM     21  C   UNL     1      43.077   5.503  11.243  0.00  0.00    +0.000 C 
BRANCH  21  22
ATOM     22  N   UNL     1      41.976   6.335  11.718  0.00  0.00    +0.000 NA
ATOM     23  H   UNL     1      42.361   7.195  12.106  0.00  0.00    +0.000 HD
ATOM     24  H   UNL     1      41.508   5.855  12.484  0.00  0.00    +0.000 HD
ENDBRANCH  21  22
ENDBRANCH  18  21
ENDBRANCH  14  15
ENDBRANCH   3  14
TORSDOF 5
ENDMDL
MODEL 8
REMARK VINA RESULT:    -5.410      3.358      7.576
REMARK INTER + INTRA:          -7.506
REMARK INTER:                  -7.107
REMARK INTRA:                  -0.399
REMARK UNBOUND:                -0.672
REMARK  Name = 
REMARK  8 active torsions:
REMARK  status: ('A' for Active; 'I' for Inactive)
REMARK    1  A    between atoms: C_1  and  C_2
REMARK    2  A    between atoms: C_2  and  C_3
REMARK    3  A    between atoms: C_2  and  C_4
REMARK    4  A    between atoms: C_2  and  C_5
REMARK    5  A    between atoms: N_7  and  C_8
REMARK    6  A    between atoms: C_8  and  C_9
REMARK    7  A    between atoms: C_12  and  C_13
REMARK    8  A    between atoms: C_13  and  N_14
REMARK                            x       y       z     vdW  Elec       q    Type
REMARK                         _______ _______ _______ _____ _____    ______ ____
ROOT
ATOM      1  C   UNL     1      45.051   4.614  12.480  0.00  0.00    +0.000 A 
ATOM      2  N   UNL     1      45.616   3.771  13.357  0.00  0.00    +0.000 NA
ATOM      3  N   UNL     1      46.740   4.401  13.765  0.00  0.00    +0.000 N 
ATOM      4  C   UNL     1      46.877   5.670  13.252  0.00  0.00    +0.000 A 
ATOM      5  C   UNL     1      47.843   6.670  13.450  0.00  0.00    +0.000 A 
ATOM      6  C   UNL     1      47.709   7.858  12.727  0.00  0.00    +0.000 A 
ATOM      7  C   UNL     1      46.648   8.043  11.847  0.00  0.00    +0.000 A 
ATOM      8  C   UNL     1      45.684   7.042  11.670  0.00  0.00    +0.000 A 
ATOM      9  C   UNL     1      45.796   5.833  12.386  0.00  0.00    +0.000 A 
ENDROOT
BRANCH   1  11
ATOM     10  C   UNL     1      42.594   5.146  12.079  0.00  0.00    +0.000 C 
ATOM     11  C   UNL     1      43.779   4.211  11.738  0.00  0.00    +0.000 C 
ATOM     12  C   UNL     1      43.359   2.779  12.129  0.00  0.00    +0.000 C 
ATOM     13  C   UNL     1      43.990   4.273  10.212  0.00  0.00    +0.000 C 
ENDBRANCH   1  11
BRANCH   3  14
ATOM     14  C   UNL     1      47.649   3.718  14.680  0.00  0.00    +0.000 C 
BRANCH  14  15
ATOM     15  C   UNL     1      47.689   4.403  16.026  0.00  0.00    +0.000 A 
ATOM     16  C   UNL     1      48.625   5.411  16.293  0.00  0.00    +0.000 A 
ATOM     17  C   UNL     1      48.745   5.948  17.578  0.00  0.00    +0.000 A 
ATOM     18  C   UNL     1      47.924   5.505  18.624  0.00  0.00    +0.000 A 
ATOM     19  C   UNL     1      46.959   4.527  18.342  0.00  0.00    +0.000 A 
ATOM     20  C   UNL     1      46.841   3.984  17.060  0.00  0.00    +0.000 A 
BRANCH  18  21
ATOM     21  C   UNL     1      48.190   5.984  20.030  0.00  0.00    +0.000 C 
BRANCH  21  22
ATOM     22  N   UNL     1      47.076   5.763  20.947  0.00  0.00    +0.000 NA
ATOM     23  H   UNL     1      46.524   6.617  21.002  0.00  0.00    +0.000 HD
ATOM     24  H   UNL     1      47.447   5.597  21.880  0.00  0.00    +0.000 HD
ENDBRANCH  21  22
ENDBRANCH  18  21
ENDBRANCH  14  15
ENDBRANCH   3  14
TORSDOF 5
ENDMDL
MODEL 9
REMARK VINA RESULT:    -5.336      3.865      7.291
REMARK INTER + INTRA:          -7.413
REMARK INTER:                  -6.960
REMARK INTRA:                  -0.453
REMARK UNBOUND:                -0.672
REMARK  Name = 
REMARK  8 active torsions:
REMARK  status: ('A' for Active; 'I' for Inactive)
REMARK    1  A    between atoms: C_1  and  C_2
REMARK    2  A    between atoms: C_2  and  C_3
REMARK    3  A    between atoms: C_2  and  C_4
REMARK    4  A    between atoms: C_2  and  C_5
REMARK    5  A    between atoms: N_7  and  C_8
REMARK    6  A    between atoms: C_8  and  C_9
REMARK    7  A    between atoms: C_12  and  C_13
REMARK    8  A    between atoms: C_13  and  N_14
REMARK                            x       y       z     vdW  Elec       q    Type
REMARK                         _______ _______ _______ _____ _____    ______ ____
ROOT
ATOM      1  C   UNL     1      47.744   6.351  13.586  0.00  0.00    +0.000 A 
ATOM      2  N   UNL     1      48.051   5.499  14.576  0.00  0.00    +0.000 NA
ATOM      3  N   UNL     1      47.231   4.441  14.385  0.00  0.00    +0.000 N 
ATOM      4  C   UNL     1      46.467   4.535  13.246  0.00  0.00    +0.000 A 
ATOM      5  C   UNL     1      45.543   3.659  12.654  0.00  0.00    +0.000 A 
ATOM      6  C   UNL     1      44.891   4.086  11.494  0.00  0.00    +0.000 A 
ATOM      7  C   UNL     1      45.157   5.335  10.943  0.00  0.00    +0.000 A 
ATOM      8  C   UNL     1      46.092   6.193  11.538  0.00  0.00    +0.000 A 
ATOM      9  C   UNL     1      46.762   5.788  12.710  0.00  0.00    +0.000 A 
ENDROOT
BRANCH   1  11
ATOM     10  C   UNL     1      49.474   7.897  14.633  0.00  0.00    +0.000 C 
ATOM     11  C   UNL     1      48.422   7.717  13.512  0.00  0.00    +0.000 C 
ATOM     12  C   UNL     1      47.382   8.844  13.675  0.00  0.00    +0.000 C 
ATOM     13  C   UNL     1      49.150   7.896  12.166  0.00  0.00    +0.000 C 
ENDBRANCH   1  11
BRANCH   3  14
ATOM     14  C   UNL     1      47.247   3.344  15.348  0.00  0.00    +0.000 C 
BRANCH  14  15
ATOM     15  C   UNL     1      47.839   3.781  16.667  0.00  0.00    +0.000 A 
ATOM     16  C   UNL     1      47.142   4.652  17.515  0.00  0.00    +0.000 A 
ATOM     17  C   UNL     1      47.746   5.157  18.669  0.00  0.00    +0.000 A 
ATOM     18  C   UNL     1      49.055   4.794  19.015  0.00  0.00    +0.000 A 
ATOM     19  C   UNL     1      49.734   3.889  18.187  0.00  0.00    +0.000 A 
ATOM     20  C   UNL     1      49.134   3.387  17.029  0.00  0.00    +0.000 A 
BRANCH  18  21
ATOM     21  C   UNL     1      49.735   5.483  20.173  0.00  0.00    +0.000 C 
BRANCH  21  22
ATOM     22  N   UNL     1      50.329   4.564  21.137  0.00  0.00    +0.000 NA
ATOM     23  H   UNL     1      51.060   5.055  21.650  0.00  0.00    +0.000 HD
ATOM     24  H   UNL     1      50.788   3.808  20.632  0.00  0.00    +0.000 HD
ENDBRANCH  21  22
ENDBRANCH  18  21
ENDBRANCH  14  15
ENDBRANCH   3  14
TORSDOF 5
ENDMDL
