MODEL 1
REMARK VINA RESULT:    -8.683      0.000      0.000
REMARK INTER + INTRA:         -12.861
REMARK INTER:                 -11.728
REMARK INTRA:                  -1.133
REMARK UNBOUND:                -1.133
REMARK  Name = 
REMARK  8 active torsions:
REMARK  status: ('A' for Active; 'I' for Inactive)
REMARK    1  A    between atoms: C_1  and  C_2
REMARK    2  A    between atoms: C_2  and  C_3
REMARK    3  A    between atoms: C_2  and  C_4
REMARK    4  A    between atoms: C_2  and  C_22
REMARK    5  A    between atoms: C_5  and  C_6
REMARK    6  A    between atoms: C_8  and  C_9
REMARK    7  A    between atoms: C_13  and  C_14
REMARK    8  A    between atoms: C_25  and  C_26
REMARK                            x       y       z     vdW  Elec       q    Type
REMARK                         _______ _______ _______ _____ _____    ______ ____
ROOT
ATOM      1  C   UNL     1      45.247   4.555  12.051  0.00  0.00    +0.000 C 
ATOM      2  C   UNL     1      46.045   5.640  11.998  0.00  0.00    +0.000 C 
ENDROOT
BRANCH   2   3
ATOM      3  C   UNL     1      46.933   6.037  13.101  0.00  0.00    +0.000 A 
ATOM      4  C   UNL     1      47.019   5.258  14.254  0.00  0.00    +0.000 A 
ATOM      5  C   UNL     1      47.894   5.631  15.288  0.00  0.00    +0.000 A 
ATOM      6  C   UNL     1      48.634   6.806  15.096  0.00  0.00    +0.000 A 
ATOM      7  C   UNL     1      48.476   7.533  13.929  0.00  0.00    +0.000 A 
ATOM      8  N   UNL     1      47.650   7.171  12.933  0.00  0.00    +0.000 NA
BRANCH   5   9
ATOM      9  C   UNL     1      48.060   4.811  16.514  0.00  0.00    +0.000 A 
ATOM     10  C   UNL     1      47.482   3.535  16.637  0.00  0.00    +0.000 A 
ATOM     11  C   UNL     1      47.687   2.744  17.772  0.00  0.00    +0.000 A 
ATOM     12  C   UNL     1      48.497   3.200  18.808  0.00  0.00    +0.000 A 
ATOM     13  C   UNL     1      49.095   4.461  18.725  0.00  0.00    +0.000 A 
ATOM     14  C   UNL     1      48.846   5.260  17.593  0.00  0.00    +0.000 A 
BRANCH  13  15
ATOM     15  C   UNL     1      50.025   4.966  19.800  0.00  0.00    +0.000 C 
ATOM     16  F   UNL     1      50.181   6.319  19.801  0.00  0.00    +0.000 F 
ATOM     17  F   UNL     1      49.588   4.642  21.050  0.00  0.00    +0.000 F 
ATOM     18  F   UNL     1      51.278   4.443  19.699  0.00  0.00    +0.000 F 
ENDBRANCH  13  15
ENDBRANCH   5   9
ENDBRANCH   2   3
BRANCH   1  20
ATOM     19  C   UNL     1      43.471   2.926  11.616  0.00  0.00    +0.000 C 
ATOM     20  C   UNL     1      44.324   4.034  10.956  0.00  0.00    +0.000 C 
ATOM     21  C   UNL     1      43.355   5.171  10.551  0.00  0.00    +0.000 C 
BRANCH  20  22
ATOM     22  C   UNL     1      45.085   3.566   9.698  0.00  0.00    +0.000 A 
ATOM     23  C   UNL     1      45.298   2.207   9.410  0.00  0.00    +0.000 A 
ATOM     24  C   UNL     1      46.007   1.809   8.274  0.00  0.00    +0.000 A 
ATOM     25  C   UNL     1      46.514   2.759   7.385  0.00  0.00    +0.000 A 
ATOM     26  C   UNL     1      46.316   4.116   7.646  0.00  0.00    +0.000 A 
ATOM     27  C   UNL     1      45.609   4.511   8.791  0.00  0.00    +0.000 A 
BRANCH  25  28
ATOM     28  C   UNL     1      47.285   2.270   6.212  0.00  0.00    +0.000 C 
ATOM     29  N   UNL     1      47.213   2.997   5.057  0.00  0.00    +0.000 N 
ATOM     30  O   UNL     1      47.939   1.236   6.261  0.00  0.00    +0.000 OA
ATOM     31  H   UNL     1      46.517   3.711   4.902  0.00  0.00    +0.000 HD
ATOM     32  H   UNL     1      47.655   2.583   4.246  0.00  0.00    +0.000 HD
ENDBRANCH  25  28
ENDBRANCH  20  22
ENDBRANCH   1  20
TORSDOF 6
ENDMDL
MODEL 2
REMARK VINA RESULT:    -8.467      3.532      4.806
REMARK INTER + INTRA:         -12.571
REMARK INTER:                 -11.247
REMARK INTRA:                  -1.324
REMARK UNBOUND:                -1.133
REMARK  Name = 
REMARK  8 active torsions:
REMARK  status: ('A' for Active; 'I' for Inactive)
REMARK    1  A    between atoms: C_1  and  C_2
REMARK    2  A    between atoms: C_2  and  C_3
REMARK    3  A    between atoms: C_2  and  C_4
REMARK    4  A    between atoms: C_2  and  C_22
REMARK    5  A    between atoms: C_5  and  C_6
REMARK    6  A    between atoms: C_8  and  C_9
REMARK    7  A    between atoms: C_13  and  C_14
REMARK    8  A    between atoms: C_25  and  C_26
REMARK                            x       y       z     vdW  Elec       q    Type
REMARK                         _______ _______ _______ _____ _____    ______ ____
ROOT
ATOM      1  C   UNL     1      45.128   4.484  12.073  0.00  0.00    +0.000 C 
ATOM      2  C   UNL     1      45.995   3.785  12.832  0.00  0.00    +0.000 C 
ENDROOT
BRANCH   2   3
ATOM      3  C   UNL     1      46.779   4.391  13.919  0.00  0.00    +0.000 A 
ATOM      4  C   UNL     1      47.445   5.599  13.721  0.00  0.00    +0.000 A 
ATOM      5  C   UNL     1      48.165   6.184  14.777  0.00  0.00    +0.000 A 
ATOM      6  C   UNL     1      48.182   5.486  15.992  0.00  0.00    +0.000 A 
ATOM      7  C   UNL     1      47.509   4.281  16.101  0.00  0.00    +0.000 A 
ATOM      8  N   UNL     1      46.809   3.727  15.097  0.00  0.00    +0.000 NA
BRANCH   5   9
ATOM      9  C   UNL     1      48.851   7.492  14.633  0.00  0.00    +0.000 A 
ATOM     10  C   UNL     1      49.435   8.147  15.732  0.00  0.00    +0.000 A 
ATOM     11  C   UNL     1      50.128   9.353  15.583  0.00  0.00    +0.000 A 
ATOM     12  C   UNL     1      50.276   9.925  14.323  0.00  0.00    +0.000 A 
ATOM     13  C   UNL     1      49.716   9.305  13.202  0.00  0.00    +0.000 A 
ATOM     14  C   UNL     1      48.987   8.113  13.376  0.00  0.00    +0.000 A 
BRANCH  13  15
ATOM     15  C   UNL     1      49.904   9.864  11.814  0.00  0.00    +0.000 C 
ATOM     16  F   UNL     1      50.660   9.075  11.002  0.00  0.00    +0.000 F 
ATOM     17  F   UNL     1      48.716  10.034  11.165  0.00  0.00    +0.000 F 
ATOM     18  F   UNL     1      50.503  11.086  11.817  0.00  0.00    +0.000 F 
ENDBRANCH  13  15
ENDBRANCH   5   9
ENDBRANCH   2   3
BRANCH   1  20
ATOM     19  C   UNL     1      43.404   2.814  11.587  0.00  0.00    +0.000 C 
ATOM     20  C   UNL     1      44.242   3.949  10.954  0.00  0.00    +0.000 C 
ATOM     21  C   UNL     1      43.252   5.064  10.539  0.00  0.00    +0.000 C 
BRANCH  20  22
ATOM     22  C   UNL     1      45.041   3.513   9.708  0.00  0.00    +0.000 A 
ATOM     23  C   UNL     1      45.260   2.162   9.391  0.00  0.00    +0.000 A 
ATOM     24  C   UNL     1      46.003   1.791   8.268  0.00  0.00    +0.000 A 
ATOM     25  C   UNL     1      46.540   2.763   7.420  0.00  0.00    +0.000 A 
ATOM     26  C   UNL     1      46.336   4.113   7.711  0.00  0.00    +0.000 A 
ATOM     27  C   UNL     1      45.595   4.480   8.843  0.00  0.00    +0.000 A 
BRANCH  25  28
ATOM     28  C   UNL     1      47.346   2.304   6.259  0.00  0.00    +0.000 C 
ATOM     29  N   UNL     1      47.188   2.967   5.074  0.00  0.00    +0.000 N 
ATOM     30  O   UNL     1      48.105   1.346   6.344  0.00  0.00    +0.000 OA
ATOM     31  H   UNL     1      46.421   3.597   4.898  0.00  0.00    +0.000 HD
ATOM     32  H   UNL     1      47.664   2.565   4.276  0.00  0.00    +0.000 HD
ENDBRANCH  25  28
ENDBRANCH  20  22
ENDBRANCH   1  20
TORSDOF 6
ENDMDL
MODEL 3
REMARK VINA RESULT:    -8.345      1.488      2.106
REMARK INTER + INTRA:         -12.406
REMARK INTER:                 -11.436
REMARK INTRA:                  -0.970
REMARK UNBOUND:                -1.133
REMARK  Name = 
REMARK  8 active torsions:
REMARK  status: ('A' for Active; 'I' for Inactive)
REMARK    1  A    between atoms: C_1  and  C_2
REMARK    2  A    between atoms: C_2  and  C_3
REMARK    3  A    between atoms: C_2  and  C_4
REMARK    4  A    between atoms: C_2  and  C_22
REMARK    5  A    between atoms: C_5  and  C_6
REMARK    6  A    between atoms: C_8  and  C_9
REMARK    7  A    between atoms: C_13  and  C_14
REMARK    8  A    between atoms: C_25  and  C_26
REMARK                            x       y       z     vdW  Elec       q    Type
REMARK                         _______ _______ _______ _____ _____    ______ ____
ROOT
ATOM      1  C   UNL     1      45.265   5.188  12.003  0.00  0.00    +0.000 C 
ATOM      2  C   UNL     1      46.112   6.159  11.609  0.00  0.00    +0.000 C 
ENDROOT
BRANCH   2   3
ATOM      3  C   UNL     1      47.011   6.864  12.536  0.00  0.00    +0.000 A 
ATOM      4  C   UNL     1      47.371   6.282  13.750  0.00  0.00    +0.000 A 
ATOM      5  C   UNL     1      48.254   6.952  14.614  0.00  0.00    +0.000 A 
ATOM      6  C   UNL     1      48.717   8.207  14.195  0.00  0.00    +0.000 A 
ATOM      7  C   UNL     1      48.296   8.723  12.981  0.00  0.00    +0.000 A 
ATOM      8  N   UNL     1      47.462   8.079  12.148  0.00  0.00    +0.000 NA
BRANCH   5   9
ATOM      9  C   UNL     1      48.708   6.355  15.895  0.00  0.00    +0.000 A 
ATOM     10  C   UNL     1      49.458   7.090  16.830  0.00  0.00    +0.000 A 
ATOM     11  C   UNL     1      49.837   6.541  18.060  0.00  0.00    +0.000 A 
ATOM     12  C   UNL     1      49.452   5.247  18.398  0.00  0.00    +0.000 A 
ATOM     13  C   UNL     1      48.701   4.483  17.500  0.00  0.00    +0.000 A 
ATOM     14  C   UNL     1      48.363   5.036  16.250  0.00  0.00    +0.000 A 
BRANCH  13  15
ATOM     15  C   UNL     1      48.217   3.098  17.853  0.00  0.00    +0.000 C 
ATOM     16  F   UNL     1      46.940   2.845  17.455  0.00  0.00    +0.000 F 
ATOM     17  F   UNL     1      48.984   2.126  17.281  0.00  0.00    +0.000 F 
ATOM     18  F   UNL     1      48.250   2.857  19.192  0.00  0.00    +0.000 F 
ENDBRANCH  13  15
ENDBRANCH   5   9
ENDBRANCH   2   3
BRANCH   1  20
ATOM     19  C   UNL     1      43.728   3.282  12.046  0.00  0.00    +0.000 C 
ATOM     20  C   UNL     1      44.326   4.370  11.124  0.00  0.00    +0.000 C 
ATOM     21  C   UNL     1      43.156   5.279  10.679  0.00  0.00    +0.000 C 
BRANCH  20  22
ATOM     22  C   UNL     1      45.017   3.807   9.864  0.00  0.00    +0.000 A 
ATOM     23  C   UNL     1      45.175   2.428   9.647  0.00  0.00    +0.000 A 
ATOM     24  C   UNL     1      45.821   1.943   8.507  0.00  0.00    +0.000 A 
ATOM     25  C   UNL     1      46.318   2.824   7.544  0.00  0.00    +0.000 A 
ATOM     26  C   UNL     1      46.173   4.199   7.734  0.00  0.00    +0.000 A 
ATOM     27  C   UNL     1      45.530   4.681   8.883  0.00  0.00    +0.000 A 
BRANCH  25  28
ATOM     28  C   UNL     1      47.021   2.245   6.369  0.00  0.00    +0.000 C 
ATOM     29  N   UNL     1      47.130   3.019   5.249  0.00  0.00    +0.000 N 
ATOM     30  O   UNL     1      47.463   1.103   6.386  0.00  0.00    +0.000 OA
ATOM     31  H   UNL     1      46.590   3.860   5.110  0.00  0.00    +0.000 HD
ATOM     32  H   UNL     1      47.513   2.562   4.431  0.00  0.00    +0.000 HD
ENDBRANCH  25  28
ENDBRANCH  20  22
ENDBRANCH   1  20
TORSDOF 6
ENDMDL
MODEL 4
REMARK VINA RESULT:    -7.910      5.341      9.224
REMARK INTER + INTRA:         -11.817
REMARK INTER:                 -10.629
REMARK INTRA:                  -1.188
REMARK UNBOUND:                -1.133
REMARK  Name = 
REMARK  8 active torsions:
REMARK  status: ('A' for Active; 'I' for Inactive)
REMARK    1  A    between atoms: C_1  and  C_2
REMARK    2  A    between atoms: C_2  and  C_3
REMARK    3  A    between atoms: C_2  and  C_4
REMARK    4  A    between atoms: C_2  and  C_22
REMARK    5  A    between atoms: C_5  and  C_6
REMARK    6  A    between atoms: C_8  and  C_9
REMARK    7  A    between atoms: C_13  and  C_14
REMARK    8  A    between atoms: C_25  and  C_26
REMARK                            x       y       z     vdW  Elec       q    Type
REMARK                         _______ _______ _______ _____ _____    ______ ____
ROOT
ATOM      1  C   UNL     1      48.626   5.911  16.174  0.00  0.00    +0.000 C 
ATOM      2  C   UNL     1      48.838   6.800  15.183  0.00  0.00    +0.000 C 
ENDROOT
BRANCH   2   3
ATOM      3  C   UNL     1      48.005   6.866  13.973  0.00  0.00    +0.000 A 
ATOM      4  C   UNL     1      47.174   5.802  13.628  0.00  0.00    +0.000 A 
ATOM      5  C   UNL     1      46.360   5.889  12.487  0.00  0.00    +0.000 A 
ATOM      6  C   UNL     1      46.451   7.069  11.734  0.00  0.00    +0.000 A 
ATOM      7  C   UNL     1      47.316   8.071  12.135  0.00  0.00    +0.000 A 
ATOM      8  N   UNL     1      48.086   7.996  13.234  0.00  0.00    +0.000 NA
BRANCH   5   9
ATOM      9  C   UNL     1      45.421   4.805  12.103  0.00  0.00    +0.000 A 
ATOM     10  C   UNL     1      44.326   4.452  12.911  0.00  0.00    +0.000 A 
ATOM     11  C   UNL     1      43.413   3.467  12.519  0.00  0.00    +0.000 A 
ATOM     12  C   UNL     1      43.558   2.825  11.293  0.00  0.00    +0.000 A 
ATOM     13  C   UNL     1      44.629   3.149  10.456  0.00  0.00    +0.000 A 
ATOM     14  C   UNL     1      45.562   4.113  10.884  0.00  0.00    +0.000 A 
BRANCH  13  15
ATOM     15  C   UNL     1      44.788   2.517   9.095  0.00  0.00    +0.000 C 
ATOM     16  F   UNL     1      44.214   3.230   8.088  0.00  0.00    +0.000 F 
ATOM     17  F   UNL     1      46.099   2.372   8.747  0.00  0.00    +0.000 F 
ATOM     18  F   UNL     1      44.246   1.270   9.030  0.00  0.00    +0.000 F 
ENDBRANCH  13  15
ENDBRANCH   5   9
ENDBRANCH   2   3
BRANCH   1  20
ATOM     19  C   UNL     1      50.240   7.076  17.600  0.00  0.00    +0.000 C 
ATOM     20  C   UNL     1      49.399   5.784  17.481  0.00  0.00    +0.000 C 
ATOM     21  C   UNL     1      48.387   5.793  18.652  0.00  0.00    +0.000 C 
BRANCH  20  22
ATOM     22  C   UNL     1      50.233   4.489  17.564  0.00  0.00    +0.000 A 
ATOM     23  C   UNL     1      51.605   4.497  17.867  0.00  0.00    +0.000 A 
ATOM     24  C   UNL     1      52.344   3.312  17.918  0.00  0.00    +0.000 A 
ATOM     25  C   UNL     1      51.729   2.081  17.678  0.00  0.00    +0.000 A 
ATOM     26  C   UNL     1      50.366   2.044  17.376  0.00  0.00    +0.000 A 
ATOM     27  C   UNL     1      49.630   3.236  17.320  0.00  0.00    +0.000 A 
BRANCH  25  28
ATOM     28  C   UNL     1      52.576   0.861  17.718  0.00  0.00    +0.000 C 
ATOM     29  N   UNL     1      52.079  -0.238  18.360  0.00  0.00    +0.000 N 
ATOM     30  O   UNL     1      53.695   0.842  17.220  0.00  0.00    +0.000 OA
ATOM     31  H   UNL     1      51.279  -0.197  18.973  0.00  0.00    +0.000 HD
ATOM     32  H   UNL     1      52.719  -1.014  18.468  0.00  0.00    +0.000 HD
ENDBRANCH  25  28
ENDBRANCH  20  22
ENDBRANCH   1  20
TORSDOF 6
ENDMDL
MODEL 5
REMARK VINA RESULT:    -7.623      1.822      2.550
REMARK INTER + INTRA:         -11.430
REMARK INTER:                 -10.279
REMARK INTRA:                  -1.150
REMARK UNBOUND:                -1.133
REMARK  Name = 
REMARK  8 active torsions:
REMARK  status: ('A' for Active; 'I' for Inactive)
REMARK    1  A    between atoms: C_1  and  C_2
REMARK    2  A    between atoms: C_2  and  C_3
REMARK    3  A    between atoms: C_2  and  C_4
REMARK    4  A    between atoms: C_2  and  C_22
REMARK    5  A    between atoms: C_5  and  C_6
REMARK    6  A    between atoms: C_8  and  C_9
REMARK    7  A    between atoms: C_13  and  C_14
REMARK    8  A    between atoms: C_25  and  C_26
REMARK                            x       y       z     vdW  Elec       q    Type
REMARK                         _______ _______ _______ _____ _____    ______ ____
ROOT
ATOM      1  C   UNL     1      45.400   5.180  11.893  0.00  0.00    +0.000 C 
ATOM      2  C   UNL     1      45.618   6.506  11.791  0.00  0.00    +0.000 C 
ENDROOT
BRANCH   2   3
ATOM      3  C   UNL     1      46.552   7.234  12.664  0.00  0.00    +0.000 A 
ATOM      4  C   UNL     1      47.254   6.562  13.664  0.00  0.00    +0.000 A 
ATOM      5  C   UNL     1      48.165   7.262  14.472  0.00  0.00    +0.000 A 
ATOM      6  C   UNL     1      48.302   8.636  14.226  0.00  0.00    +0.000 A 
ATOM      7  C   UNL     1      47.553   9.231  13.225  0.00  0.00    +0.000 A 
ATOM      8  N   UNL     1      46.691   8.561  12.442  0.00  0.00    +0.000 NA
BRANCH   5   9
ATOM      9  C   UNL     1      48.974   6.586  15.517  0.00  0.00    +0.000 A 
ATOM     10  C   UNL     1      48.426   5.600  16.356  0.00  0.00    +0.000 A 
ATOM     11  C   UNL     1      49.205   4.926  17.302  0.00  0.00    +0.000 A 
ATOM     12  C   UNL     1      50.564   5.206  17.417  0.00  0.00    +0.000 A 
ATOM     13  C   UNL     1      51.151   6.175  16.600  0.00  0.00    +0.000 A 
ATOM     14  C   UNL     1      50.344   6.872  15.680  0.00  0.00    +0.000 A 
BRANCH  13  15
ATOM     15  C   UNL     1      52.631   6.465  16.655  0.00  0.00    +0.000 C 
ATOM     16  F   UNL     1      53.404   5.352  16.790  0.00  0.00    +0.000 F 
ATOM     17  F   UNL     1      53.074   7.089  15.527  0.00  0.00    +0.000 F 
ATOM     18  F   UNL     1      52.966   7.285  17.689  0.00  0.00    +0.000 F 
ENDBRANCH  13  15
ENDBRANCH   5   9
ENDBRANCH   2   3
BRANCH   1  20
ATOM     19  C   UNL     1      43.925   3.226  11.947  0.00  0.00    +0.000 C 
ATOM     20  C   UNL     1      44.490   4.325  11.018  0.00  0.00    +0.000 C 
ATOM     21  C   UNL     1      43.292   5.193  10.562  0.00  0.00    +0.000 C 
BRANCH  20  22
ATOM     22  C   UNL     1      45.203   3.775   9.765  0.00  0.00    +0.000 A 
ATOM     23  C   UNL     1      45.778   4.617   8.797  0.00  0.00    +0.000 A 
ATOM     24  C   UNL     1      46.402   4.096   7.661  0.00  0.00    +0.000 A 
ATOM     25  C   UNL     1      46.479   2.715   7.464  0.00  0.00    +0.000 A 
ATOM     26  C   UNL     1      45.917   1.856   8.411  0.00  0.00    +0.000 A 
ATOM     27  C   UNL     1      45.286   2.384   9.546  0.00  0.00    +0.000 A 
BRANCH  25  28
ATOM     28  C   UNL     1      47.129   2.225   6.220  0.00  0.00    +0.000 C 
ATOM     29  N   UNL     1      46.811   2.851   5.048  0.00  0.00    +0.000 N 
ATOM     30  O   UNL     1      47.901   1.274   6.233  0.00  0.00    +0.000 OA
ATOM     31  H   UNL     1      46.021   3.472   4.956  0.00  0.00    +0.000 HD
ATOM     32  H   UNL     1      47.181   2.428   4.206  0.00  0.00    +0.000 HD
ENDBRANCH  25  28
ENDBRANCH  20  22
ENDBRANCH   1  20
TORSDOF 6
ENDMDL
MODEL 6
REMARK VINA RESULT:    -7.343      1.811      2.202
REMARK INTER + INTRA:         -11.052
REMARK INTER:                  -9.924
REMARK INTRA:                  -1.128
REMARK UNBOUND:                -1.133
REMARK  Name = 
REMARK  8 active torsions:
REMARK  status: ('A' for Active; 'I' for Inactive)
REMARK    1  A    between atoms: C_1  and  C_2
REMARK    2  A    between atoms: C_2  and  C_3
REMARK    3  A    between atoms: C_2  and  C_4
REMARK    4  A    between atoms: C_2  and  C_22
REMARK    5  A    between atoms: C_5  and  C_6
REMARK    6  A    between atoms: C_8  and  C_9
REMARK    7  A    between atoms: C_13  and  C_14
REMARK    8  A    between atoms: C_25  and  C_26
REMARK                            x       y       z     vdW  Elec       q    Type
REMARK                         _______ _______ _______ _____ _____    ______ ____
ROOT
ATOM      1  C   UNL     1      45.207   5.455  11.847  0.00  0.00    +0.000 C 
ATOM      2  C   UNL     1      46.329   5.287  12.573  0.00  0.00    +0.000 C 
ENDROOT
BRANCH   2   3
ATOM      3  C   UNL     1      47.004   6.390  13.275  0.00  0.00    +0.000 A 
ATOM      4  C   UNL     1      47.752   6.143  14.424  0.00  0.00    +0.000 A 
ATOM      5  C   UNL     1      48.417   7.200  15.068  0.00  0.00    +0.000 A 
ATOM      6  C   UNL     1      48.268   8.476  14.506  0.00  0.00    +0.000 A 
ATOM      7  C   UNL     1      47.491   8.639  13.373  0.00  0.00    +0.000 A 
ATOM      8  N   UNL     1      46.865   7.627  12.747  0.00  0.00    +0.000 NA
BRANCH   5   9
ATOM      9  C   UNL     1      49.266   6.984  16.266  0.00  0.00    +0.000 A 
ATOM     10  C   UNL     1      50.606   6.570  16.161  0.00  0.00    +0.000 A 
ATOM     11  C   UNL     1      51.419   6.421  17.290  0.00  0.00    +0.000 A 
ATOM     12  C   UNL     1      50.917   6.707  18.556  0.00  0.00    +0.000 A 
ATOM     13  C   UNL     1      49.592   7.126  18.707  0.00  0.00    +0.000 A 
ATOM     14  C   UNL     1      48.777   7.232  17.564  0.00  0.00    +0.000 A 
BRANCH  13  15
ATOM     15  C   UNL     1      49.030   7.500  20.056  0.00  0.00    +0.000 C 
ATOM     16  F   UNL     1      49.640   6.871  21.098  0.00  0.00    +0.000 F 
ATOM     17  F   UNL     1      49.147   8.835  20.308  0.00  0.00    +0.000 F 
ATOM     18  F   UNL     1      47.703   7.216  20.168  0.00  0.00    +0.000 F 
ENDBRANCH  13  15
ENDBRANCH   5   9
ENDBRANCH   2   3
BRANCH   1  20
ATOM     19  C   UNL     1      44.109   3.290  12.173  0.00  0.00    +0.000 C 
ATOM     20  C   UNL     1      44.409   4.381  11.118  0.00  0.00    +0.000 C 
ATOM     21  C   UNL     1      43.049   4.984  10.691  0.00  0.00    +0.000 C 
BRANCH  20  22
ATOM     22  C   UNL     1      45.126   3.848   9.859  0.00  0.00    +0.000 A 
ATOM     23  C   UNL     1      45.241   2.475   9.584  0.00  0.00    +0.000 A 
ATOM     24  C   UNL     1      45.911   2.016   8.447  0.00  0.00    +0.000 A 
ATOM     25  C   UNL     1      46.476   2.919   7.544  0.00  0.00    +0.000 A 
ATOM     26  C   UNL     1      46.375   4.289   7.792  0.00  0.00    +0.000 A 
ATOM     27  C   UNL     1      45.708   4.744   8.938  0.00  0.00    +0.000 A 
BRANCH  25  28
ATOM     28  C   UNL     1      47.201   2.366   6.371  0.00  0.00    +0.000 C 
ATOM     29  N   UNL     1      47.121   3.053   5.192  0.00  0.00    +0.000 N 
ATOM     30  O   UNL     1      47.826   1.314   6.441  0.00  0.00    +0.000 OA
ATOM     31  H   UNL     1      46.443   3.782   5.029  0.00  0.00    +0.000 HD
ATOM     32  H   UNL     1      47.530   2.598   4.386  0.00  0.00    +0.000 HD
ENDBRANCH  25  28
ENDBRANCH  20  22
ENDBRANCH   1  20
TORSDOF 6
ENDMDL
MODEL 7
REMARK VINA RESULT:    -7.323      5.536      9.661
REMARK INTER + INTRA:         -11.024
REMARK INTER:                  -9.835
REMARK INTRA:                  -1.189
REMARK UNBOUND:                -1.133
REMARK  Name = 
REMARK  8 active torsions:
REMARK  status: ('A' for Active; 'I' for Inactive)
REMARK    1  A    between atoms: C_1  and  C_2
REMARK    2  A    between atoms: C_2  and  C_3
REMARK    3  A    between atoms: C_2  and  C_4
REMARK    4  A    between atoms: C_2  and  C_22
REMARK    5  A    between atoms: C_5  and  C_6
REMARK    6  A    between atoms: C_8  and  C_9
REMARK    7  A    between atoms: C_13  and  C_14
REMARK    8  A    between atoms: C_25  and  C_26
REMARK                            x       y       z     vdW  Elec       q    Type
REMARK                         _______ _______ _______ _____ _____    ______ ____
ROOT
ATOM      1  C   UNL     1      48.132   7.898  14.386  0.00  0.00    +0.000 C 
ATOM      2  C   UNL     1      47.280   8.822  13.899  0.00  0.00    +0.000 C 
ENDROOT
BRANCH   2   3
ATOM      3  C   UNL     1      46.245   8.511  12.901  0.00  0.00    +0.000 A 
ATOM      4  C   UNL     1      46.083   7.209  12.434  0.00  0.00    +0.000 A 
ATOM      5  C   UNL     1      45.071   6.918  11.503  0.00  0.00    +0.000 A 
ATOM      6  C   UNL     1      44.277   7.993  11.078  0.00  0.00    +0.000 A 
ATOM      7  C   UNL     1      44.516   9.261  11.578  0.00  0.00    +0.000 A 
ATOM      8  N   UNL     1      45.474   9.539  12.478  0.00  0.00    +0.000 NA
BRANCH   5   9
ATOM      9  C   UNL     1      44.824   5.540  11.011  0.00  0.00    +0.000 A 
ATOM     10  C   UNL     1      43.938   4.666  11.666  0.00  0.00    +0.000 A 
ATOM     11  C   UNL     1      43.666   3.388  11.168  0.00  0.00    +0.000 A 
ATOM     12  C   UNL     1      44.258   2.958   9.983  0.00  0.00    +0.000 A 
ATOM     13  C   UNL     1      45.141   3.795   9.297  0.00  0.00    +0.000 A 
ATOM     14  C   UNL     1      45.434   5.063   9.834  0.00  0.00    +0.000 A 
BRANCH  13  15
ATOM     15  C   UNL     1      45.756   3.387   7.982  0.00  0.00    +0.000 C 
ATOM     16  F   UNL     1      46.411   2.194   8.029  0.00  0.00    +0.000 F 
ATOM     17  F   UNL     1      44.822   3.258   6.996  0.00  0.00    +0.000 F 
ATOM     18  F   UNL     1      46.660   4.295   7.521  0.00  0.00    +0.000 F 
ENDBRANCH  13  15
ENDBRANCH   5   9
ENDBRANCH   2   3
BRANCH   1  20
ATOM     19  C   UNL     1      50.559   8.025  14.695  0.00  0.00    +0.000 C 
ATOM     20  C   UNL     1      49.208   8.103  15.445  0.00  0.00    +0.000 C 
ATOM     21  C   UNL     1      49.082   9.541  16.001  0.00  0.00    +0.000 C 
BRANCH  20  22
ATOM     22  C   UNL     1      49.092   7.110  16.621  0.00  0.00    +0.000 A 
ATOM     23  C   UNL     1      48.668   5.782  16.445  0.00  0.00    +0.000 A 
ATOM     24  C   UNL     1      48.552   4.908  17.529  0.00  0.00    +0.000 A 
ATOM     25  C   UNL     1      48.870   5.333  18.821  0.00  0.00    +0.000 A 
ATOM     26  C   UNL     1      49.296   6.647  19.024  0.00  0.00    +0.000 A 
ATOM     27  C   UNL     1      49.404   7.523  17.934  0.00  0.00    +0.000 A 
BRANCH  25  28
ATOM     28  C   UNL     1      48.698   4.363  19.934  0.00  0.00    +0.000 C 
ATOM     29  N   UNL     1      48.317   3.091  19.615  0.00  0.00    +0.000 N 
ATOM     30  O   UNL     1      48.860   4.694  21.102  0.00  0.00    +0.000 OA
ATOM     31  H   UNL     1      47.952   2.840  18.708  0.00  0.00    +0.000 HD
ATOM     32  H   UNL     1      48.100   2.485  20.396  0.00  0.00    +0.000 HD
ENDBRANCH  25  28
ENDBRANCH  20  22
ENDBRANCH   1  20
TORSDOF 6
ENDMDL
MODEL 8
REMARK VINA RESULT:    -7.169      5.565      9.757
REMARK INTER + INTRA:         -10.817
REMARK INTER:                  -9.644
REMARK INTRA:                  -1.173
REMARK UNBOUND:                -1.133
REMARK  Name = 
REMARK  8 active torsions:
REMARK  status: ('A' for Active; 'I' for Inactive)
REMARK    1  A    between atoms: C_1  and  C_2
REMARK    2  A    between atoms: C_2  and  C_3
REMARK    3  A    between atoms: C_2  and  C_4
REMARK    4  A    between atoms: C_2  and  C_22
REMARK    5  A    between atoms: C_5  and  C_6
REMARK    6  A    between atoms: C_8  and  C_9
REMARK    7  A    between atoms: C_13  and  C_14
REMARK    8  A    between atoms: C_25  and  C_26
REMARK                            x       y       z     vdW  Elec       q    Type
REMARK                         _______ _______ _______ _____ _____    ______ ____
ROOT
ATOM      1  C   UNL     1      47.384   6.724  13.454  0.00  0.00    +0.000 C 
ATOM      2  C   UNL     1      46.365   7.378  12.862  0.00  0.00    +0.000 C 
ENDROOT
BRANCH   2   3
ATOM      3  C   UNL     1      45.353   6.705  12.034  0.00  0.00    +0.000 A 
ATOM      4  C   UNL     1      45.701   5.611  11.244  0.00  0.00    +0.000 A 
ATOM      5  C   UNL     1      44.719   4.956  10.481  0.00  0.00    +0.000 A 
ATOM      6  C   UNL     1      43.417   5.471  10.552  0.00  0.00    +0.000 A 
ATOM      7  C   UNL     1      43.158   6.574  11.348  0.00  0.00    +0.000 A 
ATOM      8  N   UNL     1      44.093   7.193  12.089  0.00  0.00    +0.000 NA
BRANCH   5   9
ATOM      9  C   UNL     1      45.026   3.758   9.661  0.00  0.00    +0.000 A 
ATOM     10  C   UNL     1      44.417   2.514   9.908  0.00  0.00    +0.000 A 
ATOM     11  C   UNL     1      44.667   1.402   9.098  0.00  0.00    +0.000 A 
ATOM     12  C   UNL     1      45.519   1.510   8.003  0.00  0.00    +0.000 A 
ATOM     13  C   UNL     1      46.142   2.728   7.718  0.00  0.00    +0.000 A 
ATOM     14  C   UNL     1      45.910   3.827   8.567  0.00  0.00    +0.000 A 
BRANCH  13  15
ATOM     15  C   UNL     1      47.026   2.900   6.508  0.00  0.00    +0.000 C 
ATOM     16  F   UNL     1      46.692   3.967   5.731  0.00  0.00    +0.000 F 
ATOM     17  F   UNL     1      48.333   3.084   6.849  0.00  0.00    +0.000 F 
ATOM     18  F   UNL     1      47.006   1.815   5.686  0.00  0.00    +0.000 F 
ENDBRANCH  13  15
ENDBRANCH   5   9
ENDBRANCH   2   3
BRANCH   1  20
ATOM     19  C   UNL     1      49.751   7.349  13.513  0.00  0.00    +0.000 C 
ATOM     20  C   UNL     1      48.458   7.315  14.360  0.00  0.00    +0.000 C 
ATOM     21  C   UNL     1      48.082   8.784  14.671  0.00  0.00    +0.000 C 
BRANCH  20  22
ATOM     22  C   UNL     1      48.607   6.554  15.693  0.00  0.00    +0.000 A 
ATOM     23  C   UNL     1      48.023   5.293  15.909  0.00  0.00    +0.000 A 
ATOM     24  C   UNL     1      48.157   4.631  17.132  0.00  0.00    +0.000 A 
ATOM     25  C   UNL     1      48.890   5.206  18.173  0.00  0.00    +0.000 A 
ATOM     26  C   UNL     1      49.481   6.456  17.986  0.00  0.00    +0.000 A 
ATOM     27  C   UNL     1      49.339   7.120  16.759  0.00  0.00    +0.000 A 
BRANCH  25  28
ATOM     28  C   UNL     1      48.969   4.464  19.459  0.00  0.00    +0.000 C 
ATOM     29  N   UNL     1      48.460   3.197  19.494  0.00  0.00    +0.000 N 
ATOM     30  O   UNL     1      49.445   4.976  20.465  0.00  0.00    +0.000 OA
ATOM     31  H   UNL     1      47.861   2.828  18.771  0.00  0.00    +0.000 HD
ATOM     32  H   UNL     1      48.427   2.759  20.406  0.00  0.00    +0.000 HD
ENDBRANCH  25  28
ENDBRANCH  20  22
ENDBRANCH   1  20
TORSDOF 6
ENDMDL
MODEL 9
REMARK VINA RESULT:    -7.083      6.024     10.024
REMARK INTER + INTRA:         -10.700
REMARK INTER:                  -9.480
REMARK INTRA:                  -1.220
REMARK UNBOUND:                -1.133
REMARK  Name = 
REMARK  8 active torsions:
REMARK  status: ('A' for Active; 'I' for Inactive)
REMARK    1  A    between atoms: C_1  and  C_2
REMARK    2  A    between atoms: C_2  and  C_3
REMARK    3  A    between atoms: C_2  and  C_4
REMARK    4  A    between atoms: C_2  and  C_22
REMARK    5  A    between atoms: C_5  and  C_6
REMARK    6  A    between atoms: C_8  and  C_9
REMARK    7  A    between atoms: C_13  and  C_14
REMARK    8  A    between atoms: C_25  and  C_26
REMARK                            x       y       z     vdW  Elec       q    Type
REMARK                         _______ _______ _______ _____ _____    ______ ____
ROOT
ATOM      1  C   UNL     1      47.335   7.485  12.112  0.00  0.00    +0.000 C 
ATOM      2  C   UNL     1      46.020   7.698  11.912  0.00  0.00    +0.000 C 
ENDROOT
BRANCH   2   3
ATOM      3  C   UNL     1      45.112   6.667  11.386  0.00  0.00    +0.000 A 
ATOM      4  C   UNL     1      45.595   5.658  10.555  0.00  0.00    +0.000 A 
ATOM      5  C   UNL     1      44.724   4.661  10.083  0.00  0.00    +0.000 A 
ATOM      6  C   UNL     1      43.381   4.758  10.476  0.00  0.00    +0.000 A 
ATOM      7  C   UNL     1      42.979   5.803  11.288  0.00  0.00    +0.000 A 
ATOM      8  N   UNL     1      43.812   6.750  11.752  0.00  0.00    +0.000 NA
BRANCH   5   9
ATOM      9  C   UNL     1      45.196   3.538   9.236  0.00  0.00    +0.000 A 
ATOM     10  C   UNL     1      44.919   2.197   9.560  0.00  0.00    +0.000 A 
ATOM     11  C   UNL     1      45.318   1.145   8.730  0.00  0.00    +0.000 A 
ATOM     12  C   UNL     1      45.988   1.408   7.538  0.00  0.00    +0.000 A 
ATOM     13  C   UNL     1      46.280   2.726   7.175  0.00  0.00    +0.000 A 
ATOM     14  C   UNL     1      45.906   3.770   8.042  0.00  0.00    +0.000 A 
BRANCH  13  15
ATOM     15  C   UNL     1      46.953   3.054   5.865  0.00  0.00    +0.000 C 
ATOM     16  F   UNL     1      48.232   2.597   5.775  0.00  0.00    +0.000 F 
ATOM     17  F   UNL     1      46.292   2.516   4.801  0.00  0.00    +0.000 F 
ATOM     18  F   UNL     1      47.012   4.393   5.627  0.00  0.00    +0.000 F 
ENDBRANCH  13  15
ENDBRANCH   5   9
ENDBRANCH   2   3
BRANCH   1  20
ATOM     19  C   UNL     1      49.643   8.267  11.858  0.00  0.00    +0.000 C 
ATOM     20  C   UNL     1      48.352   8.465  12.687  0.00  0.00    +0.000 C 
ATOM     21  C   UNL     1      47.854   9.904  12.413  0.00  0.00    +0.000 C 
BRANCH  20  22
ATOM     22  C   UNL     1      48.556   8.297  14.207  0.00  0.00    +0.000 A 
ATOM     23  C   UNL     1      48.492   9.382  15.098  0.00  0.00    +0.000 A 
ATOM     24  C   UNL     1      48.700   9.209  16.469  0.00  0.00    +0.000 A 
ATOM     25  C   UNL     1      48.966   7.941  16.991  0.00  0.00    +0.000 A 
ATOM     26  C   UNL     1      49.034   6.846  16.128  0.00  0.00    +0.000 A 
ATOM     27  C   UNL     1      48.831   7.026  14.753  0.00  0.00    +0.000 A 
BRANCH  25  28
ATOM     28  C   UNL     1      49.207   7.829  18.453  0.00  0.00    +0.000 C 
ATOM     29  N   UNL     1      49.897   6.738  18.902  0.00  0.00    +0.000 N 
ATOM     30  O   UNL     1      48.779   8.665  19.239  0.00  0.00    +0.000 OA
ATOM     31  H   UNL     1      50.063   5.923  18.331  0.00  0.00    +0.000 HD
ATOM     32  H   UNL     1      49.949   6.631  19.907  0.00  0.00    +0.000 HD
ENDBRANCH  25  28
ENDBRANCH  20  22
ENDBRANCH   1  20
TORSDOF 6
ENDMDL
