MODEL 1
REMARK VINA RESULT:    -8.763      0.000      0.000
REMARK INTER + INTRA:         -11.555
REMARK INTER:                 -10.812
REMARK INTRA:                  -0.743
REMARK UNBOUND:                -0.743
REMARK  Name = 
REMARK  4 active torsions:
REMARK  status: ('A' for Active; 'I' for Inactive)
REMARK    1  A    between atoms: C_2  and  C_4
REMARK    2  A    between atoms: N_8  and  C_9
REMARK    3  A    between atoms: C_9  and  C_10
REMARK    4  A    between atoms: C_14  and  C_15
REMARK                            x       y       z     vdW  Elec       q    Type
REMARK                         _______ _______ _______ _____ _____    ______ ____
ROOT
ATOM      1  C   UNL     1      46.380   2.253   7.687  0.00  0.00    +0.000 A 
ATOM      2  C   UNL     1      45.632   1.789   8.764  0.00  0.00    +0.000 A 
ATOM      3  C   UNL     1      44.792   2.674   9.441  0.00  0.00    +0.000 A 
ATOM      4  C   UNL     1      44.715   4.004   9.039  0.00  0.00    +0.000 A 
ATOM      5  N   UNL     1      43.860   4.921   9.598  0.00  0.00    +0.000 N 
ATOM      6  N   UNL     1      45.434   4.462   7.994  0.00  0.00    +0.000 NA
ATOM      7  C   UNL     1      46.257   3.592   7.350  0.00  0.00    +0.000 A 
ATOM      8  H   UNL     1      44.025   5.829   9.175  0.00  0.00    +0.000 HD
ENDROOT
BRANCH   1  10
ATOM      9  N   UNL     1      48.406   1.981   6.372  0.00  0.00    +0.000 N 
ATOM     10  C   UNL     1      47.300   1.393   6.915  0.00  0.00    +0.000 C 
ATOM     11  O   UNL     1      47.097   0.189   6.796  0.00  0.00    +0.000 OA
ATOM     12  H   UNL     1      49.076   1.357   5.939  0.00  0.00    +0.000 HD
ATOM     13  H   UNL     1      48.739   2.888   6.666  0.00  0.00    +0.000 HD
ENDBRANCH   1  10
BRANCH   5  14
ATOM     14  C   UNL     1      43.483   4.922  10.997  0.00  0.00    +0.000 C 
BRANCH  14  15
ATOM     15  C   UNL     1      44.612   5.203  11.968  0.00  0.00    +0.000 A 
ATOM     16  C   UNL     1      45.031   4.277  12.933  0.00  0.00    +0.000 A 
ATOM     17  C   UNL     1      46.142   4.539  13.731  0.00  0.00    +0.000 A 
ATOM     18  C   UNL     1      46.879   5.709  13.546  0.00  0.00    +0.000 A 
ATOM     19  C   UNL     1      46.534   6.640  12.552  0.00  0.00    +0.000 A 
ATOM     20  C   UNL     1      45.371   6.383  11.800  0.00  0.00    +0.000 A 
BRANCH  19  21
ATOM     21  C   UNL     1      47.402   7.797  12.260  0.00  0.00    +0.000 A 
ATOM     22  C   UNL     1      48.732   7.648  11.854  0.00  0.00    +0.000 A 
ATOM     23  N   UNL     1      49.557   8.682  11.563  0.00  0.00    +0.000 NA
ATOM     24  C   UNL     1      48.999   9.903  11.686  0.00  0.00    +0.000 A 
ATOM     25  C   UNL     1      47.680  10.076  12.070  0.00  0.00    +0.000 A 
ATOM     26  N   UNL     1      46.854   9.038  12.358  0.00  0.00    +0.000 NA
ENDBRANCH  19  21
ENDBRANCH  14  15
ENDBRANCH   5  14
TORSDOF 4
ENDMDL
MODEL 2
REMARK VINA RESULT:    -8.558      2.454      3.778
REMARK INTER + INTRA:         -11.302
REMARK INTER:                 -10.632
REMARK INTRA:                  -0.670
REMARK UNBOUND:                -0.743
REMARK  Name = 
REMARK  4 active torsions:
REMARK  status: ('A' for Active; 'I' for Inactive)
REMARK    1  A    between atoms: C_2  and  C_4
REMARK    2  A    between atoms: N_8  and  C_9
REMARK    3  A    between atoms: C_9  and  C_10
REMARK    4  A    between atoms: C_14  and  C_15
REMARK                            x       y       z     vdW  Elec       q    Type
REMARK                         _______ _______ _______ _____ _____    ______ ____
ROOT
ATOM      1  C   UNL     1      46.407   2.289   7.623  0.00  0.00    +0.000 A 
ATOM      2  C   UNL     1      45.877   1.845   8.831  0.00  0.00    +0.000 A 
ATOM      3  C   UNL     1      45.136   2.731   9.615  0.00  0.00    +0.000 A 
ATOM      4  C   UNL     1      44.940   4.040   9.187  0.00  0.00    +0.000 A 
ATOM      5  N   UNL     1      44.161   4.952   9.857  0.00  0.00    +0.000 N 
ATOM      6  N   UNL     1      45.447   4.478   8.017  0.00  0.00    +0.000 NA
ATOM      7  C   UNL     1      46.177   3.609   7.268  0.00  0.00    +0.000 A 
ATOM      8  H   UNL     1      44.216   5.847   9.380  0.00  0.00    +0.000 HD
ENDROOT
BRANCH   1  10
ATOM      9  N   UNL     1      48.243   2.010   6.056  0.00  0.00    +0.000 N 
ATOM     10  C   UNL     1      47.209   1.428   6.732  0.00  0.00    +0.000 C 
ATOM     11  O   UNL     1      46.980   0.227   6.629  0.00  0.00    +0.000 OA
ATOM     12  H   UNL     1      48.844   1.385   5.533  0.00  0.00    +0.000 HD
ATOM     13  H   UNL     1      48.621   2.911   6.311  0.00  0.00    +0.000 HD
ENDBRANCH   1  10
BRANCH   5  14
ATOM     14  C   UNL     1      44.035   4.997  11.300  0.00  0.00    +0.000 C 
BRANCH  14  15
ATOM     15  C   UNL     1      45.253   5.520  12.037  0.00  0.00    +0.000 A 
ATOM     16  C   UNL     1      45.761   6.810  11.841  0.00  0.00    +0.000 A 
ATOM     17  C   UNL     1      46.816   7.282  12.619  0.00  0.00    +0.000 A 
ATOM     18  C   UNL     1      47.348   6.488  13.635  0.00  0.00    +0.000 A 
ATOM     19  C   UNL     1      46.832   5.211  13.910  0.00  0.00    +0.000 A 
ATOM     20  C   UNL     1      45.809   4.731  13.069  0.00  0.00    +0.000 A 
BRANCH  19  21
ATOM     21  C   UNL     1      47.295   4.439  15.080  0.00  0.00    +0.000 A 
ATOM     22  C   UNL     1      47.335   4.988  16.366  0.00  0.00    +0.000 A 
ATOM     23  N   UNL     1      47.740   4.310  17.467  0.00  0.00    +0.000 NA
ATOM     24  C   UNL     1      48.105   3.032  17.243  0.00  0.00    +0.000 A 
ATOM     25  C   UNL     1      48.057   2.462  15.982  0.00  0.00    +0.000 A 
ATOM     26  N   UNL     1      47.649   3.142  14.881  0.00  0.00    +0.000 NA
ENDBRANCH  19  21
ENDBRANCH  14  15
ENDBRANCH   5  14
TORSDOF 4
ENDMDL
MODEL 3
REMARK VINA RESULT:    -7.728      2.503      3.354
REMARK INTER + INTRA:         -10.279
REMARK INTER:                  -9.832
REMARK INTRA:                  -0.446
REMARK UNBOUND:                -0.743
REMARK  Name = 
REMARK  4 active torsions:
REMARK  status: ('A' for Active; 'I' for Inactive)
REMARK    1  A    between atoms: C_2  and  C_4
REMARK    2  A    between atoms: N_8  and  C_9
REMARK    3  A    between atoms: C_9  and  C_10
REMARK    4  A    between atoms: C_14  and  C_15
REMARK                            x       y       z     vdW  Elec       q    Type
REMARK                         _______ _______ _______ _____ _____    ______ ____
ROOT
ATOM      1  C   UNL     1      46.690   2.425   7.187  0.00  0.00    +0.000 A 
ATOM      2  C   UNL     1      46.486   3.625   7.859  0.00  0.00    +0.000 A 
ATOM      3  C   UNL     1      45.686   3.637   9.003  0.00  0.00    +0.000 A 
ATOM      4  C   UNL     1      45.101   2.459   9.453  0.00  0.00    +0.000 A 
ATOM      5  N   UNL     1      44.365   2.366  10.610  0.00  0.00    +0.000 N 
ATOM      6  N   UNL     1      45.295   1.289   8.810  0.00  0.00    +0.000 NA
ATOM      7  C   UNL     1      46.067   1.294   7.690  0.00  0.00    +0.000 A 
ATOM      8  H   UNL     1      44.002   1.422  10.696  0.00  0.00    +0.000 HD
ENDROOT
BRANCH   1  10
ATOM      9  N   UNL     1      47.286   3.223   4.969  0.00  0.00    +0.000 N 
ATOM     10  C   UNL     1      47.513   2.316   5.966  0.00  0.00    +0.000 C 
ATOM     11  O   UNL     1      48.393   1.467   5.863  0.00  0.00    +0.000 OA
ATOM     12  H   UNL     1      47.929   3.198   4.188  0.00  0.00    +0.000 HD
ATOM     13  H   UNL     1      46.771   4.078   5.120  0.00  0.00    +0.000 HD
ENDBRANCH   1  10
BRANCH   5  14
ATOM     14  C   UNL     1      43.521   3.430  11.113  0.00  0.00    +0.000 C 
BRANCH  14  15
ATOM     15  C   UNL     1      44.260   4.630  11.671  0.00  0.00    +0.000 A 
ATOM     16  C   UNL     1      43.877   5.950  11.400  0.00  0.00    +0.000 A 
ATOM     17  C   UNL     1      44.522   7.017  12.020  0.00  0.00    +0.000 A 
ATOM     18  C   UNL     1      45.528   6.780  12.956  0.00  0.00    +0.000 A 
ATOM     19  C   UNL     1      45.907   5.473  13.307  0.00  0.00    +0.000 A 
ATOM     20  C   UNL     1      45.285   4.413  12.619  0.00  0.00    +0.000 A 
BRANCH  19  21
ATOM     21  C   UNL     1      46.863   5.227  14.403  0.00  0.00    +0.000 A 
ATOM     22  C   UNL     1      47.921   6.099  14.680  0.00  0.00    +0.000 A 
ATOM     23  N   UNL     1      48.810   5.917  15.686  0.00  0.00    +0.000 NA
ATOM     24  C   UNL     1      48.603   4.814  16.432  0.00  0.00    +0.000 A 
ATOM     25  C   UNL     1      47.553   3.945  16.189  0.00  0.00    +0.000 A 
ATOM     26  N   UNL     1      46.661   4.131  15.182  0.00  0.00    +0.000 NA
ENDBRANCH  19  21
ENDBRANCH  14  15
ENDBRANCH   5  14
TORSDOF 4
ENDMDL
MODEL 4
REMARK VINA RESULT:    -7.199      2.617      3.242
REMARK INTER + INTRA:          -9.626
REMARK INTER:                  -9.078
REMARK INTRA:                  -0.547
REMARK UNBOUND:                -0.743
REMARK  Name = 
REMARK  4 active torsions:
REMARK  status: ('A' for Active; 'I' for Inactive)
REMARK    1  A    between atoms: C_2  and  C_4
REMARK    2  A    between atoms: N_8  and  C_9
REMARK    3  A    between atoms: C_9  and  C_10
REMARK    4  A    between atoms: C_14  and  C_15
REMARK                            x       y       z     vdW  Elec       q    Type
REMARK                         _______ _______ _______ _____ _____    ______ ____
ROOT
ATOM      1  C   UNL     1      46.524   2.942   7.335  0.00  0.00    +0.000 A 
ATOM      2  C   UNL     1      46.236   4.196   7.864  0.00  0.00    +0.000 A 
ATOM      3  C   UNL     1      45.467   4.284   9.026  0.00  0.00    +0.000 A 
ATOM      4  C   UNL     1      44.994   3.126   9.635  0.00  0.00    +0.000 A 
ATOM      5  N   UNL     1      44.297   3.116  10.819  0.00  0.00    +0.000 N 
ATOM      6  N   UNL     1      45.270   1.906   9.130  0.00  0.00    +0.000 NA
ATOM      7  C   UNL     1      46.011   1.835   7.992  0.00  0.00    +0.000 A 
ATOM      8  H   UNL     1      44.017   2.165  11.030  0.00  0.00    +0.000 HD
ENDROOT
BRANCH   1  10
ATOM      9  N   UNL     1      48.645   2.442   6.258  0.00  0.00    +0.000 N 
ATOM     10  C   UNL     1      47.323   2.752   6.108  0.00  0.00    +0.000 C 
ATOM     11  O   UNL     1      46.813   2.833   4.995  0.00  0.00    +0.000 OA
ATOM     12  H   UNL     1      49.149   2.212   5.411  0.00  0.00    +0.000 HD
ATOM     13  H   UNL     1      49.030   2.111   7.131  0.00  0.00    +0.000 HD
ENDBRANCH   1  10
BRANCH   5  14
ATOM     14  C   UNL     1      43.379   4.163  11.220  0.00  0.00    +0.000 C 
BRANCH  14  15
ATOM     15  C   UNL     1      44.031   5.419  11.762  0.00  0.00    +0.000 A 
ATOM     16  C   UNL     1      45.177   5.392  12.568  0.00  0.00    +0.000 A 
ATOM     17  C   UNL     1      45.800   6.576  12.953  0.00  0.00    +0.000 A 
ATOM     18  C   UNL     1      45.317   7.804  12.501  0.00  0.00    +0.000 A 
ATOM     19  C   UNL     1      44.207   7.880  11.643  0.00  0.00    +0.000 A 
ATOM     20  C   UNL     1      43.555   6.674  11.319  0.00  0.00    +0.000 A 
BRANCH  19  21
ATOM     21  C   UNL     1      43.793   9.165  11.048  0.00  0.00    +0.000 A 
ATOM     22  C   UNL     1      44.697  10.209  10.825  0.00  0.00    +0.000 A 
ATOM     23  N   UNL     1      44.362  11.398  10.269  0.00  0.00    +0.000 NA
ATOM     24  C   UNL     1      43.064  11.515   9.924  0.00  0.00    +0.000 A 
ATOM     25  C   UNL     1      42.154  10.489  10.118  0.00  0.00    +0.000 A 
ATOM     26  N   UNL     1      42.493   9.298  10.673  0.00  0.00    +0.000 NA
ENDBRANCH  19  21
ENDBRANCH  14  15
ENDBRANCH   5  14
TORSDOF 4
ENDMDL
MODEL 5
REMARK VINA RESULT:    -6.961      3.120      7.272
REMARK INTER + INTRA:          -9.332
REMARK INTER:                  -8.853
REMARK INTRA:                  -0.479
REMARK UNBOUND:                -0.743
REMARK  Name = 
REMARK  4 active torsions:
REMARK  status: ('A' for Active; 'I' for Inactive)
REMARK    1  A    between atoms: C_2  and  C_4
REMARK    2  A    between atoms: N_8  and  C_9
REMARK    3  A    between atoms: C_9  and  C_10
REMARK    4  A    between atoms: C_14  and  C_15
REMARK                            x       y       z     vdW  Elec       q    Type
REMARK                         _______ _______ _______ _____ _____    ______ ____
ROOT
ATOM      1  C   UNL     1      47.950   5.704  15.256  0.00  0.00    +0.000 A 
ATOM      2  C   UNL     1      47.063   4.796  14.689  0.00  0.00    +0.000 A 
ATOM      3  C   UNL     1      46.497   5.084  13.445  0.00  0.00    +0.000 A 
ATOM      4  C   UNL     1      46.819   6.270  12.794  0.00  0.00    +0.000 A 
ATOM      5  N   UNL     1      46.370   6.596  11.537  0.00  0.00    +0.000 N 
ATOM      6  N   UNL     1      47.681   7.155  13.335  0.00  0.00    +0.000 NA
ATOM      7  C   UNL     1      48.216   6.867  14.552  0.00  0.00    +0.000 A 
ATOM      8  H   UNL     1      46.695   7.528  11.301  0.00  0.00    +0.000 HD
ENDROOT
BRANCH   1  10
ATOM      9  N   UNL     1      47.882   5.841  17.682  0.00  0.00    +0.000 N 
ATOM     10  C   UNL     1      48.592   5.489  16.569  0.00  0.00    +0.000 C 
ATOM     11  O   UNL     1      49.705   4.981  16.660  0.00  0.00    +0.000 OA
ATOM     12  H   UNL     1      48.295   5.589  18.573  0.00  0.00    +0.000 HD
ATOM     13  H   UNL     1      46.887   6.007  17.663  0.00  0.00    +0.000 HD
ENDBRANCH   1  10
BRANCH   5  14
ATOM     14  C   UNL     1      45.068   6.219  11.025  0.00  0.00    +0.000 C 
BRANCH  14  15
ATOM     15  C   UNL     1      44.966   4.799  10.506  0.00  0.00    +0.000 A 
ATOM     16  C   UNL     1      43.999   3.893  10.960  0.00  0.00    +0.000 A 
ATOM     17  C   UNL     1      43.878   2.634  10.376  0.00  0.00    +0.000 A 
ATOM     18  C   UNL     1      44.690   2.279   9.299  0.00  0.00    +0.000 A 
ATOM     19  C   UNL     1      45.633   3.175   8.768  0.00  0.00    +0.000 A 
ATOM     20  C   UNL     1      45.781   4.417   9.416  0.00  0.00    +0.000 A 
BRANCH  19  21
ATOM     21  C   UNL     1      46.380   2.852   7.538  0.00  0.00    +0.000 A 
ATOM     22  C   UNL     1      47.213   1.733   7.443  0.00  0.00    +0.000 A 
ATOM     23  N   UNL     1      47.904   1.393   6.329  0.00  0.00    +0.000 NA
ATOM     24  C   UNL     1      47.730   2.221   5.280  0.00  0.00    +0.000 A 
ATOM     25  C   UNL     1      46.897   3.326   5.344  0.00  0.00    +0.000 A 
ATOM     26  N   UNL     1      46.203   3.663   6.461  0.00  0.00    +0.000 NA
ENDBRANCH  19  21
ENDBRANCH  14  15
ENDBRANCH   5  14
TORSDOF 4
ENDMDL
MODEL 6
REMARK VINA RESULT:    -6.780      4.643      7.835
REMARK INTER + INTRA:          -9.108
REMARK INTER:                  -8.729
REMARK INTRA:                  -0.379
REMARK UNBOUND:                -0.743
REMARK  Name = 
REMARK  4 active torsions:
REMARK  status: ('A' for Active; 'I' for Inactive)
REMARK    1  A    between atoms: C_2  and  C_4
REMARK    2  A    between atoms: N_8  and  C_9
REMARK    3  A    between atoms: C_9  and  C_10
REMARK    4  A    between atoms: C_14  and  C_15
REMARK                            x       y       z     vdW  Elec       q    Type
REMARK                         _______ _______ _______ _____ _____    ______ ____
ROOT
ATOM      1  C   UNL     1      49.679   3.796  17.348  0.00  0.00    +0.000 A 
ATOM      2  C   UNL     1      49.103   5.046  17.146  0.00  0.00    +0.000 A 
ATOM      3  C   UNL     1      48.011   5.161  16.283  0.00  0.00    +0.000 A 
ATOM      4  C   UNL     1      47.517   4.033  15.635  0.00  0.00    +0.000 A 
ATOM      5  N   UNL     1      46.402   4.042  14.833  0.00  0.00    +0.000 N 
ATOM      6  N   UNL     1      48.067   2.817  15.828  0.00  0.00    +0.000 NA
ATOM      7  C   UNL     1      49.137   2.721  16.662  0.00  0.00    +0.000 A 
ATOM      8  H   UNL     1      46.274   3.118  14.435  0.00  0.00    +0.000 HD
ENDROOT
BRANCH   1  10
ATOM      9  N   UNL     1      51.554   2.427  18.067  0.00  0.00    +0.000 N 
ATOM     10  C   UNL     1      50.840   3.579  18.235  0.00  0.00    +0.000 C 
ATOM     11  O   UNL     1      51.172   4.417  19.067  0.00  0.00    +0.000 OA
ATOM     12  H   UNL     1      52.405   2.346  18.611  0.00  0.00    +0.000 HD
ATOM     13  H   UNL     1      51.477   1.855  17.239  0.00  0.00    +0.000 HD
ENDBRANCH   1  10
BRANCH   5  14
ATOM     14  C   UNL     1      46.022   5.163  13.996  0.00  0.00    +0.000 C 
BRANCH  14  15
ATOM     15  C   UNL     1      45.057   4.832  12.876  0.00  0.00    +0.000 A 
ATOM     16  C   UNL     1      43.716   5.236  12.886  0.00  0.00    +0.000 A 
ATOM     17  C   UNL     1      42.896   5.000  11.785  0.00  0.00    +0.000 A 
ATOM     18  C   UNL     1      43.416   4.400  10.639  0.00  0.00    +0.000 A 
ATOM     19  C   UNL     1      44.769   4.031  10.557  0.00  0.00    +0.000 A 
ATOM     20  C   UNL     1      45.562   4.222  11.706  0.00  0.00    +0.000 A 
BRANCH  19  21
ATOM     21  C   UNL     1      45.348   3.537   9.293  0.00  0.00    +0.000 A 
ATOM     22  C   UNL     1      45.747   4.401   8.268  0.00  0.00    +0.000 A 
ATOM     23  N   UNL     1      46.295   3.990   7.099  0.00  0.00    +0.000 NA
ATOM     24  C   UNL     1      46.444   2.655   6.982  0.00  0.00    +0.000 A 
ATOM     25  C   UNL     1      46.072   1.781   7.990  0.00  0.00    +0.000 A 
ATOM     26  N   UNL     1      45.526   2.196   9.162  0.00  0.00    +0.000 NA
ENDBRANCH  19  21
ENDBRANCH  14  15
ENDBRANCH   5  14
TORSDOF 4
ENDMDL
MODEL 7
REMARK VINA RESULT:    -6.751      1.815      2.414
REMARK INTER + INTRA:          -9.073
REMARK INTER:                  -8.487
REMARK INTRA:                  -0.586
REMARK UNBOUND:                -0.743
REMARK  Name = 
REMARK  4 active torsions:
REMARK  status: ('A' for Active; 'I' for Inactive)
REMARK    1  A    between atoms: C_2  and  C_4
REMARK    2  A    between atoms: N_8  and  C_9
REMARK    3  A    between atoms: C_9  and  C_10
REMARK    4  A    between atoms: C_14  and  C_15
REMARK                            x       y       z     vdW  Elec       q    Type
REMARK                         _______ _______ _______ _____ _____    ______ ____
ROOT
ATOM      1  C   UNL     1      46.442   2.879   7.285  0.00  0.00    +0.000 A 
ATOM      2  C   UNL     1      46.417   4.087   7.973  0.00  0.00    +0.000 A 
ATOM      3  C   UNL     1      45.642   4.197   9.129  0.00  0.00    +0.000 A 
ATOM      4  C   UNL     1      44.903   3.106   9.575  0.00  0.00    +0.000 A 
ATOM      5  N   UNL     1      44.177   3.102  10.741  0.00  0.00    +0.000 N 
ATOM      6  N   UNL     1      44.924   1.929   8.916  0.00  0.00    +0.000 NA
ATOM      7  C   UNL     1      45.674   1.840   7.786  0.00  0.00    +0.000 A 
ATOM      8  H   UNL     1      43.686   2.217  10.822  0.00  0.00    +0.000 HD
ENDROOT
BRANCH   1  10
ATOM      9  N   UNL     1      48.564   2.430   6.188  0.00  0.00    +0.000 N 
ATOM     10  C   UNL     1      47.226   2.671   6.051  0.00  0.00    +0.000 C 
ATOM     11  O   UNL     1      46.692   2.680   4.947  0.00  0.00    +0.000 OA
ATOM     12  H   UNL     1      49.063   2.187   5.340  0.00  0.00    +0.000 HD
ATOM     13  H   UNL     1      48.980   2.156   7.066  0.00  0.00    +0.000 HD
ENDBRANCH   1  10
BRANCH   5  14
ATOM     14  C   UNL     1      43.496   4.267  11.268  0.00  0.00    +0.000 C 
BRANCH  14  15
ATOM     15  C   UNL     1      44.373   5.230  12.044  0.00  0.00    +0.000 A 
ATOM     16  C   UNL     1      45.332   4.802  12.971  0.00  0.00    +0.000 A 
ATOM     17  C   UNL     1      46.187   5.718  13.580  0.00  0.00    +0.000 A 
ATOM     18  C   UNL     1      46.128   7.068  13.237  0.00  0.00    +0.000 A 
ATOM     19  C   UNL     1      45.224   7.538  12.269  0.00  0.00    +0.000 A 
ATOM     20  C   UNL     1      44.327   6.603  11.714  0.00  0.00    +0.000 A 
BRANCH  19  21
ATOM     21  C   UNL     1      45.268   8.936  11.801  0.00  0.00    +0.000 A 
ATOM     22  C   UNL     1      44.138   9.592  11.304  0.00  0.00    +0.000 A 
ATOM     23  N   UNL     1      44.133  10.878  10.878  0.00  0.00    +0.000 NA
ATOM     24  C   UNL     1      45.319  11.511  10.973  0.00  0.00    +0.000 A 
ATOM     25  C   UNL     1      46.448  10.888  11.479  0.00  0.00    +0.000 A 
ATOM     26  N   UNL     1      46.450   9.600  11.908  0.00  0.00    +0.000 NA
ENDBRANCH  19  21
ENDBRANCH  14  15
ENDBRANCH   5  14
TORSDOF 4
ENDMDL
MODEL 8
REMARK VINA RESULT:    -6.414      5.256      8.074
REMARK INTER + INTRA:          -8.658
REMARK INTER:                  -8.094
REMARK INTRA:                  -0.563
REMARK UNBOUND:                -0.743
REMARK  Name = 
REMARK  4 active torsions:
REMARK  status: ('A' for Active; 'I' for Inactive)
REMARK    1  A    between atoms: C_2  and  C_4
REMARK    2  A    between atoms: N_8  and  C_9
REMARK    3  A    between atoms: C_9  and  C_10
REMARK    4  A    between atoms: C_14  and  C_15
REMARK                            x       y       z     vdW  Elec       q    Type
REMARK                         _______ _______ _______ _____ _____    ______ ____
ROOT
ATOM      1  C   UNL     1      51.244   2.458  17.449  0.00  0.00    +0.000 A 
ATOM      2  C   UNL     1      51.627   3.793  17.521  0.00  0.00    +0.000 A 
ATOM      3  C   UNL     1      50.705   4.785  17.180  0.00  0.00    +0.000 A 
ATOM      4  C   UNL     1      49.425   4.430  16.769  0.00  0.00    +0.000 A 
ATOM      5  N   UNL     1      48.434   5.340  16.490  0.00  0.00    +0.000 N 
ATOM      6  N   UNL     1      49.043   3.138  16.699  0.00  0.00    +0.000 NA
ATOM      7  C   UNL     1      49.955   2.182  17.024  0.00  0.00    +0.000 A 
ATOM      8  H   UNL     1      47.612   4.844  16.163  0.00  0.00    +0.000 HD
ENDROOT
BRANCH   1  10
ATOM      9  N   UNL     1      51.583   0.160  18.164  0.00  0.00    +0.000 N 
ATOM     10  C   UNL     1      52.152   1.342  17.783  0.00  0.00    +0.000 C 
ATOM     11  O   UNL     1      53.369   1.459  17.689  0.00  0.00    +0.000 OA
ATOM     12  H   UNL     1      52.216  -0.622  18.286  0.00  0.00    +0.000 HD
ATOM     13  H   UNL     1      50.610  -0.053  18.000  0.00  0.00    +0.000 HD
ENDBRANCH   1  10
BRANCH   5  14
ATOM     14  C   UNL     1      48.679   6.640  15.900  0.00  0.00    +0.000 C 
BRANCH  14  15
ATOM     15  C   UNL     1      48.248   6.784  14.454  0.00  0.00    +0.000 A 
ATOM     16  C   UNL     1      49.005   7.480  13.503  0.00  0.00    +0.000 A 
ATOM     17  C   UNL     1      48.621   7.494  12.164  0.00  0.00    +0.000 A 
ATOM     18  C   UNL     1      47.501   6.774  11.747  0.00  0.00    +0.000 A 
ATOM     19  C   UNL     1      46.745   6.011  12.653  0.00  0.00    +0.000 A 
ATOM     20  C   UNL     1      47.115   6.064  14.011  0.00  0.00    +0.000 A 
BRANCH  19  21
ATOM     21  C   UNL     1      45.656   5.133  12.184  0.00  0.00    +0.000 A 
ATOM     22  C   UNL     1      45.308   3.954  12.852  0.00  0.00    +0.000 A 
ATOM     23  N   UNL     1      44.307   3.129  12.463  0.00  0.00    +0.000 NA
ATOM     24  C   UNL     1      43.640   3.528  11.362  0.00  0.00    +0.000 A 
ATOM     25  C   UNL     1      43.954   4.700  10.694  0.00  0.00    +0.000 A 
ATOM     26  N   UNL     1      44.955   5.527  11.087  0.00  0.00    +0.000 NA
ENDBRANCH  19  21
ENDBRANCH  14  15
ENDBRANCH   5  14
TORSDOF 4
ENDMDL
MODEL 9
REMARK VINA RESULT:    -6.294      3.267      7.327
REMARK INTER + INTRA:          -8.509
REMARK INTER:                  -7.939
REMARK INTRA:                  -0.569
REMARK UNBOUND:                -0.743
REMARK  Name = 
REMARK  4 active torsions:
REMARK  status: ('A' for Active; 'I' for Inactive)
REMARK    1  A    between atoms: C_2  and  C_4
REMARK    2  A    between atoms: N_8  and  C_9
REMARK    3  A    between atoms: C_9  and  C_10
REMARK    4  A    between atoms: C_14  and  C_15
REMARK                            x       y       z     vdW  Elec       q    Type
REMARK                         _______ _______ _______ _____ _____    ______ ____
ROOT
ATOM      1  C   UNL     1      49.456   7.758  14.033  0.00  0.00    +0.000 A 
ATOM      2  C   UNL     1      48.553   6.761  14.388  0.00  0.00    +0.000 A 
ATOM      3  C   UNL     1      47.482   6.478  13.539  0.00  0.00    +0.000 A 
ATOM      4  C   UNL     1      47.325   7.195  12.357  0.00  0.00    +0.000 A 
ATOM      5  N   UNL     1      46.347   6.932  11.429  0.00  0.00    +0.000 N 
ATOM      6  N   UNL     1      48.197   8.162  12.002  0.00  0.00    +0.000 NA
ATOM      7  C   UNL     1      49.230   8.434  12.844  0.00  0.00    +0.000 A 
ATOM      8  H   UNL     1      46.405   7.618  10.684  0.00  0.00    +0.000 HD
ENDROOT
BRANCH   1  10
ATOM      9  N   UNL     1      51.755   7.392  14.732  0.00  0.00    +0.000 N 
ATOM     10  C   UNL     1      50.614   8.130  14.870  0.00  0.00    +0.000 C 
ATOM     11  O   UNL     1      50.566   9.088  15.634  0.00  0.00    +0.000 OA
ATOM     12  H   UNL     1      52.567   7.727  15.236  0.00  0.00    +0.000 HD
ATOM     13  H   UNL     1      51.916   6.782  13.944  0.00  0.00    +0.000 HD
ENDBRANCH   1  10
BRANCH   5  14
ATOM     14  C   UNL     1      45.020   6.461  11.771  0.00  0.00    +0.000 C 
BRANCH  14  15
ATOM     15  C   UNL     1      44.712   5.038  11.350  0.00  0.00    +0.000 A 
ATOM     16  C   UNL     1      43.636   4.309  11.871  0.00  0.00    +0.000 A 
ATOM     17  C   UNL     1      43.330   3.044  11.375  0.00  0.00    +0.000 A 
ATOM     18  C   UNL     1      44.067   2.507  10.319  0.00  0.00    +0.000 A 
ATOM     19  C   UNL     1      45.118   3.225   9.723  0.00  0.00    +0.000 A 
ATOM     20  C   UNL     1      45.448   4.474  10.283  0.00  0.00    +0.000 A 
BRANCH  19  21
ATOM     21  C   UNL     1      45.793   2.719   8.512  0.00  0.00    +0.000 A 
ATOM     22  C   UNL     1      46.070   3.541   7.415  0.00  0.00    +0.000 A 
ATOM     23  N   UNL     1      46.699   3.120   6.291  0.00  0.00    +0.000 NA
ATOM     24  C   UNL     1      47.062   1.822   6.298  0.00  0.00    +0.000 A 
ATOM     25  C   UNL     1      46.815   0.993   7.380  0.00  0.00    +0.000 A 
ATOM     26  N   UNL     1      46.186   1.417   8.506  0.00  0.00    +0.000 NA
ENDBRANCH  19  21
ENDBRANCH  14  15
ENDBRANCH   5  14
TORSDOF 4
ENDMDL
