MODEL 1
REMARK VINA RESULT:    -7.848      0.000      0.000
REMARK INTER + INTRA:         -10.223
REMARK INTER:                  -9.684
REMARK INTRA:                  -0.539
REMARK UNBOUND:                -0.539
REMARK  Name = 
REMARK  4 active torsions:
REMARK  status: ('A' for Active; 'I' for Inactive)
REMARK    1  A    between atoms: C_2  and  C_3
REMARK    2  A    between atoms: N_7  and  C_8
REMARK    3  A    between atoms: C_8  and  C_9
REMARK    4  A    between atoms: C_14  and  C_15
REMARK                            x       y       z     vdW  Elec       q    Type
REMARK                         _______ _______ _______ _____ _____    ______ ____
ROOT
ATOM      1  C   UNL     1      43.656   5.278  11.313  0.00  0.00    +0.000 C 
ATOM      2  C   UNL     1      42.646   4.318  11.898  0.00  0.00    +0.000 C 
ATOM      3  C   UNL     1      42.291   5.762  11.768  0.00  0.00    +0.000 C 
ENDROOT
BRANCH   1   8
ATOM      4  C   UNL     1      46.085   2.109   8.102  0.00  0.00    +0.000 A 
ATOM      5  C   UNL     1      46.320   3.417   7.686  0.00  0.00    +0.000 A 
ATOM      6  C   UNL     1      45.632   4.461   8.306  0.00  0.00    +0.000 A 
ATOM      7  C   UNL     1      44.741   4.180   9.340  0.00  0.00    +0.000 A 
ATOM      8  N   UNL     1      43.984   5.234   9.880  0.00  0.00    +0.000 N 
ATOM      9  N   UNL     1      44.574   2.925   9.800  0.00  0.00    +0.000 NA
ATOM     10  C   UNL     1      45.225   1.918   9.167  0.00  0.00    +0.000 A 
ATOM     11  H   UNL     1      43.351   5.647   9.207  0.00  0.00    +0.000 HD
BRANCH   4  13
ATOM     12  N   UNL     1      47.127   0.065   6.908  0.00  0.00    +0.000 NA
ATOM     13  C   UNL     1      46.673   0.991   7.435  0.00  0.00    +0.000 C 
ENDBRANCH   4  13
ENDBRANCH   1   8
BRANCH   1  14
ATOM     14  C   UNL     1      44.874   5.769  12.081  0.00  0.00    +0.000 A 
ATOM     15  C   UNL     1      45.729   6.741  11.523  0.00  0.00    +0.000 A 
ATOM     16  C   UNL     1      47.027   6.925  12.000  0.00  0.00    +0.000 A 
ATOM     17  C   UNL     1      47.487   6.133  13.045  0.00  0.00    +0.000 A 
ATOM     18  F   UNL     1      48.773   6.238  13.411  0.00  0.00    +0.000 F 
ATOM     19  C   UNL     1      46.649   5.211  13.662  0.00  0.00    +0.000 A 
ATOM     20  C   UNL     1      45.334   5.060  13.205  0.00  0.00    +0.000 A 
BRANCH  19  21
ATOM     21  C   UNL     1      47.156   4.335  14.671  0.00  0.00    +0.000 C 
ATOM     22  N   UNL     1      47.530   3.593  15.482  0.00  0.00    +0.000 NA
ENDBRANCH  19  21
ENDBRANCH   1  14
TORSDOF 4
ENDMDL
MODEL 2
REMARK VINA RESULT:    -7.183      1.649      2.119
REMARK INTER + INTRA:          -9.402
REMARK INTER:                  -8.888
REMARK INTRA:                  -0.514
REMARK UNBOUND:                -0.539
REMARK  Name = 
REMARK  4 active torsions:
REMARK  status: ('A' for Active; 'I' for Inactive)
REMARK    1  A    between atoms: C_2  and  C_3
REMARK    2  A    between atoms: N_7  and  C_8
REMARK    3  A    between atoms: C_8  and  C_9
REMARK    4  A    between atoms: C_14  and  C_15
REMARK                            x       y       z     vdW  Elec       q    Type
REMARK                         _______ _______ _______ _____ _____    ______ ____
ROOT
ATOM      1  C   UNL     1      44.048   4.441  11.305  0.00  0.00    +0.000 C 
ATOM      2  C   UNL     1      43.083   3.343  11.691  0.00  0.00    +0.000 C 
ATOM      3  C   UNL     1      42.737   4.762  12.000  0.00  0.00    +0.000 C 
ENDROOT
BRANCH   1   8
ATOM      4  C   UNL     1      46.843   2.773   7.347  0.00  0.00    +0.000 A 
ATOM      5  C   UNL     1      46.726   4.157   7.248  0.00  0.00    +0.000 A 
ATOM      6  C   UNL     1      45.873   4.832   8.122  0.00  0.00    +0.000 A 
ATOM      7  C   UNL     1      45.172   4.115   9.091  0.00  0.00    +0.000 A 
ATOM      8  N   UNL     1      44.243   4.800   9.892  0.00  0.00    +0.000 N 
ATOM      9  N   UNL     1      45.346   2.788   9.243  0.00  0.00    +0.000 NA
ATOM     10  C   UNL     1      46.153   2.142   8.366  0.00  0.00    +0.000 A 
ATOM     11  H   UNL     1      43.472   5.182   9.360  0.00  0.00    +0.000 HD
BRANCH   4  13
ATOM     12  N   UNL     1      48.256   1.393   5.678  0.00  0.00    +0.000 NA
ATOM     13  C   UNL     1      47.610   2.014   6.413  0.00  0.00    +0.000 C 
ENDBRANCH   4  13
ENDBRANCH   1   8
BRANCH   1  14
ATOM     14  C   UNL     1      45.337   4.715  12.064  0.00  0.00    +0.000 A 
ATOM     15  C   UNL     1      45.890   3.737  12.915  0.00  0.00    +0.000 A 
ATOM     16  C   UNL     1      46.818   4.073  13.900  0.00  0.00    +0.000 A 
ATOM     17  C   UNL     1      47.205   5.399  14.047  0.00  0.00    +0.000 A 
ATOM     18  F   UNL     1      48.003   5.724  15.075  0.00  0.00    +0.000 F 
ATOM     19  C   UNL     1      46.729   6.380  13.183  0.00  0.00    +0.000 A 
ATOM     20  C   UNL     1      45.829   6.029  12.170  0.00  0.00    +0.000 A 
BRANCH  19  21
ATOM     21  C   UNL     1      47.056   7.754  13.400  0.00  0.00    +0.000 C 
ATOM     22  N   UNL     1      47.309   8.865  13.624  0.00  0.00    +0.000 NA
ENDBRANCH  19  21
ENDBRANCH   1  14
TORSDOF 4
ENDMDL
MODEL 3
REMARK VINA RESULT:    -6.311      2.658      6.247
REMARK INTER + INTRA:          -8.326
REMARK INTER:                  -7.975
REMARK INTRA:                  -0.351
REMARK UNBOUND:                -0.539
REMARK  Name = 
REMARK  4 active torsions:
REMARK  status: ('A' for Active; 'I' for Inactive)
REMARK    1  A    between atoms: C_2  and  C_3
REMARK    2  A    between atoms: N_7  and  C_8
REMARK    3  A    between atoms: C_8  and  C_9
REMARK    4  A    between atoms: C_14  and  C_15
REMARK                            x       y       z     vdW  Elec       q    Type
REMARK                         _______ _______ _______ _____ _____    ______ ____
ROOT
ATOM      1  C   UNL     1      44.314   3.771  11.403  0.00  0.00    +0.000 C 
ATOM      2  C   UNL     1      42.924   4.364  11.406  0.00  0.00    +0.000 C 
ATOM      3  C   UNL     1      43.086   2.884  11.507  0.00  0.00    +0.000 C 
ENDROOT
BRANCH   1   8
ATOM      4  C   UNL     1      47.259   7.472  13.372  0.00  0.00    +0.000 A 
ATOM      5  C   UNL     1      47.877   6.247  13.613  0.00  0.00    +0.000 A 
ATOM      6  C   UNL     1      47.191   5.069  13.314  0.00  0.00    +0.000 A 
ATOM      7  C   UNL     1      45.913   5.139  12.761  0.00  0.00    +0.000 A 
ATOM      8  N   UNL     1      45.201   3.943  12.563  0.00  0.00    +0.000 N 
ATOM      9  N   UNL     1      45.346   6.321  12.450  0.00  0.00    +0.000 NA
ATOM     10  C   UNL     1      46.012   7.456  12.777  0.00  0.00    +0.000 A 
ATOM     11  H   UNL     1      44.995   3.462  13.429  0.00  0.00    +0.000 HD
BRANCH   4  13
ATOM     12  N   UNL     1      48.381   9.698  14.063  0.00  0.00    +0.000 NA
ATOM     13  C   UNL     1      47.863   8.707  13.759  0.00  0.00    +0.000 C 
ENDBRANCH   4  13
ENDBRANCH   1   8
BRANCH   1  14
ATOM     14  C   UNL     1      45.165   3.658  10.147  0.00  0.00    +0.000 A 
ATOM     15  C   UNL     1      45.214   4.717   9.219  0.00  0.00    +0.000 A 
ATOM     16  C   UNL     1      45.648   4.512   7.908  0.00  0.00    +0.000 A 
ATOM     17  C   UNL     1      46.037   3.239   7.510  0.00  0.00    +0.000 A 
ATOM     18  F   UNL     1      46.335   3.035   6.219  0.00  0.00    +0.000 F 
ATOM     19  C   UNL     1      46.063   2.187   8.418  0.00  0.00    +0.000 A 
ATOM     20  C   UNL     1      45.665   2.408   9.742  0.00  0.00    +0.000 A 
BRANCH  19  21
ATOM     21  C   UNL     1      46.372   0.862   7.980  0.00  0.00    +0.000 C 
ATOM     22  N   UNL     1      46.672  -0.204   7.630  0.00  0.00    +0.000 NA
ENDBRANCH  19  21
ENDBRANCH   1  14
TORSDOF 4
ENDMDL
MODEL 4
REMARK VINA RESULT:    -6.146      2.513      6.060
REMARK INTER + INTRA:          -8.122
REMARK INTER:                  -8.575
REMARK INTRA:                   0.452
REMARK UNBOUND:                -0.539
REMARK  Name = 
REMARK  4 active torsions:
REMARK  status: ('A' for Active; 'I' for Inactive)
REMARK    1  A    between atoms: C_2  and  C_3
REMARK    2  A    between atoms: N_7  and  C_8
REMARK    3  A    between atoms: C_8  and  C_9
REMARK    4  A    between atoms: C_14  and  C_15
REMARK                            x       y       z     vdW  Elec       q    Type
REMARK                         _______ _______ _______ _____ _____    ______ ____
ROOT
ATOM      1  C   UNL     1      43.625   5.445  11.288  0.00  0.00    +0.000 C 
ATOM      2  C   UNL     1      42.238   5.855  11.726  0.00  0.00    +0.000 C 
ATOM      3  C   UNL     1      43.124   5.135  12.687  0.00  0.00    +0.000 C 
ENDROOT
BRANCH   1   8
ATOM      4  C   UNL     1      47.951   6.902  13.617  0.00  0.00    +0.000 A 
ATOM      5  C   UNL     1      47.343   8.033  13.076  0.00  0.00    +0.000 A 
ATOM      6  C   UNL     1      46.228   7.877  12.251  0.00  0.00    +0.000 A 
ATOM      7  C   UNL     1      45.732   6.598  12.000  0.00  0.00    +0.000 A 
ATOM      8  N   UNL     1      44.673   6.457  11.086  0.00  0.00    +0.000 N 
ATOM      9  N   UNL     1      46.266   5.511  12.587  0.00  0.00    +0.000 NA
ATOM     10  C   UNL     1      47.368   5.675  13.360  0.00  0.00    +0.000 A 
ATOM     11  H   UNL     1      44.926   6.737  10.147  0.00  0.00    +0.000 HD
BRANCH   4  13
ATOM     12  N   UNL     1      50.143   7.026  14.983  0.00  0.00    +0.000 NA
ATOM     13  C   UNL     1      49.157   6.987  14.376  0.00  0.00    +0.000 C 
ENDBRANCH   4  13
ENDBRANCH   1   8
BRANCH   1  14
ATOM     14  C   UNL     1      43.887   4.274  10.353  0.00  0.00    +0.000 A 
ATOM     15  C   UNL     1      43.722   2.949  10.802  0.00  0.00    +0.000 A 
ATOM     16  C   UNL     1      44.310   1.877  10.129  0.00  0.00    +0.000 A 
ATOM     17  C   UNL     1      45.074   2.121   8.995  0.00  0.00    +0.000 A 
ATOM     18  F   UNL     1      45.731   1.096   8.432  0.00  0.00    +0.000 F 
ATOM     19  C   UNL     1      45.203   3.409   8.488  0.00  0.00    +0.000 A 
ATOM     20  C   UNL     1      44.577   4.475   9.144  0.00  0.00    +0.000 A 
BRANCH  19  21
ATOM     21  C   UNL     1      46.067   3.665   7.378  0.00  0.00    +0.000 C 
ATOM     22  N   UNL     1      46.731   3.897   6.454  0.00  0.00    +0.000 NA
ENDBRANCH  19  21
ENDBRANCH   1  14
TORSDOF 4
ENDMDL
MODEL 5
REMARK VINA RESULT:    -6.025      2.738      5.978
REMARK INTER + INTRA:          -7.974
REMARK INTER:                  -7.547
REMARK INTRA:                  -0.427
REMARK UNBOUND:                -0.539
REMARK  Name = 
REMARK  4 active torsions:
REMARK  status: ('A' for Active; 'I' for Inactive)
REMARK    1  A    between atoms: C_2  and  C_3
REMARK    2  A    between atoms: N_7  and  C_8
REMARK    3  A    between atoms: C_8  and  C_9
REMARK    4  A    between atoms: C_14  and  C_15
REMARK                            x       y       z     vdW  Elec       q    Type
REMARK                         _______ _______ _______ _____ _____    ______ ____
ROOT
ATOM      1  C   UNL     1      43.606   5.398  11.575  0.00  0.00    +0.000 C 
ATOM      2  C   UNL     1      43.047   6.741  11.166  0.00  0.00    +0.000 C 
ATOM      3  C   UNL     1      42.157   5.759  11.852  0.00  0.00    +0.000 C 
ENDROOT
BRANCH   1   8
ATOM      4  C   UNL     1      48.286   7.170  12.675  0.00  0.00    +0.000 A 
ATOM      5  C   UNL     1      48.162   5.895  13.221  0.00  0.00    +0.000 A 
ATOM      6  C   UNL     1      46.918   5.262  13.195  0.00  0.00    +0.000 A 
ATOM      7  C   UNL     1      45.830   5.907  12.608  0.00  0.00    +0.000 A 
ATOM      8  N   UNL     1      44.567   5.296  12.684  0.00  0.00    +0.000 N 
ATOM      9  N   UNL     1      45.966   7.104  12.006  0.00  0.00    +0.000 NA
ATOM     10  C   UNL     1      47.173   7.719  12.068  0.00  0.00    +0.000 A 
ATOM     11  H   UNL     1      44.230   5.209  13.634  0.00  0.00    +0.000 HD
BRANCH   4  13
ATOM     12  N   UNL     1      50.471   8.543  12.839  0.00  0.00    +0.000 NA
ATOM     13  C   UNL     1      49.501   7.913  12.770  0.00  0.00    +0.000 C 
ENDBRANCH   4  13
ENDBRANCH   1   8
BRANCH   1  14
ATOM     14  C   UNL     1      43.879   4.278  10.583  0.00  0.00    +0.000 A 
ATOM     15  C   UNL     1      43.727   2.930  10.965  0.00  0.00    +0.000 A 
ATOM     16  C   UNL     1      44.326   1.899  10.240  0.00  0.00    +0.000 A 
ATOM     17  C   UNL     1      45.089   2.207   9.121  0.00  0.00    +0.000 A 
ATOM     18  F   UNL     1      45.756   1.218   8.507  0.00  0.00    +0.000 F 
ATOM     19  C   UNL     1      45.205   3.520   8.678  0.00  0.00    +0.000 A 
ATOM     20  C   UNL     1      44.568   4.546   9.386  0.00  0.00    +0.000 A 
BRANCH  19  21
ATOM     21  C   UNL     1      46.066   3.840   7.584  0.00  0.00    +0.000 C 
ATOM     22  N   UNL     1      46.731   4.129   6.676  0.00  0.00    +0.000 NA
ENDBRANCH  19  21
ENDBRANCH   1  14
TORSDOF 4
ENDMDL
MODEL 6
REMARK VINA RESULT:    -5.513      2.756      6.928
REMARK INTER + INTRA:          -7.341
REMARK INTER:                  -7.802
REMARK INTRA:                   0.461
REMARK UNBOUND:                -0.539
REMARK  Name = 
REMARK  4 active torsions:
REMARK  status: ('A' for Active; 'I' for Inactive)
REMARK    1  A    between atoms: C_2  and  C_3
REMARK    2  A    between atoms: N_7  and  C_8
REMARK    3  A    between atoms: C_8  and  C_9
REMARK    4  A    between atoms: C_14  and  C_15
REMARK                            x       y       z     vdW  Elec       q    Type
REMARK                         _______ _______ _______ _____ _____    ______ ____
ROOT
ATOM      1  C   UNL     1      45.891   6.077  12.110  0.00  0.00    +0.000 C 
ATOM      2  C   UNL     1      47.124   6.881  11.765  0.00  0.00    +0.000 C 
ATOM      3  C   UNL     1      45.804   7.573  11.861  0.00  0.00    +0.000 C 
ENDROOT
BRANCH   1   8
ATOM      4  C   UNL     1      48.758   5.347  16.294  0.00  0.00    +0.000 A 
ATOM      5  C   UNL     1      47.832   4.310  16.212  0.00  0.00    +0.000 A 
ATOM      6  C   UNL     1      46.829   4.369  15.243  0.00  0.00    +0.000 A 
ATOM      7  C   UNL     1      46.783   5.451  14.365  0.00  0.00    +0.000 A 
ATOM      8  N   UNL     1      45.706   5.542  13.467  0.00  0.00    +0.000 N 
ATOM      9  N   UNL     1      47.725   6.414  14.389  0.00  0.00    +0.000 NA
ATOM     10  C   UNL     1      48.674   6.358  15.355  0.00  0.00    +0.000 A 
ATOM     11  H   UNL     1      44.815   5.653  13.933  0.00  0.00    +0.000 HD
BRANCH   4  13
ATOM     12  N   UNL     1      50.527   5.411  18.179  0.00  0.00    +0.000 NA
ATOM     13  C   UNL     1      49.738   5.400  17.331  0.00  0.00    +0.000 C 
ENDBRANCH   4  13
ENDBRANCH   1   8
BRANCH   1  14
ATOM     14  C   UNL     1      45.200   5.153  11.119  0.00  0.00    +0.000 A 
ATOM     15  C   UNL     1      44.351   4.124  11.571  0.00  0.00    +0.000 A 
ATOM     16  C   UNL     1      44.021   3.043  10.752  0.00  0.00    +0.000 A 
ATOM     17  C   UNL     1      44.542   2.980   9.466  0.00  0.00    +0.000 A 
ATOM     18  F   UNL     1      44.315   1.877   8.737  0.00  0.00    +0.000 F 
ATOM     19  C   UNL     1      45.330   4.010   8.965  0.00  0.00    +0.000 A 
ATOM     20  C   UNL     1      45.624   5.111   9.778  0.00  0.00    +0.000 A 
BRANCH  19  21
ATOM     21  C   UNL     1      45.940   3.893   7.678  0.00  0.00    +0.000 C 
ATOM     22  N   UNL     1      46.418   3.751   6.630  0.00  0.00    +0.000 NA
ENDBRANCH  19  21
ENDBRANCH   1  14
TORSDOF 4
ENDMDL
MODEL 7
REMARK VINA RESULT:    -5.117      4.268      8.310
REMARK INTER + INTRA:          -6.854
REMARK INTER:                  -6.408
REMARK INTRA:                  -0.446
REMARK UNBOUND:                -0.539
REMARK  Name = 
REMARK  4 active torsions:
REMARK  status: ('A' for Active; 'I' for Inactive)
REMARK    1  A    between atoms: C_2  and  C_3
REMARK    2  A    between atoms: N_7  and  C_8
REMARK    3  A    between atoms: C_8  and  C_9
REMARK    4  A    between atoms: C_14  and  C_15
REMARK                            x       y       z     vdW  Elec       q    Type
REMARK                         _______ _______ _______ _____ _____    ______ ____
ROOT
ATOM      1  C   UNL     1      48.028   4.911  17.672  0.00  0.00    +0.000 C 
ATOM      2  C   UNL     1      48.238   6.023  18.673  0.00  0.00    +0.000 C 
ATOM      3  C   UNL     1      46.862   5.488  18.456  0.00  0.00    +0.000 C 
ENDROOT
BRANCH   1   8
ATOM      4  C   UNL     1      52.527   2.464  17.833  0.00  0.00    +0.000 A 
ATOM      5  C   UNL     1      51.561   1.574  17.370  0.00  0.00    +0.000 A 
ATOM      6  C   UNL     1      50.219   1.956  17.390  0.00  0.00    +0.000 A 
ATOM      7  C   UNL     1      49.871   3.225  17.850  0.00  0.00    +0.000 A 
ATOM      8  N   UNL     1      48.509   3.551  17.957  0.00  0.00    +0.000 N 
ATOM      9  N   UNL     1      50.809   4.118  18.220  0.00  0.00    +0.000 NA
ATOM     10  C   UNL     1      52.106   3.721  18.226  0.00  0.00    +0.000 A 
ATOM     11  H   UNL     1      48.020   2.977  18.631  0.00  0.00    +0.000 HD
BRANCH   4  13
ATOM     12  N   UNL     1      55.013   1.773  18.005  0.00  0.00    +0.000 NA
ATOM     13  C   UNL     1      53.902   2.093  17.942  0.00  0.00    +0.000 C 
ENDBRANCH   4  13
ENDBRANCH   1   8
BRANCH   1  14
ATOM     14  C   UNL     1      48.050   5.135  16.168  0.00  0.00    +0.000 A 
ATOM     15  C   UNL     1      48.586   6.321  15.628  0.00  0.00    +0.000 A 
ATOM     16  C   UNL     1      48.279   6.730  14.329  0.00  0.00    +0.000 A 
ATOM     17  C   UNL     1      47.426   5.954  13.555  0.00  0.00    +0.000 A 
ATOM     18  F   UNL     1      47.045   6.422  12.357  0.00  0.00    +0.000 F 
ATOM     19  C   UNL     1      46.932   4.745  14.032  0.00  0.00    +0.000 A 
ATOM     20  C   UNL     1      47.277   4.320  15.321  0.00  0.00    +0.000 A 
BRANCH  19  21
ATOM     21  C   UNL     1      45.982   4.000  13.268  0.00  0.00    +0.000 C 
ATOM     22  N   UNL     1      45.237   3.354  12.654  0.00  0.00    +0.000 NA
ENDBRANCH  19  21
ENDBRANCH   1  14
TORSDOF 4
ENDMDL
MODEL 8
REMARK VINA RESULT:    -4.891      3.875      7.647
REMARK INTER + INTRA:          -6.574
REMARK INTER:                  -5.940
REMARK INTRA:                  -0.634
REMARK UNBOUND:                -0.539
REMARK  Name = 
REMARK  4 active torsions:
REMARK  status: ('A' for Active; 'I' for Inactive)
REMARK    1  A    between atoms: C_2  and  C_3
REMARK    2  A    between atoms: N_7  and  C_8
REMARK    3  A    between atoms: C_8  and  C_9
REMARK    4  A    between atoms: C_14  and  C_15
REMARK                            x       y       z     vdW  Elec       q    Type
REMARK                         _______ _______ _______ _____ _____    ______ ____
ROOT
ATOM      1  C   UNL     1      49.084   8.341  12.593  0.00  0.00    +0.000 C 
ATOM      2  C   UNL     1      50.331   7.794  11.938  0.00  0.00    +0.000 C 
ATOM      3  C   UNL     1      49.706   9.035  11.395  0.00  0.00    +0.000 C 
ENDROOT
BRANCH   1   8
ATOM      4  C   UNL     1      49.397   6.782  17.464  0.00  0.00    +0.000 A 
ATOM      5  C   UNL     1      48.627   7.941  17.425  0.00  0.00    +0.000 A 
ATOM      6  C   UNL     1      48.527   8.651  16.227  0.00  0.00    +0.000 A 
ATOM      7  C   UNL     1      49.181   8.179  15.091  0.00  0.00    +0.000 A 
ATOM      8  N   UNL     1      49.152   8.962  13.924  0.00  0.00    +0.000 N 
ATOM      9  N   UNL     1      49.859   7.015  15.104  0.00  0.00    +0.000 NA
ATOM     10  C   UNL     1      49.973   6.353  16.283  0.00  0.00    +0.000 A 
ATOM     11  H   UNL     1      49.616   9.854  14.039  0.00  0.00    +0.000 HD
BRANCH   4  13
ATOM     12  N   UNL     1      49.784   5.502  19.677  0.00  0.00    +0.000 NA
ATOM     13  C   UNL     1      49.628   6.073  18.682  0.00  0.00    +0.000 C 
ENDBRANCH   4  13
ENDBRANCH   1   8
BRANCH   1  14
ATOM     14  C   UNL     1      47.710   7.713  12.414  0.00  0.00    +0.000 A 
ATOM     15  C   UNL     1      46.547   8.506  12.478  0.00  0.00    +0.000 A 
ATOM     16  C   UNL     1      45.293   7.937  12.707  0.00  0.00    +0.000 A 
ATOM     17  C   UNL     1      45.191   6.562  12.877  0.00  0.00    +0.000 A 
ATOM     18  F   UNL     1      44.000   6.045  13.217  0.00  0.00    +0.000 F 
ATOM     19  C   UNL     1      46.308   5.744  12.755  0.00  0.00    +0.000 A 
ATOM     20  C   UNL     1      47.556   6.317  12.484  0.00  0.00    +0.000 A 
BRANCH  19  21
ATOM     21  C   UNL     1      46.212   4.344  13.025  0.00  0.00    +0.000 C 
ATOM     22  N   UNL     1      46.103   3.202  13.205  0.00  0.00    +0.000 NA
ENDBRANCH  19  21
ENDBRANCH   1  14
TORSDOF 4
ENDMDL
