MODEL 1
REMARK VINA RESULT:    -7.994      0.000      0.000
REMARK INTER + INTRA:         -10.892
REMARK INTER:                 -10.331
REMARK INTRA:                  -0.561
REMARK UNBOUND:                -0.561
REMARK  Name = 
REMARK  5 active torsions:
REMARK  status: ('A' for Active; 'I' for Inactive)
REMARK    1  A    between atoms: C_2  and  C_17
REMARK    2  A    between atoms: N_3  and  C_4
REMARK    3  A    between atoms: C_4  and  C_5
REMARK    4  A    between atoms: C_8  and  C_9
REMARK    5  A    between atoms: C_9  and  C_10
REMARK                            x       y       z     vdW  Elec       q    Type
REMARK                         _______ _______ _______ _____ _____    ______ ____
ROOT
ATOM      1  O   UNL     1      46.460   3.223  13.676  0.00  0.00    +0.000 OA
ATOM      2  C   UNL     1      46.272   4.388  14.009  0.00  0.00    +0.000 C 
ATOM      3  N   UNL     1      45.056   5.011  13.861  0.00  0.00    +0.000 N 
ATOM      4  H   UNL     1      44.996   6.020  13.906  0.00  0.00    +0.000 HD
ENDROOT
BRANCH   2   5
ATOM      5  C   UNL     1      47.343   5.188  14.602  0.00  0.00    +0.000 A 
ATOM      6  C   UNL     1      48.008   6.154  13.861  0.00  0.00    +0.000 A 
ATOM      7  S   UNL     1      49.157   7.032  14.771  0.00  0.00    +0.000 S 
ATOM      8  C   UNL     1      48.790   6.155  16.184  0.00  0.00    +0.000 A 
ATOM      9  N   UNL     1      49.383   6.442  17.376  0.00  0.00    +0.000 NA
ATOM     10  C   UNL     1      48.969   5.717  18.358  0.00  0.00    +0.000 A 
ATOM     11  N   UNL     1      48.034   4.715  18.264  0.00  0.00    +0.000 N 
ATOM     12  C   UNL     1      47.465   4.348  17.074  0.00  0.00    +0.000 A 
ATOM     13  O   UNL     1      46.733   3.366  17.005  0.00  0.00    +0.000 OA
ATOM     14  C   UNL     1      47.841   5.177  15.953  0.00  0.00    +0.000 A 
ATOM     15  H   UNL     1      47.794   4.147  19.061  0.00  0.00    +0.000 HD
ENDBRANCH   2   5
BRANCH   3  16
ATOM     16  C   UNL     1      43.985   4.332  13.175  0.00  0.00    +0.000 C 
BRANCH  16  17
ATOM     17  C   UNL     1      44.238   4.185  11.699  0.00  0.00    +0.000 A 
ATOM     18  C   UNL     1      44.880   5.209  10.989  0.00  0.00    +0.000 A 
ATOM     19  C   UNL     1      45.190   5.060   9.632  0.00  0.00    +0.000 A 
ATOM     20  C   UNL     1      44.862   3.881   8.951  0.00  0.00    +0.000 A 
ATOM     21  C   UNL     1      44.189   2.870   9.657  0.00  0.00    +0.000 A 
ATOM     22  C   UNL     1      43.871   3.023  11.013  0.00  0.00    +0.000 A 
BRANCH  20  23
ATOM     23  C   UNL     1      45.162   3.706   7.475  0.00  0.00    +0.000 C 
BRANCH  23  24
ATOM     24  C   UNL     1      46.617   3.346   7.109  0.00  0.00    +0.000 C 
ATOM     25  C   UNL     1      46.804   3.182   5.601  0.00  0.00    +0.000 C 
ATOM     26  C   UNL     1      47.947   2.193   5.462  0.00  0.00    +0.000 C 
ATOM     27  C   UNL     1      47.946   1.397   6.754  0.00  0.00    +0.000 C 
ATOM     28  N   UNL     1      47.007   2.045   7.662  0.00  0.00    +0.000 NA
ATOM     29  H   UNL     1      47.408   2.163   8.593  0.00  0.00    +0.000 HD
ENDBRANCH  23  24
ENDBRANCH  20  23
ENDBRANCH  16  17
ENDBRANCH   3  16
TORSDOF 5
ENDMDL
MODEL 2
REMARK VINA RESULT:    -7.622      2.129      3.196
REMARK INTER + INTRA:         -10.411
REMARK INTER:                  -9.682
REMARK INTRA:                  -0.729
REMARK UNBOUND:                -0.561
REMARK  Name = 
REMARK  5 active torsions:
REMARK  status: ('A' for Active; 'I' for Inactive)
REMARK    1  A    between atoms: C_2  and  C_17
REMARK    2  A    between atoms: N_3  and  C_4
REMARK    3  A    between atoms: C_4  and  C_5
REMARK    4  A    between atoms: C_8  and  C_9
REMARK    5  A    between atoms: C_9  and  C_10
REMARK                            x       y       z     vdW  Elec       q    Type
REMARK                         _______ _______ _______ _____ _____    ______ ____
ROOT
ATOM      1  O   UNL     1      47.359   4.042  14.138  0.00  0.00    +0.000 OA
ATOM      2  C   UNL     1      47.151   5.250  14.103  0.00  0.00    +0.000 C 
ATOM      3  N   UNL     1      45.927   5.778  13.765  0.00  0.00    +0.000 N 
ATOM      4  H   UNL     1      45.852   6.752  13.503  0.00  0.00    +0.000 HD
ENDROOT
BRANCH   2   5
ATOM      5  C   UNL     1      48.202   6.210  14.433  0.00  0.00    +0.000 A 
ATOM      6  C   UNL     1      48.711   6.299  15.720  0.00  0.00    +0.000 A 
ATOM      7  S   UNL     1      49.993   7.419  15.865  0.00  0.00    +0.000 S 
ATOM      8  C   UNL     1      49.913   7.809  14.209  0.00  0.00    +0.000 A 
ATOM      9  N   UNL     1      50.789   8.682  13.638  0.00  0.00    +0.000 NA
ATOM     10  C   UNL     1      50.623   8.840  12.369  0.00  0.00    +0.000 A 
ATOM     11  N   UNL     1      49.652   8.227  11.615  0.00  0.00    +0.000 N 
ATOM     12  C   UNL     1      48.709   7.398  12.160  0.00  0.00    +0.000 A 
ATOM     13  O   UNL     1      47.780   6.972  11.482  0.00  0.00    +0.000 OA
ATOM     14  C   UNL     1      48.894   7.130  13.568  0.00  0.00    +0.000 A 
ATOM     15  H   UNL     1      49.541   8.437  10.635  0.00  0.00    +0.000 HD
ENDBRANCH   2   5
BRANCH   3  16
ATOM     16  C   UNL     1      44.874   4.904  13.309  0.00  0.00    +0.000 C 
BRANCH  16  17
ATOM     17  C   UNL     1      44.998   4.553  11.850  0.00  0.00    +0.000 A 
ATOM     18  C   UNL     1      44.752   3.243  11.418  0.00  0.00    +0.000 A 
ATOM     19  C   UNL     1      44.788   2.915  10.057  0.00  0.00    +0.000 A 
ATOM     20  C   UNL     1      45.076   3.891   9.096  0.00  0.00    +0.000 A 
ATOM     21  C   UNL     1      45.354   5.196   9.536  0.00  0.00    +0.000 A 
ATOM     22  C   UNL     1      45.326   5.523  10.897  0.00  0.00    +0.000 A 
BRANCH  20  23
ATOM     23  C   UNL     1      45.150   3.555   7.619  0.00  0.00    +0.000 C 
BRANCH  23  24
ATOM     24  C   UNL     1      46.565   3.414   7.018  0.00  0.00    +0.000 C 
ATOM     25  C   UNL     1      46.524   3.141   5.515  0.00  0.00    +0.000 C 
ATOM     26  C   UNL     1      47.789   2.352   5.234  0.00  0.00    +0.000 C 
ATOM     27  C   UNL     1      48.151   1.694   6.552  0.00  0.00    +0.000 C 
ATOM     28  N   UNL     1      47.275   2.256   7.573  0.00  0.00    +0.000 NA
ATOM     29  H   UNL     1      47.797   2.529   8.406  0.00  0.00    +0.000 HD
ENDBRANCH  23  24
ENDBRANCH  20  23
ENDBRANCH  16  17
ENDBRANCH   3  16
TORSDOF 5
ENDMDL
MODEL 3
REMARK VINA RESULT:    -7.582      2.133      3.320
REMARK INTER + INTRA:         -10.360
REMARK INTER:                  -9.415
REMARK INTRA:                  -0.945
REMARK UNBOUND:                -0.561
REMARK  Name = 
REMARK  5 active torsions:
REMARK  status: ('A' for Active; 'I' for Inactive)
REMARK    1  A    between atoms: C_2  and  C_17
REMARK    2  A    between atoms: N_3  and  C_4
REMARK    3  A    between atoms: C_4  and  C_5
REMARK    4  A    between atoms: C_8  and  C_9
REMARK    5  A    between atoms: C_9  and  C_10
REMARK                            x       y       z     vdW  Elec       q    Type
REMARK                         _______ _______ _______ _____ _____    ______ ____
ROOT
ATOM      1  O   UNL     1      49.918   7.087  14.076  0.00  0.00    +0.000 OA
ATOM      2  C   UNL     1      49.078   7.011  14.967  0.00  0.00    +0.000 C 
ATOM      3  N   UNL     1      47.758   7.339  14.767  0.00  0.00    +0.000 N 
ATOM      4  H   UNL     1      47.153   7.507  15.561  0.00  0.00    +0.000 HD
ENDROOT
BRANCH   2   5
ATOM      5  C   UNL     1      49.436   6.550  16.308  0.00  0.00    +0.000 A 
ATOM      6  C   UNL     1      50.287   7.290  17.115  0.00  0.00    +0.000 A 
ATOM      7  S   UNL     1      50.499   6.617  18.671  0.00  0.00    +0.000 S 
ATOM      8  C   UNL     1      49.449   5.325  18.315  0.00  0.00    +0.000 A 
ATOM      9  N   UNL     1      49.130   4.386  19.250  0.00  0.00    +0.000 NA
ATOM     10  C   UNL     1      48.292   3.497  18.838  0.00  0.00    +0.000 A 
ATOM     11  N   UNL     1      47.755   3.439  17.575  0.00  0.00    +0.000 N 
ATOM     12  C   UNL     1      48.101   4.320  16.587  0.00  0.00    +0.000 A 
ATOM     13  O   UNL     1      47.703   4.161  15.437  0.00  0.00    +0.000 OA
ATOM     14  C   UNL     1      48.983   5.381  17.015  0.00  0.00    +0.000 A 
ATOM     15  H   UNL     1      47.147   2.684  17.300  0.00  0.00    +0.000 HD
ENDBRANCH   2   5
BRANCH   3  16
ATOM     16  C   UNL     1      47.349   7.916  13.511  0.00  0.00    +0.000 C 
BRANCH  16  17
ATOM     17  C   UNL     1      46.387   7.042  12.753  0.00  0.00    +0.000 A 
ATOM     18  C   UNL     1      45.337   7.618  12.025  0.00  0.00    +0.000 A 
ATOM     19  C   UNL     1      44.477   6.826  11.253  0.00  0.00    +0.000 A 
ATOM     20  C   UNL     1      44.647   5.438  11.195  0.00  0.00    +0.000 A 
ATOM     21  C   UNL     1      45.679   4.861  11.952  0.00  0.00    +0.000 A 
ATOM     22  C   UNL     1      46.534   5.652  12.730  0.00  0.00    +0.000 A 
BRANCH  20  23
ATOM     23  C   UNL     1      43.711   4.556  10.389  0.00  0.00    +0.000 C 
BRANCH  23  24
ATOM     24  C   UNL     1      44.250   4.040   9.038  0.00  0.00    +0.000 C 
ATOM     25  C   UNL     1      44.832   2.632   9.153  0.00  0.00    +0.000 C 
ATOM     26  C   UNL     1      45.891   2.566   8.068  0.00  0.00    +0.000 C 
ATOM     27  C   UNL     1      46.302   4.006   7.821  0.00  0.00    +0.000 C 
ATOM     28  N   UNL     1      45.372   4.854   8.558  0.00  0.00    +0.000 NA
ATOM     29  H   UNL     1      45.028   5.622   7.980  0.00  0.00    +0.000 HD
ENDBRANCH  23  24
ENDBRANCH  20  23
ENDBRANCH  16  17
ENDBRANCH   3  16
TORSDOF 5
ENDMDL
MODEL 4
REMARK VINA RESULT:    -7.564      1.668      2.128
REMARK INTER + INTRA:         -10.336
REMARK INTER:                  -9.605
REMARK INTRA:                  -0.731
REMARK UNBOUND:                -0.561
REMARK  Name = 
REMARK  5 active torsions:
REMARK  status: ('A' for Active; 'I' for Inactive)
REMARK    1  A    between atoms: C_2  and  C_17
REMARK    2  A    between atoms: N_3  and  C_4
REMARK    3  A    between atoms: C_4  and  C_5
REMARK    4  A    between atoms: C_8  and  C_9
REMARK    5  A    between atoms: C_9  and  C_10
REMARK                            x       y       z     vdW  Elec       q    Type
REMARK                         _______ _______ _______ _____ _____    ______ ____
ROOT
ATOM      1  O   UNL     1      48.040   7.522  12.657  0.00  0.00    +0.000 OA
ATOM      2  C   UNL     1      47.430   7.078  13.625  0.00  0.00    +0.000 C 
ATOM      3  N   UNL     1      46.066   6.908  13.623  0.00  0.00    +0.000 N 
ATOM      4  H   UNL     1      45.571   6.784  14.497  0.00  0.00    +0.000 HD
ENDROOT
BRANCH   2   5
ATOM      5  C   UNL     1      48.132   6.688  14.847  0.00  0.00    +0.000 A 
ATOM      6  C   UNL     1      49.049   7.536  15.447  0.00  0.00    +0.000 A 
ATOM      7  S   UNL     1      49.682   6.923  16.911  0.00  0.00    +0.000 S 
ATOM      8  C   UNL     1      48.738   5.510  16.790  0.00  0.00    +0.000 A 
ATOM      9  N   UNL     1      48.750   4.559  17.765  0.00  0.00    +0.000 NA
ATOM     10  C   UNL     1      47.952   3.570  17.546  0.00  0.00    +0.000 A 
ATOM     11  N   UNL     1      47.156   3.427  16.436  0.00  0.00    +0.000 N 
ATOM     12  C   UNL     1      47.165   4.322  15.401  0.00  0.00    +0.000 A 
ATOM     13  O   UNL     1      46.541   4.097  14.370  0.00  0.00    +0.000 OA
ATOM     14  C   UNL     1      47.989   5.487  15.629  0.00  0.00    +0.000 A 
ATOM     15  H   UNL     1      46.595   2.600  16.298  0.00  0.00    +0.000 HD
ENDBRANCH   2   5
BRANCH   3  16
ATOM     16  C   UNL     1      45.289   7.382  12.504  0.00  0.00    +0.000 C 
BRANCH  16  17
ATOM     17  C   UNL     1      45.159   6.358  11.409  0.00  0.00    +0.000 A 
ATOM     18  C   UNL     1      46.070   6.346  10.344  0.00  0.00    +0.000 A 
ATOM     19  C   UNL     1      46.010   5.356   9.356  0.00  0.00    +0.000 A 
ATOM     20  C   UNL     1      45.034   4.354   9.409  0.00  0.00    +0.000 A 
ATOM     21  C   UNL     1      44.102   4.388  10.460  0.00  0.00    +0.000 A 
ATOM     22  C   UNL     1      44.157   5.383  11.444  0.00  0.00    +0.000 A 
BRANCH  20  23
ATOM     23  C   UNL     1      44.930   3.288   8.336  0.00  0.00    +0.000 C 
BRANCH  23  24
ATOM     24  C   UNL     1      46.218   2.494   8.032  0.00  0.00    +0.000 C 
ATOM     25  C   UNL     1      46.583   2.541   6.548  0.00  0.00    +0.000 C 
ATOM     26  C   UNL     1      47.332   1.246   6.297  0.00  0.00    +0.000 C 
ATOM     27  C   UNL     1      46.852   0.290   7.373  0.00  0.00    +0.000 C 
ATOM     28  N   UNL     1      46.051   1.064   8.314  0.00  0.00    +0.000 NA
ATOM     29  H   UNL     1      46.311   0.863   9.280  0.00  0.00    +0.000 HD
ENDBRANCH  23  24
ENDBRANCH  20  23
ENDBRANCH  16  17
ENDBRANCH   3  16
TORSDOF 5
ENDMDL
MODEL 5
REMARK VINA RESULT:    -7.302      3.972      8.899
REMARK INTER + INTRA:          -9.997
REMARK INTER:                  -9.261
REMARK INTRA:                  -0.736
REMARK UNBOUND:                -0.561
REMARK  Name = 
REMARK  5 active torsions:
REMARK  status: ('A' for Active; 'I' for Inactive)
REMARK    1  A    between atoms: C_2  and  C_17
REMARK    2  A    between atoms: N_3  and  C_4
REMARK    3  A    between atoms: C_4  and  C_5
REMARK    4  A    between atoms: C_8  and  C_9
REMARK    5  A    between atoms: C_9  and  C_10
REMARK                            x       y       z     vdW  Elec       q    Type
REMARK                         _______ _______ _______ _____ _____    ______ ____
ROOT
ATOM      1  O   UNL     1      47.225   3.201  13.952  0.00  0.00    +0.000 OA
ATOM      2  C   UNL     1      46.849   4.256  14.453  0.00  0.00    +0.000 C 
ATOM      3  N   UNL     1      46.859   4.473  15.811  0.00  0.00    +0.000 N 
ATOM      4  H   UNL     1      46.321   5.233  16.205  0.00  0.00    +0.000 HD
ENDROOT
BRANCH   2   5
ATOM      5  C   UNL     1      46.372   5.361  13.623  0.00  0.00    +0.000 A 
ATOM      6  C   UNL     1      47.176   6.460  13.365  0.00  0.00    +0.000 A 
ATOM      7  S   UNL     1      46.459   7.589  12.301  0.00  0.00    +0.000 S 
ATOM      8  C   UNL     1      45.058   6.634  12.146  0.00  0.00    +0.000 A 
ATOM      9  N   UNL     1      44.038   6.993  11.317  0.00  0.00    +0.000 NA
ATOM     10  C   UNL     1      43.067   6.146  11.280  0.00  0.00    +0.000 A 
ATOM     11  N   UNL     1      43.003   4.982  12.006  0.00  0.00    +0.000 N 
ATOM     12  C   UNL     1      43.971   4.618  12.902  0.00  0.00    +0.000 A 
ATOM     13  O   UNL     1      43.820   3.641  13.628  0.00  0.00    +0.000 OA
ATOM     14  C   UNL     1      45.117   5.497  12.930  0.00  0.00    +0.000 A 
ATOM     15  H   UNL     1      42.188   4.389  11.973  0.00  0.00    +0.000 HD
ENDBRANCH   2   5
BRANCH   3  16
ATOM     16  C   UNL     1      47.199   3.392  16.704  0.00  0.00    +0.000 C 
BRANCH  16  17
ATOM     17  C   UNL     1      48.654   3.387  17.087  0.00  0.00    +0.000 A 
ATOM     18  C   UNL     1      49.402   2.206  16.994  0.00  0.00    +0.000 A 
ATOM     19  C   UNL     1      50.774   2.199  17.275  0.00  0.00    +0.000 A 
ATOM     20  C   UNL     1      51.429   3.375  17.658  0.00  0.00    +0.000 A 
ATOM     21  C   UNL     1      50.670   4.550  17.782  0.00  0.00    +0.000 A 
ATOM     22  C   UNL     1      49.296   4.556  17.510  0.00  0.00    +0.000 A 
BRANCH  20  23
ATOM     23  C   UNL     1      52.908   3.388  17.995  0.00  0.00    +0.000 C 
BRANCH  23  24
ATOM     24  C   UNL     1      53.529   2.036  18.405  0.00  0.00    +0.000 C 
ATOM     25  C   UNL     1      54.532   2.189  19.548  0.00  0.00    +0.000 C 
ATOM     26  C   UNL     1      55.515   1.050  19.351  0.00  0.00    +0.000 C 
ATOM     27  C   UNL     1      55.438   0.706  17.875  0.00  0.00    +0.000 C 
ATOM     28  N   UNL     1      54.316   1.450  17.314  0.00  0.00    +0.000 NA
ATOM     29  H   UNL     1      53.725   0.855  16.733  0.00  0.00    +0.000 HD
ENDBRANCH  23  24
ENDBRANCH  20  23
ENDBRANCH  16  17
ENDBRANCH   3  16
TORSDOF 5
ENDMDL
MODEL 6
REMARK VINA RESULT:    -6.898      3.599      5.183
REMARK INTER + INTRA:          -9.475
REMARK INTER:                  -8.257
REMARK INTRA:                  -1.218
REMARK UNBOUND:                -0.561
REMARK  Name = 
REMARK  5 active torsions:
REMARK  status: ('A' for Active; 'I' for Inactive)
REMARK    1  A    between atoms: C_2  and  C_17
REMARK    2  A    between atoms: N_3  and  C_4
REMARK    3  A    between atoms: C_4  and  C_5
REMARK    4  A    between atoms: C_8  and  C_9
REMARK    5  A    between atoms: C_9  and  C_10
REMARK                            x       y       z     vdW  Elec       q    Type
REMARK                         _______ _______ _______ _____ _____    ______ ____
ROOT
ATOM      1  O   UNL     1      48.709   8.515  16.475  0.00  0.00    +0.000 OA
ATOM      2  C   UNL     1      49.166   7.420  16.166  0.00  0.00    +0.000 C 
ATOM      3  N   UNL     1      49.614   7.138  14.897  0.00  0.00    +0.000 N 
ATOM      4  H   UNL     1      49.747   6.177  14.610  0.00  0.00    +0.000 HD
ENDROOT
BRANCH   2   5
ATOM      5  C   UNL     1      49.273   6.340  17.146  0.00  0.00    +0.000 A 
ATOM      6  C   UNL     1      50.046   6.484  18.288  0.00  0.00    +0.000 A 
ATOM      7  S   UNL     1      49.957   5.140  19.340  0.00  0.00    +0.000 S 
ATOM      8  C   UNL     1      48.874   4.332  18.304  0.00  0.00    +0.000 A 
ATOM      9  N   UNL     1      48.339   3.123  18.633  0.00  0.00    +0.000 NA
ATOM     10  C   UNL     1      47.506   2.661  17.764  0.00  0.00    +0.000 A 
ATOM     11  N   UNL     1      47.169   3.279  16.584  0.00  0.00    +0.000 N 
ATOM     12  C   UNL     1      47.735   4.458  16.182  0.00  0.00    +0.000 A 
ATOM     13  O   UNL     1      47.509   4.915  15.066  0.00  0.00    +0.000 OA
ATOM     14  C   UNL     1      48.622   5.055  17.153  0.00  0.00    +0.000 A 
ATOM     15  H   UNL     1      46.552   2.837  15.921  0.00  0.00    +0.000 HD
ENDBRANCH   2   5
BRANCH   3  16
ATOM     16  C   UNL     1      49.432   8.107  13.845  0.00  0.00    +0.000 C 
BRANCH  16  17
ATOM     17  C   UNL     1      48.128   7.936  13.114  0.00  0.00    +0.000 A 
ATOM     18  C   UNL     1      48.012   6.981  12.095  0.00  0.00    +0.000 A 
ATOM     19  C   UNL     1      46.787   6.755  11.454  0.00  0.00    +0.000 A 
ATOM     20  C   UNL     1      45.649   7.485  11.818  0.00  0.00    +0.000 A 
ATOM     21  C   UNL     1      45.776   8.464  12.816  0.00  0.00    +0.000 A 
ATOM     22  C   UNL     1      47.003   8.696  13.451  0.00  0.00    +0.000 A 
BRANCH  20  23
ATOM     23  C   UNL     1      44.317   7.280  11.120  0.00  0.00    +0.000 C 
BRANCH  23  24
ATOM     24  C   UNL     1      43.447   6.113  11.633  0.00  0.00    +0.000 C 
ATOM     25  C   UNL     1      44.032   5.473  12.891  0.00  0.00    +0.000 C 
ATOM     26  C   UNL     1      43.557   4.032  12.844  0.00  0.00    +0.000 C 
ATOM     27  C   UNL     1      43.291   3.746  11.378  0.00  0.00    +0.000 C 
ATOM     28  N   UNL     1      43.392   5.013  10.664  0.00  0.00    +0.000 NA
ATOM     29  H   UNL     1      42.607   5.146  10.025  0.00  0.00    +0.000 HD
ENDBRANCH  23  24
ENDBRANCH  20  23
ENDBRANCH  16  17
ENDBRANCH   3  16
TORSDOF 5
ENDMDL
MODEL 7
REMARK VINA RESULT:    -6.747      3.972      8.754
REMARK INTER + INTRA:          -9.280
REMARK INTER:                  -8.560
REMARK INTRA:                  -0.721
REMARK UNBOUND:                -0.561
REMARK  Name = 
REMARK  5 active torsions:
REMARK  status: ('A' for Active; 'I' for Inactive)
REMARK    1  A    between atoms: C_2  and  C_17
REMARK    2  A    between atoms: N_3  and  C_4
REMARK    3  A    between atoms: C_4  and  C_5
REMARK    4  A    between atoms: C_8  and  C_9
REMARK    5  A    between atoms: C_9  and  C_10
REMARK                            x       y       z     vdW  Elec       q    Type
REMARK                         _______ _______ _______ _____ _____    ______ ____
ROOT
ATOM      1  O   UNL     1      47.227   3.185  13.979  0.00  0.00    +0.000 OA
ATOM      2  C   UNL     1      46.838   4.232  14.485  0.00  0.00    +0.000 C 
ATOM      3  N   UNL     1      46.822   4.433  15.845  0.00  0.00    +0.000 N 
ATOM      4  H   UNL     1      46.274   5.187  16.239  0.00  0.00    +0.000 HD
ENDROOT
BRANCH   2   5
ATOM      5  C   UNL     1      46.373   5.346  13.660  0.00  0.00    +0.000 A 
ATOM      6  C   UNL     1      47.181   6.448  13.425  0.00  0.00    +0.000 A 
ATOM      7  S   UNL     1      46.479   7.588  12.363  0.00  0.00    +0.000 S 
ATOM      8  C   UNL     1      45.081   6.635  12.177  0.00  0.00    +0.000 A 
ATOM      9  N   UNL     1      44.073   7.003  11.337  0.00  0.00    +0.000 NA
ATOM     10  C   UNL     1      43.103   6.156  11.276  0.00  0.00    +0.000 A 
ATOM     11  N   UNL     1      43.028   4.985  11.989  0.00  0.00    +0.000 N 
ATOM     12  C   UNL     1      43.983   4.611  12.895  0.00  0.00    +0.000 A 
ATOM     13  O   UNL     1      43.822   3.626  13.608  0.00  0.00    +0.000 OA
ATOM     14  C   UNL     1      45.129   5.490  12.949  0.00  0.00    +0.000 A 
ATOM     15  H   UNL     1      42.214   4.392  11.938  0.00  0.00    +0.000 HD
ENDBRANCH   2   5
BRANCH   3  16
ATOM     16  C   UNL     1      47.148   3.342  16.731  0.00  0.00    +0.000 C 
BRANCH  16  17
ATOM     17  C   UNL     1      48.548   3.431  17.275  0.00  0.00    +0.000 A 
ATOM     18  C   UNL     1      49.489   2.440  16.962  0.00  0.00    +0.000 A 
ATOM     19  C   UNL     1      50.816   2.545  17.397  0.00  0.00    +0.000 A 
ATOM     20  C   UNL     1      51.232   3.643  18.159  0.00  0.00    +0.000 A 
ATOM     21  C   UNL     1      50.279   4.618  18.498  0.00  0.00    +0.000 A 
ATOM     22  C   UNL     1      48.950   4.509  18.070  0.00  0.00    +0.000 A 
BRANCH  20  23
ATOM     23  C   UNL     1      52.657   3.765  18.666  0.00  0.00    +0.000 C 
BRANCH  23  24
ATOM     24  C   UNL     1      53.491   4.930  18.093  0.00  0.00    +0.000 C 
ATOM     25  C   UNL     1      53.565   6.111  19.059  0.00  0.00    +0.000 C 
ATOM     26  C   UNL     1      53.735   7.327  18.167  0.00  0.00    +0.000 C 
ATOM     27  C   UNL     1      53.153   6.923  16.825  0.00  0.00    +0.000 C 
ATOM     28  N   UNL     1      52.876   5.493  16.886  0.00  0.00    +0.000 NA
ATOM     29  H   UNL     1      53.221   5.009  16.056  0.00  0.00    +0.000 HD
ENDBRANCH  23  24
ENDBRANCH  20  23
ENDBRANCH  16  17
ENDBRANCH   3  16
TORSDOF 5
ENDMDL
MODEL 8
REMARK VINA RESULT:    -6.704      4.655      7.546
REMARK INTER + INTRA:          -9.225
REMARK INTER:                  -8.414
REMARK INTRA:                  -0.810
REMARK UNBOUND:                -0.561
REMARK  Name = 
REMARK  5 active torsions:
REMARK  status: ('A' for Active; 'I' for Inactive)
REMARK    1  A    between atoms: C_2  and  C_17
REMARK    2  A    between atoms: N_3  and  C_4
REMARK    3  A    between atoms: C_4  and  C_5
REMARK    4  A    between atoms: C_8  and  C_9
REMARK    5  A    between atoms: C_9  and  C_10
REMARK                            x       y       z     vdW  Elec       q    Type
REMARK                         _______ _______ _______ _____ _____    ______ ____
ROOT
ATOM      1  O   UNL     1      44.223   7.514  11.320  0.00  0.00    +0.000 OA
ATOM      2  C   UNL     1      44.866   6.605  11.835  0.00  0.00    +0.000 C 
ATOM      3  N   UNL     1      45.936   6.836  12.666  0.00  0.00    +0.000 N 
ATOM      4  H   UNL     1      46.589   6.090  12.869  0.00  0.00    +0.000 HD
ENDROOT
BRANCH   2   5
ATOM      5  C   UNL     1      44.518   5.205  11.600  0.00  0.00    +0.000 A 
ATOM      6  C   UNL     1      43.812   4.475  12.543  0.00  0.00    +0.000 A 
ATOM      7  S   UNL     1      43.433   2.890  12.029  0.00  0.00    +0.000 S 
ATOM      8  C   UNL     1      44.192   3.138  10.525  0.00  0.00    +0.000 A 
ATOM      9  N   UNL     1      44.186   2.181   9.556  0.00  0.00    +0.000 NA
ATOM     10  C   UNL     1      44.767   2.536   8.461  0.00  0.00    +0.000 A 
ATOM     11  N   UNL     1      45.374   3.749   8.244  0.00  0.00    +0.000 N 
ATOM     12  C   UNL     1      45.463   4.712   9.212  0.00  0.00    +0.000 A 
ATOM     13  O   UNL     1      46.124   5.729   9.027  0.00  0.00    +0.000 OA
ATOM     14  C   UNL     1      44.765   4.393  10.436  0.00  0.00    +0.000 A 
ATOM     15  H   UNL     1      45.860   3.943   7.383  0.00  0.00    +0.000 HD
ENDBRANCH   2   5
BRANCH   3  16
ATOM     16  C   UNL     1      46.418   8.183  12.851  0.00  0.00    +0.000 C 
BRANCH  16  17
ATOM     17  C   UNL     1      47.801   8.390  12.295  0.00  0.00    +0.000 A 
ATOM     18  C   UNL     1      48.241   9.679  11.964  0.00  0.00    +0.000 A 
ATOM     19  C   UNL     1      49.549   9.900  11.516  0.00  0.00    +0.000 A 
ATOM     20  C   UNL     1      50.447   8.834  11.385  0.00  0.00    +0.000 A 
ATOM     21  C   UNL     1      49.993   7.540  11.686  0.00  0.00    +0.000 A 
ATOM     22  C   UNL     1      48.682   7.317  12.126  0.00  0.00    +0.000 A 
BRANCH  20  23
ATOM     23  C   UNL     1      51.860   9.044  10.875  0.00  0.00    +0.000 C 
BRANCH  23  24
ATOM     24  C   UNL     1      52.333   8.092   9.756  0.00  0.00    +0.000 C 
ATOM     25  C   UNL     1      53.308   7.036  10.277  0.00  0.00    +0.000 C 
ATOM     26  C   UNL     1      54.182   6.700   9.083  0.00  0.00    +0.000 C 
ATOM     27  C   UNL     1      54.120   7.921   8.185  0.00  0.00    +0.000 C 
ATOM     28  N   UNL     1      53.095   8.806   8.726  0.00  0.00    +0.000 NA
ATOM     29  H   UNL     1      52.468   9.143   7.994  0.00  0.00    +0.000 HD
ENDBRANCH  23  24
ENDBRANCH  20  23
ENDBRANCH  16  17
ENDBRANCH   3  16
TORSDOF 5
ENDMDL
MODEL 9
REMARK VINA RESULT:    -6.698      2.096      2.777
REMARK INTER + INTRA:          -9.217
REMARK INTER:                  -8.674
REMARK INTRA:                  -0.543
REMARK UNBOUND:                -0.561
REMARK  Name = 
REMARK  5 active torsions:
REMARK  status: ('A' for Active; 'I' for Inactive)
REMARK    1  A    between atoms: C_2  and  C_17
REMARK    2  A    between atoms: N_3  and  C_4
REMARK    3  A    between atoms: C_4  and  C_5
REMARK    4  A    between atoms: C_8  and  C_9
REMARK    5  A    between atoms: C_9  and  C_10
REMARK                            x       y       z     vdW  Elec       q    Type
REMARK                         _______ _______ _______ _____ _____    ______ ____
ROOT
ATOM      1  O   UNL     1      48.363   7.839  12.164  0.00  0.00    +0.000 OA
ATOM      2  C   UNL     1      48.097   7.678  13.351  0.00  0.00    +0.000 C 
ATOM      3  N   UNL     1      46.804   7.577  13.809  0.00  0.00    +0.000 N 
ATOM      4  H   UNL     1      46.607   7.696  14.795  0.00  0.00    +0.000 HD
ENDROOT
BRANCH   2   5
ATOM      5  C   UNL     1      49.152   7.572  14.357  0.00  0.00    +0.000 A 
ATOM      6  C   UNL     1      50.192   8.487  14.402  0.00  0.00    +0.000 A 
ATOM      7  S   UNL     1      51.263   8.231  15.709  0.00  0.00    +0.000 S 
ATOM      8  C   UNL     1      50.360   6.896  16.258  0.00  0.00    +0.000 A 
ATOM      9  N   UNL     1      50.697   6.227  17.396  0.00  0.00    +0.000 NA
ATOM     10  C   UNL     1      49.892   5.267  17.700  0.00  0.00    +0.000 A 
ATOM     11  N   UNL     1      48.793   4.893  16.965  0.00  0.00    +0.000 N 
ATOM     12  C   UNL     1      48.459   5.491  15.781  0.00  0.00    +0.000 A 
ATOM     13  O   UNL     1      47.550   5.048  15.087  0.00  0.00    +0.000 OA
ATOM     14  C   UNL     1      49.287   6.622  15.431  0.00  0.00    +0.000 A 
ATOM     15  H   UNL     1      48.235   4.095  17.228  0.00  0.00    +0.000 HD
ENDBRANCH   2   5
BRANCH   3  16
ATOM     16  C   UNL     1      45.706   7.793  12.900  0.00  0.00    +0.000 C 
BRANCH  16  17
ATOM     17  C   UNL     1      45.261   6.531  12.212  0.00  0.00    +0.000 A 
ATOM     18  C   UNL     1      44.111   6.534  11.411  0.00  0.00    +0.000 A 
ATOM     19  C   UNL     1      43.723   5.389  10.703  0.00  0.00    +0.000 A 
ATOM     20  C   UNL     1      44.478   4.213  10.783  0.00  0.00    +0.000 A 
ATOM     21  C   UNL     1      45.611   4.204  11.612  0.00  0.00    +0.000 A 
ATOM     22  C   UNL     1      45.994   5.346  12.327  0.00  0.00    +0.000 A 
BRANCH  20  23
ATOM     23  C   UNL     1      44.063   2.952  10.049  0.00  0.00    +0.000 C 
BRANCH  23  24
ATOM     24  C   UNL     1      44.641   2.764   8.630  0.00  0.00    +0.000 C 
ATOM     25  C   UNL     1      45.808   1.777   8.613  0.00  0.00    +0.000 C 
ATOM     26  C   UNL     1      46.669   2.223   7.446  0.00  0.00    +0.000 C 
ATOM     27  C   UNL     1      46.353   3.694   7.254  0.00  0.00    +0.000 C 
ATOM     28  N   UNL     1      45.216   4.009   8.112  0.00  0.00    +0.000 NA
ATOM     29  H   UNL     1      44.506   4.544   7.610  0.00  0.00    +0.000 HD
ENDBRANCH  23  24
ENDBRANCH  20  23
ENDBRANCH  16  17
ENDBRANCH   3  16
TORSDOF 5
ENDMDL
