MODEL 1
REMARK VINA RESULT:    -7.113      0.000      0.000
REMARK INTER + INTRA:         -10.658
REMARK INTER:                  -9.608
REMARK INTRA:                  -1.050
REMARK UNBOUND:                -1.050
REMARK  Name = 
REMARK  7 active torsions:
REMARK  status: ('A' for Active; 'I' for Inactive)
REMARK    1  A    between atoms: C_1  and  O_2
REMARK    2  A    between atoms: O_2  and  C_3
REMARK    3  A    between atoms: C_10  and  C_11
REMARK    4  A    between atoms: N_13  and  C_14
REMARK    5  A    between atoms: C_14  and  C_15
REMARK    6  A    between atoms: C_18  and  N_19
REMARK    7  A    between atoms: C_20  and  C_22
REMARK                            x       y       z     vdW  Elec       q    Type
REMARK                         _______ _______ _______ _____ _____    ______ ____
ROOT
ATOM      1  C   UNL     1      48.275   7.561  14.528  0.00  0.00    +0.000 A 
ATOM      2  C   UNL     1      47.417   8.456  13.880  0.00  0.00    +0.000 A 
ATOM      3  C   UNL     1      46.352   7.995  13.095  0.00  0.00    +0.000 A 
ATOM      4  C   UNL     1      46.108   6.629  12.953  0.00  0.00    +0.000 A 
ATOM      5  C   UNL     1      46.963   5.729  13.601  0.00  0.00    +0.000 A 
ATOM      6  C   UNL     1      48.035   6.190  14.383  0.00  0.00    +0.000 A 
ENDROOT
BRANCH   4   7
ATOM      7  N   UNL     1      45.052   6.095  12.175  0.00  0.00    +0.000 N 
ATOM      8  C   UNL     1      45.128   5.620  10.870  0.00  0.00    +0.000 C 
ATOM      9  O   UNL     1      46.115   5.699  10.145  0.00  0.00    +0.000 OA
ATOM     10  H   UNL     1      44.141   6.082  12.615  0.00  0.00    +0.000 HD
BRANCH   8  11
ATOM     11  C   UNL     1      43.814   5.001  10.367  0.00  0.00    +0.000 C 
ATOM     12  C   UNL     1      42.992   4.384  11.505  0.00  0.00    +0.000 C 
ATOM     13  C   UNL     1      43.643   3.104  12.028  0.00  0.00    +0.000 C 
ATOM     14  N   UNL     1      43.795   2.115  10.964  0.00  0.00    +0.000 NA
ATOM     15  C   UNL     1      44.627   2.631   9.874  0.00  0.00    +0.000 C 
ATOM     16  C   UNL     1      44.062   3.930   9.288  0.00  0.00    +0.000 C 
ATOM     17  H   UNL     1      42.879   1.862  10.596  0.00  0.00    +0.000 HD
ENDBRANCH   8  11
ENDBRANCH   4   7
BRANCH   1  18
ATOM     18  C   UNL     1      49.395   8.080  15.396  0.00  0.00    +0.000 C 
BRANCH  18  21
ATOM     19  C   UNL     1      50.052   6.481  17.150  0.00  0.00    +0.000 C 
ATOM     20  O   UNL     1      49.199   6.926  17.917  0.00  0.00    +0.000 OA
ATOM     21  N   UNL     1      50.212   6.999  15.895  0.00  0.00    +0.000 N 
ATOM     22  H   UNL     1      50.868   6.575  15.251  0.00  0.00    +0.000 HD
BRANCH  19  30
ATOM     23  C   UNL     1      49.896   3.047  16.919  0.00  0.00    +0.000 A 
ATOM     24  N   UNL     1      50.132   1.721  16.873  0.00  0.00    +0.000 NA
ATOM     25  C   UNL     1      51.304   1.274  17.336  0.00  0.00    +0.000 A 
ATOM     26  N   UNL     1      52.284   1.999  17.864  0.00  0.00    +0.000 NA
ATOM     27  C   UNL     1      52.013   3.315  17.885  0.00  0.00    +0.000 A 
ATOM     28  S   UNL     1      53.146   4.394  18.544  0.00  0.00    +0.000 S 
ATOM     29  C   UNL     1      52.152   5.727  18.193  0.00  0.00    +0.000 A 
ATOM     30  C   UNL     1      50.959   5.394  17.562  0.00  0.00    +0.000 A 
ATOM     31  C   UNL     1      50.861   3.941  17.417  0.00  0.00    +0.000 A 
BRANCH  23  33
ATOM     32  C   UNL     1      47.652   3.493  17.470  0.00  0.00    +0.000 C 
ATOM     33  O   UNL     1      48.675   3.515  16.479  0.00  0.00    +0.000 OA
ENDBRANCH  23  33
ENDBRANCH  19  30
ENDBRANCH  18  21
ENDBRANCH   1  18
TORSDOF 6
ENDMDL
MODEL 2
REMARK VINA RESULT:    -6.811      1.470      2.084
REMARK INTER + INTRA:         -10.250
REMARK INTER:                  -9.653
REMARK INTRA:                  -0.597
REMARK UNBOUND:                -1.050
REMARK  Name = 
REMARK  7 active torsions:
REMARK  status: ('A' for Active; 'I' for Inactive)
REMARK    1  A    between atoms: C_1  and  O_2
REMARK    2  A    between atoms: O_2  and  C_3
REMARK    3  A    between atoms: C_10  and  C_11
REMARK    4  A    between atoms: N_13  and  C_14
REMARK    5  A    between atoms: C_14  and  C_15
REMARK    6  A    between atoms: C_18  and  N_19
REMARK    7  A    between atoms: C_20  and  C_22
REMARK                            x       y       z     vdW  Elec       q    Type
REMARK                         _______ _______ _______ _____ _____    ______ ____
ROOT
ATOM      1  C   UNL     1      48.890   6.704  15.146  0.00  0.00    +0.000 A 
ATOM      2  C   UNL     1      48.246   5.597  15.708  0.00  0.00    +0.000 A 
ATOM      3  C   UNL     1      47.094   5.057  15.121  0.00  0.00    +0.000 A 
ATOM      4  C   UNL     1      46.569   5.600  13.948  0.00  0.00    +0.000 A 
ATOM      5  C   UNL     1      47.212   6.707  13.380  0.00  0.00    +0.000 A 
ATOM      6  C   UNL     1      48.362   7.253  13.972  0.00  0.00    +0.000 A 
ENDROOT
BRANCH   4   7
ATOM      7  N   UNL     1      45.410   5.105  13.302  0.00  0.00    +0.000 N 
ATOM      8  C   UNL     1      45.169   3.797  12.897  0.00  0.00    +0.000 C 
ATOM      9  O   UNL     1      45.985   2.882  12.937  0.00  0.00    +0.000 OA
ATOM     10  H   UNL     1      44.692   5.788  13.096  0.00  0.00    +0.000 HD
BRANCH   8  11
ATOM     11  C   UNL     1      43.756   3.583  12.330  0.00  0.00    +0.000 C 
ATOM     12  C   UNL     1      43.781   2.945  10.935  0.00  0.00    +0.000 C 
ATOM     13  C   UNL     1      44.283   3.935   9.884  0.00  0.00    +0.000 C 
ATOM     14  N   UNL     1      43.447   5.133   9.843  0.00  0.00    +0.000 NA
ATOM     15  C   UNL     1      43.436   5.818  11.138  0.00  0.00    +0.000 C 
ATOM     16  C   UNL     1      42.958   4.899  12.267  0.00  0.00    +0.000 C 
ATOM     17  H   UNL     1      42.493   4.878   9.590  0.00  0.00    +0.000 HD
ENDBRANCH   8  11
ENDBRANCH   4   7
BRANCH   1  18
ATOM     18  C   UNL     1      50.148   7.248  15.777  0.00  0.00    +0.000 C 
BRANCH  18  21
ATOM     19  C   UNL     1      51.122   5.994  17.659  0.00  0.00    +0.000 C 
ATOM     20  O   UNL     1      50.574   6.734  18.475  0.00  0.00    +0.000 OA
ATOM     21  N   UNL     1      50.964   6.186  16.315  0.00  0.00    +0.000 N 
ATOM     22  H   UNL     1      51.362   5.526  15.659  0.00  0.00    +0.000 HD
BRANCH  19  30
ATOM     23  C   UNL     1      50.939   2.565  17.374  0.00  0.00    +0.000 A 
ATOM     24  N   UNL     1      51.162   1.237  17.319  0.00  0.00    +0.000 NA
ATOM     25  C   UNL     1      52.307   0.771  17.827  0.00  0.00    +0.000 A 
ATOM     26  N   UNL     1      53.272   1.477  18.407  0.00  0.00    +0.000 NA
ATOM     27  C   UNL     1      53.014   2.796  18.434  0.00  0.00    +0.000 A 
ATOM     28  S   UNL     1      54.129   3.852  19.157  0.00  0.00    +0.000 S 
ATOM     29  C   UNL     1      53.167   5.202  18.782  0.00  0.00    +0.000 A 
ATOM     30  C   UNL     1      51.999   4.891  18.095  0.00  0.00    +0.000 A 
ATOM     31  C   UNL     1      51.891   3.441  17.925  0.00  0.00    +0.000 A 
BRANCH  23  33
ATOM     32  C   UNL     1      48.637   2.861  17.764  0.00  0.00    +0.000 C 
ATOM     33  O   UNL     1      49.743   3.054  16.887  0.00  0.00    +0.000 OA
ENDBRANCH  23  33
ENDBRANCH  19  30
ENDBRANCH  18  21
ENDBRANCH   1  18
TORSDOF 6
ENDMDL
MODEL 3
REMARK VINA RESULT:    -6.746      2.606      3.259
REMARK INTER + INTRA:         -10.162
REMARK INTER:                  -9.069
REMARK INTRA:                  -1.093
REMARK UNBOUND:                -1.050
REMARK  Name = 
REMARK  7 active torsions:
REMARK  status: ('A' for Active; 'I' for Inactive)
REMARK    1  A    between atoms: C_1  and  O_2
REMARK    2  A    between atoms: O_2  and  C_3
REMARK    3  A    between atoms: C_10  and  C_11
REMARK    4  A    between atoms: N_13  and  C_14
REMARK    5  A    between atoms: C_14  and  C_15
REMARK    6  A    between atoms: C_18  and  N_19
REMARK    7  A    between atoms: C_20  and  C_22
REMARK                            x       y       z     vdW  Elec       q    Type
REMARK                         _______ _______ _______ _____ _____    ______ ____
ROOT
ATOM      1  C   UNL     1      46.879   8.212  13.008  0.00  0.00    +0.000 A 
ATOM      2  C   UNL     1      47.724   7.289  12.383  0.00  0.00    +0.000 A 
ATOM      3  C   UNL     1      47.222   6.363  11.460  0.00  0.00    +0.000 A 
ATOM      4  C   UNL     1      45.868   6.348  11.125  0.00  0.00    +0.000 A 
ATOM      5  C   UNL     1      45.019   7.272  11.747  0.00  0.00    +0.000 A 
ATOM      6  C   UNL     1      45.519   8.197  12.678  0.00  0.00    +0.000 A 
ENDROOT
BRANCH   4   7
ATOM      7  N   UNL     1      45.294   5.440  10.202  0.00  0.00    +0.000 N 
ATOM      8  C   UNL     1      44.996   4.100  10.420  0.00  0.00    +0.000 C 
ATOM      9  O   UNL     1      45.293   3.462  11.425  0.00  0.00    +0.000 OA
ATOM     10  H   UNL     1      45.105   5.808   9.279  0.00  0.00    +0.000 HD
BRANCH   8  11
ATOM     11  C   UNL     1      44.270   3.435   9.238  0.00  0.00    +0.000 C 
ATOM     12  C   UNL     1      44.554   1.930   9.156  0.00  0.00    +0.000 C 
ATOM     13  C   UNL     1      45.988   1.662   8.702  0.00  0.00    +0.000 C 
ATOM     14  N   UNL     1      46.253   2.265   7.398  0.00  0.00    +0.000 NA
ATOM     15  C   UNL     1      46.057   3.716   7.435  0.00  0.00    +0.000 C 
ATOM     16  C   UNL     1      44.643   4.091   7.895  0.00  0.00    +0.000 C 
ATOM     17  H   UNL     1      45.632   1.860   6.699  0.00  0.00    +0.000 HD
ENDBRANCH   8  11
ENDBRANCH   4   7
BRANCH   1  18
ATOM     18  C   UNL     1      47.446   9.223  13.974  0.00  0.00    +0.000 C 
BRANCH  18  21
ATOM     19  C   UNL     1      48.673   8.191  15.844  0.00  0.00    +0.000 C 
ATOM     20  O   UNL     1      49.716   8.177  15.192  0.00  0.00    +0.000 OA
ATOM     21  N   UNL     1      47.514   8.686  15.312  0.00  0.00    +0.000 N 
ATOM     22  H   UNL     1      46.684   8.757  15.886  0.00  0.00    +0.000 HD
BRANCH  19  30
ATOM     23  C   UNL     1      48.597   4.991  17.120  0.00  0.00    +0.000 A 
ATOM     24  N   UNL     1      48.655   3.875  17.873  0.00  0.00    +0.000 NA
ATOM     25  C   UNL     1      48.709   4.014  19.201  0.00  0.00    +0.000 A 
ATOM     26  N   UNL     1      48.698   5.152  19.887  0.00  0.00    +0.000 NA
ATOM     27  C   UNL     1      48.647   6.240  19.100  0.00  0.00    +0.000 A 
ATOM     28  S   UNL     1      48.605   7.784  19.806  0.00  0.00    +0.000 S 
ATOM     29  C   UNL     1      48.581   8.534  18.282  0.00  0.00    +0.000 A 
ATOM     30  C   UNL     1      48.620   7.645  17.213  0.00  0.00    +0.000 A 
ATOM     31  C   UNL     1      48.617   6.268  17.709  0.00  0.00    +0.000 A 
BRANCH  23  33
ATOM     32  C   UNL     1      47.189   4.561  15.284  0.00  0.00    +0.000 C 
ATOM     33  O   UNL     1      48.502   4.858  15.750  0.00  0.00    +0.000 OA
ENDBRANCH  23  33
ENDBRANCH  19  30
ENDBRANCH  18  21
ENDBRANCH   1  18
TORSDOF 6
ENDMDL
MODEL 4
REMARK VINA RESULT:    -6.697      3.111      9.703
REMARK INTER + INTRA:         -10.096
REMARK INTER:                  -9.314
REMARK INTRA:                  -0.782
REMARK UNBOUND:                -1.050
REMARK  Name = 
REMARK  7 active torsions:
REMARK  status: ('A' for Active; 'I' for Inactive)
REMARK    1  A    between atoms: C_1  and  O_2
REMARK    2  A    between atoms: O_2  and  C_3
REMARK    3  A    between atoms: C_10  and  C_11
REMARK    4  A    between atoms: N_13  and  C_14
REMARK    5  A    between atoms: C_14  and  C_15
REMARK    6  A    between atoms: C_18  and  N_19
REMARK    7  A    between atoms: C_20  and  C_22
REMARK                            x       y       z     vdW  Elec       q    Type
REMARK                         _______ _______ _______ _____ _____    ______ ____
ROOT
ATOM      1  C   UNL     1      48.718   3.494  17.067  0.00  0.00    +0.000 A 
ATOM      2  C   UNL     1      49.435   2.293  17.067  0.00  0.00    +0.000 A 
ATOM      3  C   UNL     1      50.807   2.272  17.350  0.00  0.00    +0.000 A 
ATOM      4  C   UNL     1      51.492   3.448  17.656  0.00  0.00    +0.000 A 
ATOM      5  C   UNL     1      50.778   4.653  17.660  0.00  0.00    +0.000 A 
ATOM      6  C   UNL     1      49.404   4.676  17.370  0.00  0.00    +0.000 A 
ENDROOT
BRANCH   4   7
ATOM      7  N   UNL     1      52.876   3.499  17.951  0.00  0.00    +0.000 N 
ATOM      8  C   UNL     1      53.462   3.691  19.197  0.00  0.00    +0.000 C 
ATOM      9  O   UNL     1      52.857   3.963  20.229  0.00  0.00    +0.000 OA
ATOM     10  H   UNL     1      53.500   3.408  17.160  0.00  0.00    +0.000 HD
BRANCH   8  11
ATOM     11  C   UNL     1      54.995   3.575  19.176  0.00  0.00    +0.000 C 
ATOM     12  C   UNL     1      55.493   2.688  18.029  0.00  0.00    +0.000 C 
ATOM     13  C   UNL     1      55.172   1.216  18.288  0.00  0.00    +0.000 C 
ATOM     14  N   UNL     1      55.772   0.755  19.538  0.00  0.00    +0.000 NA
ATOM     15  C   UNL     1      55.282   1.531  20.680  0.00  0.00    +0.000 C 
ATOM     16  C   UNL     1      55.546   3.031  20.508  0.00  0.00    +0.000 C 
ATOM     17  H   UNL     1      56.787   0.841  19.484  0.00  0.00    +0.000 HD
ENDBRANCH   8  11
ENDBRANCH   4   7
BRANCH   1  18
ATOM     18  C   UNL     1      47.234   3.490  16.793  0.00  0.00    +0.000 C 
BRANCH  18  21
ATOM     19  C   UNL     1      47.001   4.194  14.445  0.00  0.00    +0.000 C 
ATOM     20  O   UNL     1      47.415   3.106  14.046  0.00  0.00    +0.000 OA
ATOM     21  N   UNL     1      46.887   4.459  15.781  0.00  0.00    +0.000 N 
ATOM     22  H   UNL     1      46.476   5.331  16.092  0.00  0.00    +0.000 HD
BRANCH  19  30
ATOM     23  C   UNL     1      44.107   4.989  12.752  0.00  0.00    +0.000 A 
ATOM     24  N   UNL     1      43.106   5.570  12.061  0.00  0.00    +0.000 NA
ATOM     25  C   UNL     1      43.363   6.717  11.425  0.00  0.00    +0.000 A 
ATOM     26  N   UNL     1      44.523   7.364  11.380  0.00  0.00    +0.000 NA
ATOM     27  C   UNL     1      45.492   6.757  12.086  0.00  0.00    +0.000 A 
ATOM     28  S   UNL     1      47.049   7.432  12.125  0.00  0.00    +0.000 S 
ATOM     29  C   UNL     1      47.610   6.201  13.153  0.00  0.00    +0.000 A 
ATOM     30  C   UNL     1      46.640   5.268  13.501  0.00  0.00    +0.000 A 
ATOM     31  C   UNL     1      45.380   5.582  12.824  0.00  0.00    +0.000 A 
BRANCH  23  33
ATOM     32  C   UNL     1      43.504   2.729  12.495  0.00  0.00    +0.000 C 
ATOM     33  O   UNL     1      43.863   3.786  13.381  0.00  0.00    +0.000 OA
ENDBRANCH  23  33
ENDBRANCH  19  30
ENDBRANCH  18  21
ENDBRANCH   1  18
TORSDOF 6
ENDMDL
MODEL 5
REMARK VINA RESULT:    -6.374      3.131      9.560
REMARK INTER + INTRA:          -9.660
REMARK INTER:                  -8.737
REMARK INTRA:                  -0.923
REMARK UNBOUND:                -1.050
REMARK  Name = 
REMARK  7 active torsions:
REMARK  status: ('A' for Active; 'I' for Inactive)
REMARK    1  A    between atoms: C_1  and  O_2
REMARK    2  A    between atoms: O_2  and  C_3
REMARK    3  A    between atoms: C_10  and  C_11
REMARK    4  A    between atoms: N_13  and  C_14
REMARK    5  A    between atoms: C_14  and  C_15
REMARK    6  A    between atoms: C_18  and  N_19
REMARK    7  A    between atoms: C_20  and  C_22
REMARK                            x       y       z     vdW  Elec       q    Type
REMARK                         _______ _______ _______ _____ _____    ______ ____
ROOT
ATOM      1  C   UNL     1      48.627   3.681  17.154  0.00  0.00    +0.000 A 
ATOM      2  C   UNL     1      49.514   2.604  17.060  0.00  0.00    +0.000 A 
ATOM      3  C   UNL     1      50.855   2.738  17.443  0.00  0.00    +0.000 A 
ATOM      4  C   UNL     1      51.337   3.946  17.947  0.00  0.00    +0.000 A 
ATOM      5  C   UNL     1      50.452   5.027  18.045  0.00  0.00    +0.000 A 
ATOM      6  C   UNL     1      49.110   4.896  17.655  0.00  0.00    +0.000 A 
ENDROOT
BRANCH   4   7
ATOM      7  N   UNL     1      52.678   4.151  18.352  0.00  0.00    +0.000 N 
ATOM      8  C   UNL     1      53.630   4.950  17.728  0.00  0.00    +0.000 C 
ATOM      9  O   UNL     1      53.481   5.519  16.651  0.00  0.00    +0.000 OA
ATOM     10  H   UNL     1      52.976   3.639  19.172  0.00  0.00    +0.000 HD
BRANCH   8  11
ATOM     11  C   UNL     1      54.956   5.038  18.501  0.00  0.00    +0.000 C 
ATOM     12  C   UNL     1      54.742   5.052  20.020  0.00  0.00    +0.000 C 
ATOM     13  C   UNL     1      54.139   6.379  20.481  0.00  0.00    +0.000 C 
ATOM     14  N   UNL     1      54.994   7.505  20.113  0.00  0.00    +0.000 NA
ATOM     15  C   UNL     1      55.183   7.576  18.662  0.00  0.00    +0.000 C 
ATOM     16  C   UNL     1      55.774   6.280  18.097  0.00  0.00    +0.000 C 
ATOM     17  H   UNL     1      55.902   7.410  20.566  0.00  0.00    +0.000 HD
ENDBRANCH   8  11
ENDBRANCH   4   7
BRANCH   1  18
ATOM     18  C   UNL     1      47.179   3.505  16.767  0.00  0.00    +0.000 C 
BRANCH  18  21
ATOM     19  C   UNL     1      46.813   4.239  14.445  0.00  0.00    +0.000 C 
ATOM     20  O   UNL     1      47.201   3.156  14.009  0.00  0.00    +0.000 OA
ATOM     21  N   UNL     1      46.777   4.488  15.789  0.00  0.00    +0.000 N 
ATOM     22  H   UNL     1      46.387   5.356  16.133  0.00  0.00    +0.000 HD
BRANCH  19  30
ATOM     23  C   UNL     1      43.912   4.907  12.709  0.00  0.00    +0.000 A 
ATOM     24  N   UNL     1      42.890   5.447  12.017  0.00  0.00    +0.000 NA
ATOM     25  C   UNL     1      43.082   6.636  11.436  0.00  0.00    +0.000 A 
ATOM     26  N   UNL     1      44.196   7.362  11.448  0.00  0.00    +0.000 NA
ATOM     27  C   UNL     1      45.187   6.792  12.154  0.00  0.00    +0.000 A 
ATOM     28  S   UNL     1      46.692   7.570  12.262  0.00  0.00    +0.000 S 
ATOM     29  C   UNL     1      47.313   6.337  13.253  0.00  0.00    +0.000 A 
ATOM     30  C   UNL     1      46.401   5.325  13.536  0.00  0.00    +0.000 A 
ATOM     31  C   UNL     1      45.140   5.582  12.840  0.00  0.00    +0.000 A 
BRANCH  23  33
ATOM     32  C   UNL     1      43.715   2.591  12.344  0.00  0.00    +0.000 C 
ATOM     33  O   UNL     1      43.738   3.664  13.281  0.00  0.00    +0.000 OA
ENDBRANCH  23  33
ENDBRANCH  19  30
ENDBRANCH  18  21
ENDBRANCH   1  18
TORSDOF 6
ENDMDL
MODEL 6
REMARK VINA RESULT:    -5.992      2.287      3.945
REMARK INTER + INTRA:          -9.143
REMARK INTER:                  -8.399
REMARK INTRA:                  -0.743
REMARK UNBOUND:                -1.050
REMARK  Name = 
REMARK  7 active torsions:
REMARK  status: ('A' for Active; 'I' for Inactive)
REMARK    1  A    between atoms: C_1  and  O_2
REMARK    2  A    between atoms: O_2  and  C_3
REMARK    3  A    between atoms: C_10  and  C_11
REMARK    4  A    between atoms: N_13  and  C_14
REMARK    5  A    between atoms: C_14  and  C_15
REMARK    6  A    between atoms: C_18  and  N_19
REMARK    7  A    between atoms: C_20  and  C_22
REMARK                            x       y       z     vdW  Elec       q    Type
REMARK                         _______ _______ _______ _____ _____    ______ ____
ROOT
ATOM      1  C   UNL     1      48.273   3.998  17.054  0.00  0.00    +0.000 A 
ATOM      2  C   UNL     1      47.592   3.173  16.154  0.00  0.00    +0.000 A 
ATOM      3  C   UNL     1      47.123   3.672  14.932  0.00  0.00    +0.000 A 
ATOM      4  C   UNL     1      47.338   5.002  14.572  0.00  0.00    +0.000 A 
ATOM      5  C   UNL     1      48.022   5.832  15.470  0.00  0.00    +0.000 A 
ATOM      6  C   UNL     1      48.487   5.335  16.698  0.00  0.00    +0.000 A 
ENDROOT
BRANCH   4   7
ATOM      7  N   UNL     1      46.891   5.571  13.355  0.00  0.00    +0.000 N 
ATOM      8  C   UNL     1      45.575   5.795  12.967  0.00  0.00    +0.000 C 
ATOM      9  O   UNL     1      44.582   5.424  13.585  0.00  0.00    +0.000 OA
ATOM     10  H   UNL     1      47.613   5.818  12.690  0.00  0.00    +0.000 HD
BRANCH   8  11
ATOM     11  C   UNL     1      45.450   6.539  11.628  0.00  0.00    +0.000 C 
ATOM     12  C   UNL     1      44.044   7.111  11.411  0.00  0.00    +0.000 C 
ATOM     13  C   UNL     1      43.032   6.000  11.132  0.00  0.00    +0.000 C 
ATOM     14  N   UNL     1      43.412   5.220   9.956  0.00  0.00    +0.000 NA
ATOM     15  C   UNL     1      44.726   4.598  10.134  0.00  0.00    +0.000 C 
ATOM     16  C   UNL     1      45.815   5.635  10.434  0.00  0.00    +0.000 C 
ATOM     17  H   UNL     1      43.435   5.825   9.136  0.00  0.00    +0.000 HD
ENDBRANCH   8  11
ENDBRANCH   4   7
BRANCH   1  18
ATOM     18  C   UNL     1      48.800   3.432  18.350  0.00  0.00    +0.000 C 
BRANCH  18  21
ATOM     19  C   UNL     1      50.891   2.319  17.679  0.00  0.00    +0.000 C 
ATOM     20  O   UNL     1      50.268   1.440  17.084  0.00  0.00    +0.000 OA
ATOM     21  N   UNL     1      50.239   3.330  18.329  0.00  0.00    +0.000 N 
ATOM     22  H   UNL     1      50.767   4.084  18.751  0.00  0.00    +0.000 HD
BRANCH  19  30
ATOM     23  C   UNL     1      53.298   4.783  17.592  0.00  0.00    +0.000 A 
ATOM     24  N   UNL     1      54.414   5.534  17.678  0.00  0.00    +0.000 NA
ATOM     25  C   UNL     1      55.579   4.908  17.876  0.00  0.00    +0.000 A 
ATOM     26  N   UNL     1      55.775   3.598  17.986  0.00  0.00    +0.000 NA
ATOM     27  C   UNL     1      54.638   2.887  17.902  0.00  0.00    +0.000 A 
ATOM     28  S   UNL     1      54.699   1.194  18.003  0.00  0.00    +0.000 S 
ATOM     29  C   UNL     1      53.010   1.075  17.855  0.00  0.00    +0.000 A 
ATOM     30  C   UNL     1      52.364   2.301  17.743  0.00  0.00    +0.000 A 
ATOM     31  C   UNL     1      53.349   3.384  17.730  0.00  0.00    +0.000 A 
BRANCH  23  33
ATOM     32  C   UNL     1      52.218   6.652  16.655  0.00  0.00    +0.000 C 
ATOM     33  O   UNL     1      52.095   5.415  17.351  0.00  0.00    +0.000 OA
ENDBRANCH  23  33
ENDBRANCH  19  30
ENDBRANCH  18  21
ENDBRANCH   1  18
TORSDOF 6
ENDMDL
MODEL 7
REMARK VINA RESULT:    -5.940      1.939      2.356
REMARK INTER + INTRA:          -9.074
REMARK INTER:                  -8.107
REMARK INTRA:                  -0.967
REMARK UNBOUND:                -1.050
REMARK  Name = 
REMARK  7 active torsions:
REMARK  status: ('A' for Active; 'I' for Inactive)
REMARK    1  A    between atoms: C_1  and  O_2
REMARK    2  A    between atoms: O_2  and  C_3
REMARK    3  A    between atoms: C_10  and  C_11
REMARK    4  A    between atoms: N_13  and  C_14
REMARK    5  A    between atoms: C_14  and  C_15
REMARK    6  A    between atoms: C_18  and  N_19
REMARK    7  A    between atoms: C_20  and  C_22
REMARK                            x       y       z     vdW  Elec       q    Type
REMARK                         _______ _______ _______ _____ _____    ______ ____
ROOT
ATOM      1  C   UNL     1      48.875   8.805  13.428  0.00  0.00    +0.000 A 
ATOM      2  C   UNL     1      47.562   8.891  13.902  0.00  0.00    +0.000 A 
ATOM      3  C   UNL     1      46.513   8.237  13.242  0.00  0.00    +0.000 A 
ATOM      4  C   UNL     1      46.753   7.467  12.104  0.00  0.00    +0.000 A 
ATOM      5  C   UNL     1      48.067   7.376  11.628  0.00  0.00    +0.000 A 
ATOM      6  C   UNL     1      49.118   8.036  12.284  0.00  0.00    +0.000 A 
ENDROOT
BRANCH   4   7
ATOM      7  N   UNL     1      45.742   6.782  11.389  0.00  0.00    +0.000 N 
ATOM      8  C   UNL     1      45.230   5.518  11.664  0.00  0.00    +0.000 C 
ATOM      9  O   UNL     1      45.664   4.748  12.515  0.00  0.00    +0.000 OA
ATOM     10  H   UNL     1      45.372   7.259  10.578  0.00  0.00    +0.000 HD
BRANCH   8  11
ATOM     11  C   UNL     1      44.054   5.124  10.755  0.00  0.00    +0.000 C 
ATOM     12  C   UNL     1      42.967   4.354  11.515  0.00  0.00    +0.000 C 
ATOM     13  C   UNL     1      43.437   2.946  11.878  0.00  0.00    +0.000 C 
ATOM     14  N   UNL     1      43.808   2.187  10.685  0.00  0.00    +0.000 NA
ATOM     15  C   UNL     1      44.889   2.849   9.950  0.00  0.00    +0.000 C 
ATOM     16  C   UNL     1      44.518   4.281   9.551  0.00  0.00    +0.000 C 
ATOM     17  H   UNL     1      42.997   2.091  10.074  0.00  0.00    +0.000 HD
ENDBRANCH   8  11
ENDBRANCH   4   7
BRANCH   1  18
ATOM     18  C   UNL     1      49.994   9.489  14.174  0.00  0.00    +0.000 C 
BRANCH  18  21
ATOM     19  C   UNL     1      51.819   7.981  14.851  0.00  0.00    +0.000 C 
ATOM     20  O   UNL     1      52.411   8.171  13.790  0.00  0.00    +0.000 OA
ATOM     21  N   UNL     1      50.623   8.590  15.112  0.00  0.00    +0.000 N 
ATOM     22  H   UNL     1      50.186   8.481  16.018  0.00  0.00    +0.000 HD
BRANCH  19  30
ATOM     23  C   UNL     1      50.356   5.878  17.156  0.00  0.00    +0.000 A 
ATOM     24  N   UNL     1      50.055   4.927  18.061  0.00  0.00    +0.000 NA
ATOM     25  C   UNL     1      51.064   4.275  18.648  0.00  0.00    +0.000 A 
ATOM     26  N   UNL     1      52.364   4.468  18.449  0.00  0.00    +0.000 NA
ATOM     27  C   UNL     1      52.620   5.419  17.535  0.00  0.00    +0.000 A 
ATOM     28  S   UNL     1      54.230   5.815  17.168  0.00  0.00    +0.000 S 
ATOM     29  C   UNL     1      53.736   6.963  16.017  0.00  0.00    +0.000 A 
ATOM     30  C   UNL     1      52.357   7.063  15.873  0.00  0.00    +0.000 A 
ATOM     31  C   UNL     1      51.690   6.164  16.816  0.00  0.00    +0.000 A 
BRANCH  23  33
ATOM     32  C   UNL     1      48.408   5.774  15.838  0.00  0.00    +0.000 C 
ATOM     33  O   UNL     1      49.323   6.584  16.572  0.00  0.00    +0.000 OA
ENDBRANCH  23  33
ENDBRANCH  19  30
ENDBRANCH  18  21
ENDBRANCH   1  18
TORSDOF 6
ENDMDL
MODEL 8
REMARK VINA RESULT:    -5.933      1.776      2.112
REMARK INTER + INTRA:          -9.063
REMARK INTER:                  -8.302
REMARK INTRA:                  -0.762
REMARK UNBOUND:                -1.050
REMARK  Name = 
REMARK  7 active torsions:
REMARK  status: ('A' for Active; 'I' for Inactive)
REMARK    1  A    between atoms: C_1  and  O_2
REMARK    2  A    between atoms: O_2  and  C_3
REMARK    3  A    between atoms: C_10  and  C_11
REMARK    4  A    between atoms: N_13  and  C_14
REMARK    5  A    between atoms: C_14  and  C_15
REMARK    6  A    between atoms: C_18  and  N_19
REMARK    7  A    between atoms: C_20  and  C_22
REMARK                            x       y       z     vdW  Elec       q    Type
REMARK                         _______ _______ _______ _____ _____    ______ ____
ROOT
ATOM      1  C   UNL     1      49.761   7.747  13.717  0.00  0.00    +0.000 A 
ATOM      2  C   UNL     1      48.964   6.927  14.521  0.00  0.00    +0.000 A 
ATOM      3  C   UNL     1      47.829   6.291  14.001  0.00  0.00    +0.000 A 
ATOM      4  C   UNL     1      47.473   6.446  12.662  0.00  0.00    +0.000 A 
ATOM      5  C   UNL     1      48.270   7.265  11.852  0.00  0.00    +0.000 A 
ATOM      6  C   UNL     1      49.404   7.908  12.373  0.00  0.00    +0.000 A 
ENDROOT
BRANCH   4   7
ATOM      7  N   UNL     1      46.340   5.835  12.072  0.00  0.00    +0.000 N 
ATOM      8  C   UNL     1      45.140   6.447  11.728  0.00  0.00    +0.000 C 
ATOM      9  O   UNL     1      44.836   7.606  11.992  0.00  0.00    +0.000 OA
ATOM     10  H   UNL     1      46.411   4.839  11.907  0.00  0.00    +0.000 HD
BRANCH   8  11
ATOM     11  C   UNL     1      44.163   5.511  10.998  0.00  0.00    +0.000 C 
ATOM     12  C   UNL     1      42.841   5.347  11.757  0.00  0.00    +0.000 C 
ATOM     13  C   UNL     1      43.029   4.511  13.022  0.00  0.00    +0.000 C 
ATOM     14  N   UNL     1      43.562   3.187  12.709  0.00  0.00    +0.000 NA
ATOM     15  C   UNL     1      44.859   3.284  12.034  0.00  0.00    +0.000 C 
ATOM     16  C   UNL     1      44.778   4.120  10.752  0.00  0.00    +0.000 C 
ATOM     17  H   UNL     1      42.908   2.687  12.108  0.00  0.00    +0.000 HD
ENDBRANCH   8  11
ENDBRANCH   4   7
BRANCH   1  18
ATOM     18  C   UNL     1      50.999   8.395  14.288  0.00  0.00    +0.000 C 
BRANCH  18  21
ATOM     19  C   UNL     1      51.961   7.488  16.366  0.00  0.00    +0.000 C 
ATOM     20  O   UNL     1      51.421   8.367  17.035  0.00  0.00    +0.000 OA
ATOM     21  N   UNL     1      51.804   7.438  15.008  0.00  0.00    +0.000 N 
ATOM     22  H   UNL     1      52.195   6.667  14.481  0.00  0.00    +0.000 HD
BRANCH  19  30
ATOM     23  C   UNL     1      51.441   4.243  17.400  0.00  0.00    +0.000 A 
ATOM     24  N   UNL     1      51.538   2.958  17.794  0.00  0.00    +0.000 NA
ATOM     25  C   UNL     1      52.731   2.512  18.199  0.00  0.00    +0.000 A 
ATOM     26  N   UNL     1      53.861   3.208  18.276  0.00  0.00    +0.000 NA
ATOM     27  C   UNL     1      53.724   4.481  17.868  0.00  0.00    +0.000 A 
ATOM     28  S   UNL     1      55.061   5.525  17.916  0.00  0.00    +0.000 S 
ATOM     29  C   UNL     1      54.148   6.804  17.271  0.00  0.00    +0.000 A 
ATOM     30  C   UNL     1      52.826   6.472  16.993  0.00  0.00    +0.000 A 
ATOM     31  C   UNL     1      52.565   5.088  17.392  0.00  0.00    +0.000 A 
BRANCH  23  33
ATOM     32  C   UNL     1      49.427   5.247  18.088  0.00  0.00    +0.000 C 
ATOM     33  O   UNL     1      50.206   4.724  17.016  0.00  0.00    +0.000 OA
ENDBRANCH  23  33
ENDBRANCH  19  30
ENDBRANCH  18  21
ENDBRANCH   1  18
TORSDOF 6
ENDMDL
MODEL 9
REMARK VINA RESULT:    -5.779      2.076      2.490
REMARK INTER + INTRA:          -8.856
REMARK INTER:                  -7.595
REMARK INTRA:                  -1.261
REMARK UNBOUND:                -1.050
REMARK  Name = 
REMARK  7 active torsions:
REMARK  status: ('A' for Active; 'I' for Inactive)
REMARK    1  A    between atoms: C_1  and  O_2
REMARK    2  A    between atoms: O_2  and  C_3
REMARK    3  A    between atoms: C_10  and  C_11
REMARK    4  A    between atoms: N_13  and  C_14
REMARK    5  A    between atoms: C_14  and  C_15
REMARK    6  A    between atoms: C_18  and  N_19
REMARK    7  A    between atoms: C_20  and  C_22
REMARK                            x       y       z     vdW  Elec       q    Type
REMARK                         _______ _______ _______ _____ _____    ______ ____
ROOT
ATOM      1  C   UNL     1      48.763   8.730  13.357  0.00  0.00    +0.000 A 
ATOM      2  C   UNL     1      47.520   9.333  13.137  0.00  0.00    +0.000 A 
ATOM      3  C   UNL     1      46.494   8.648  12.472  0.00  0.00    +0.000 A 
ATOM      4  C   UNL     1      46.680   7.339  12.027  0.00  0.00    +0.000 A 
ATOM      5  C   UNL     1      47.922   6.731  12.247  0.00  0.00    +0.000 A 
ATOM      6  C   UNL     1      48.953   7.418  12.907  0.00  0.00    +0.000 A 
ENDROOT
BRANCH   4   7
ATOM      7  N   UNL     1      45.688   6.590  11.348  0.00  0.00    +0.000 N 
ATOM      8  C   UNL     1      44.633   5.885  11.918  0.00  0.00    +0.000 C 
ATOM      9  O   UNL     1      44.466   5.711  13.121  0.00  0.00    +0.000 OA
ATOM     10  H   UNL     1      45.776   6.548  10.341  0.00  0.00    +0.000 HD
BRANCH   8  11
ATOM     11  C   UNL     1      43.673   5.279  10.882  0.00  0.00    +0.000 C 
ATOM     12  C   UNL     1      42.697   4.278  11.513  0.00  0.00    +0.000 C 
ATOM     13  C   UNL     1      43.412   2.989  11.919  0.00  0.00    +0.000 C 
ATOM     14  N   UNL     1      44.062   2.359  10.771  0.00  0.00    +0.000 NA
ATOM     15  C   UNL     1      45.052   3.253  10.165  0.00  0.00    +0.000 C 
ATOM     16  C   UNL     1      44.432   4.586   9.734  0.00  0.00    +0.000 C 
ATOM     17  H   UNL     1      43.361   2.112  10.074  0.00  0.00    +0.000 HD
ENDBRANCH   8  11
ENDBRANCH   4   7
BRANCH   1  18
ATOM     18  C   UNL     1      49.842   9.474  14.105  0.00  0.00    +0.000 C 
BRANCH  18  21
ATOM     19  C   UNL     1      49.569   9.095  16.523  0.00  0.00    +0.000 C 
ATOM     20  O   UNL     1      48.698   9.961  16.591  0.00  0.00    +0.000 OA
ATOM     21  N   UNL     1      50.182   8.801  15.336  0.00  0.00    +0.000 N 
ATOM     22  H   UNL     1      50.844   8.037  15.283  0.00  0.00    +0.000 HD
BRANCH  19  30
ATOM     23  C   UNL     1      49.716   5.751  17.337  0.00  0.00    +0.000 A 
ATOM     24  N   UNL     1      49.966   4.537  17.866  0.00  0.00    +0.000 NA
ATOM     25  C   UNL     1      50.554   4.482  19.066  0.00  0.00    +0.000 A 
ATOM     26  N   UNL     1      50.918   5.510  19.826  0.00  0.00    +0.000 NA
ATOM     27  C   UNL     1      50.658   6.701  19.260  0.00  0.00    +0.000 A 
ATOM     28  S   UNL     1      51.038   8.127  20.097  0.00  0.00    +0.000 S 
ATOM     29  C   UNL     1      50.481   9.088  18.812  0.00  0.00    +0.000 A 
ATOM     30  C   UNL     1      50.013   8.361  17.722  0.00  0.00    +0.000 A 
ATOM     31  C   UNL     1      50.082   6.928  18.013  0.00  0.00    +0.000 A 
BRANCH  23  33
ATOM     32  C   UNL     1      47.964   4.937  15.994  0.00  0.00    +0.000 C 
ATOM     33  O   UNL     1      49.076   5.819  16.117  0.00  0.00    +0.000 OA
ENDBRANCH  23  33
ENDBRANCH  19  30
ENDBRANCH  18  21
ENDBRANCH   1  18
TORSDOF 6
ENDMDL
