MODEL 1
REMARK VINA RESULT:    -8.821      0.000      0.000
REMARK INTER + INTRA:         -13.499
REMARK INTER:                 -12.689
REMARK INTRA:                  -0.810
REMARK UNBOUND:                -0.810
REMARK  Name = 
REMARK  8 active torsions:
REMARK  status: ('A' for Active; 'I' for Inactive)
REMARK    1  A    between atoms: C_2  and  C_4
REMARK    2  A    between atoms: C_7  and  N_8
REMARK    3  A    between atoms: N_8  and  C_9
REMARK    4  A    between atoms: C_9  and  C_10
REMARK    5  A    between atoms: C_10  and  C_13
REMARK    6  A    between atoms: C_15  and  N_16
REMARK    7  A    between atoms: N_16  and  C_17
REMARK    8  A    between atoms: C_23  and  O_24
REMARK                            x       y       z     vdW  Elec       q    Type
REMARK                         _______ _______ _______ _____ _____    ______ ____
ROOT
ATOM      1  C   UNL     1      43.315   5.162  12.374  0.00  0.00    +0.000 C 
ATOM      2  F   UNL     1      42.564   6.201  11.879  0.00  0.00    +0.000 F 
ATOM      3  F   UNL     1      42.695   4.829  13.550  0.00  0.00    +0.000 F 
ENDROOT
BRANCH   1   4
ATOM      4  C   UNL     1      44.758   5.578  12.585  0.00  0.00    +0.000 A 
ATOM      5  C   UNL     1      45.462   5.104  13.710  0.00  0.00    +0.000 A 
ATOM      6  C   UNL     1      46.806   5.419  13.926  0.00  0.00    +0.000 A 
ATOM      7  C   UNL     1      47.455   6.238  12.999  0.00  0.00    +0.000 A 
ATOM      8  C   UNL     1      46.774   6.743  11.890  0.00  0.00    +0.000 A 
ATOM      9  C   UNL     1      45.434   6.415  11.692  0.00  0.00    +0.000 A 
BRANCH   6  10
ATOM     10  N   UNL     1      47.481   5.053  15.100  0.00  0.00    +0.000 N 
ATOM     11  H   UNL     1      48.435   5.396  15.172  0.00  0.00    +0.000 HD
BRANCH  10  12
ATOM     12  C   UNL     1      47.076   4.056  16.050  0.00  0.00    +0.000 C 
ATOM     13  C   UNL     1      47.296   4.499  17.503  0.00  0.00    +0.000 C 
ATOM     14  O   UNL     1      48.179   3.382  17.761  0.00  0.00    +0.000 OA
ATOM     15  C   UNL     1      48.124   2.987  16.366  0.00  0.00    +0.000 C 
ENDBRANCH  10  12
ENDBRANCH   6  10
BRANCH   9  16
ATOM     16  O   UNL     1      44.762   6.931  10.624  0.00  0.00    +0.000 OA
ATOM     17  H   UNL     1      45.324   7.590  10.178  0.00  0.00    +0.000 HD
ENDBRANCH   9  16
ENDBRANCH   1   4
BRANCH   1  18
ATOM     18  C   UNL     1      43.173   3.969  11.391  0.00  0.00    +0.000 C 
BRANCH  18  19
ATOM     19  N   UNL     1      43.486   4.334   9.994  0.00  0.00    +0.000 N 
ATOM     20  H   UNL     1      42.666   4.554   9.431  0.00  0.00    +0.000 HD
BRANCH  19  24
ATOM     21  C   UNL     1      46.390   2.269   7.740  0.00  0.00    +0.000 A 
ATOM     22  C   UNL     1      46.243   3.644   7.573  0.00  0.00    +0.000 A 
ATOM     23  C   UNL     1      45.300   4.347   8.334  0.00  0.00    +0.000 A 
ATOM     24  C   UNL     1      44.507   3.704   9.292  0.00  0.00    +0.000 A 
ATOM     25  C   UNL     1      44.660   2.318   9.436  0.00  0.00    +0.000 A 
ATOM     26  C   UNL     1      45.587   1.602   8.666  0.00  0.00    +0.000 A 
BRANCH  21  28
ATOM     27  N   UNL     1      48.504   2.091   6.539  0.00  0.00    +0.000 N 
ATOM     28  C   UNL     1      47.342   1.480   6.916  0.00  0.00    +0.000 C 
ATOM     29  O   UNL     1      47.114   0.315   6.606  0.00  0.00    +0.000 OA
ATOM     30  H   UNL     1      49.182   1.507   6.066  0.00  0.00    +0.000 HD
ATOM     31  H   UNL     1      48.838   2.934   6.983  0.00  0.00    +0.000 HD
ENDBRANCH  21  28
ENDBRANCH  19  24
ENDBRANCH  18  19
ENDBRANCH   1  18
TORSDOF 8
ENDMDL
MODEL 2
REMARK VINA RESULT:    -8.203      2.135      3.446
REMARK INTER + INTRA:         -12.610
REMARK INTER:                 -12.202
REMARK INTRA:                  -0.407
REMARK UNBOUND:                -0.810
REMARK  Name = 
REMARK  8 active torsions:
REMARK  status: ('A' for Active; 'I' for Inactive)
REMARK    1  A    between atoms: C_2  and  C_4
REMARK    2  A    between atoms: C_7  and  N_8
REMARK    3  A    between atoms: N_8  and  C_9
REMARK    4  A    between atoms: C_9  and  C_10
REMARK    5  A    between atoms: C_10  and  C_13
REMARK    6  A    between atoms: C_15  and  N_16
REMARK    7  A    between atoms: N_16  and  C_17
REMARK    8  A    between atoms: C_23  and  O_24
REMARK                            x       y       z     vdW  Elec       q    Type
REMARK                         _______ _______ _______ _____ _____    ______ ____
ROOT
ATOM      1  C   UNL     1      43.326   4.672  12.671  0.00  0.00    +0.000 C 
ATOM      2  F   UNL     1      42.458   5.723  12.841  0.00  0.00    +0.000 F 
ATOM      3  F   UNL     1      42.932   3.755  13.610  0.00  0.00    +0.000 F 
ENDROOT
BRANCH   1   4
ATOM      4  C   UNL     1      44.765   5.109  12.867  0.00  0.00    +0.000 A 
ATOM      5  C   UNL     1      45.073   6.482  12.933  0.00  0.00    +0.000 A 
ATOM      6  C   UNL     1      46.375   6.936  13.159  0.00  0.00    +0.000 A 
ATOM      7  C   UNL     1      47.393   5.992  13.310  0.00  0.00    +0.000 A 
ATOM      8  C   UNL     1      47.120   4.625  13.223  0.00  0.00    +0.000 A 
ATOM      9  C   UNL     1      45.814   4.193  12.999  0.00  0.00    +0.000 A 
BRANCH   6  10
ATOM     10  N   UNL     1      46.713   8.297  13.106  0.00  0.00    +0.000 N 
ATOM     11  H   UNL     1      45.932   8.927  12.945  0.00  0.00    +0.000 HD
BRANCH  10  12
ATOM     12  C   UNL     1      48.031   8.853  12.986  0.00  0.00    +0.000 C 
ATOM     13  C   UNL     1      48.055  10.146  12.160  0.00  0.00    +0.000 C 
ATOM     14  O   UNL     1      48.970   9.571  11.198  0.00  0.00    +0.000 OA
ATOM     15  C   UNL     1      48.884   8.279  11.854  0.00  0.00    +0.000 C 
ENDBRANCH  10  12
ENDBRANCH   6  10
BRANCH   9  16
ATOM     16  O   UNL     1      45.552   2.859  12.886  0.00  0.00    +0.000 OA
ATOM     17  H   UNL     1      44.849   2.615  13.513  0.00  0.00    +0.000 HD
ENDBRANCH   9  16
ENDBRANCH   1   4
BRANCH   1  18
ATOM     18  C   UNL     1      43.068   4.072  11.263  0.00  0.00    +0.000 C 
BRANCH  18  19
ATOM     19  N   UNL     1      43.909   4.686  10.214  0.00  0.00    +0.000 N 
ATOM     20  H   UNL     1      43.490   5.505   9.776  0.00  0.00    +0.000 HD
BRANCH  19  24
ATOM     21  C   UNL     1      46.456   2.445   7.708  0.00  0.00    +0.000 A 
ATOM     22  C   UNL     1      45.631   1.784   8.617  0.00  0.00    +0.000 A 
ATOM     23  C   UNL     1      44.761   2.514   9.437  0.00  0.00    +0.000 A 
ATOM     24  C   UNL     1      44.674   3.909   9.351  0.00  0.00    +0.000 A 
ATOM     25  C   UNL     1      45.521   4.558   8.442  0.00  0.00    +0.000 A 
ATOM     26  C   UNL     1      46.408   3.837   7.630  0.00  0.00    +0.000 A 
BRANCH  21  28
ATOM     27  N   UNL     1      48.524   2.397   6.421  0.00  0.00    +0.000 N 
ATOM     28  C   UNL     1      47.428   1.711   6.858  0.00  0.00    +0.000 C 
ATOM     29  O   UNL     1      47.273   0.526   6.580  0.00  0.00    +0.000 OA
ATOM     30  H   UNL     1      49.223   1.854   5.929  0.00  0.00    +0.000 HD
ATOM     31  H   UNL     1      48.814   3.271   6.835  0.00  0.00    +0.000 HD
ENDBRANCH  21  28
ENDBRANCH  19  24
ENDBRANCH  18  19
ENDBRANCH   1  18
TORSDOF 8
ENDMDL
MODEL 3
REMARK VINA RESULT:    -8.177      1.532      2.063
REMARK INTER + INTRA:         -12.572
REMARK INTER:                 -12.311
REMARK INTRA:                  -0.261
REMARK UNBOUND:                -0.810
REMARK  Name = 
REMARK  8 active torsions:
REMARK  status: ('A' for Active; 'I' for Inactive)
REMARK    1  A    between atoms: C_2  and  C_4
REMARK    2  A    between atoms: C_7  and  N_8
REMARK    3  A    between atoms: N_8  and  C_9
REMARK    4  A    between atoms: C_9  and  C_10
REMARK    5  A    between atoms: C_10  and  C_13
REMARK    6  A    between atoms: C_15  and  N_16
REMARK    7  A    between atoms: N_16  and  C_17
REMARK    8  A    between atoms: C_23  and  O_24
REMARK                            x       y       z     vdW  Elec       q    Type
REMARK                         _______ _______ _______ _____ _____    ______ ____
ROOT
ATOM      1  C   UNL     1      43.781   4.729  12.437  0.00  0.00    +0.000 C 
ATOM      2  F   UNL     1      42.832   4.913  13.414  0.00  0.00    +0.000 F 
ATOM      3  F   UNL     1      44.371   3.535  12.762  0.00  0.00    +0.000 F 
ENDROOT
BRANCH   1   4
ATOM      4  C   UNL     1      44.777   5.873  12.416  0.00  0.00    +0.000 A 
ATOM      5  C   UNL     1      46.060   5.689  12.969  0.00  0.00    +0.000 A 
ATOM      6  C   UNL     1      47.030   6.695  12.931  0.00  0.00    +0.000 A 
ATOM      7  C   UNL     1      46.701   7.916  12.338  0.00  0.00    +0.000 A 
ATOM      8  C   UNL     1      45.429   8.133  11.806  0.00  0.00    +0.000 A 
ATOM      9  C   UNL     1      44.477   7.116  11.850  0.00  0.00    +0.000 A 
BRANCH   6  10
ATOM     10  N   UNL     1      48.265   6.567  13.584  0.00  0.00    +0.000 N 
ATOM     11  H   UNL     1      48.927   5.941  13.132  0.00  0.00    +0.000 HD
BRANCH  10  12
ATOM     12  C   UNL     1      48.584   6.995  14.916  0.00  0.00    +0.000 C 
ATOM     13  C   UNL     1      50.094   7.146  15.145  0.00  0.00    +0.000 C 
ATOM     14  O   UNL     1      50.078   6.171  16.214  0.00  0.00    +0.000 OA
ATOM     15  C   UNL     1      48.679   5.879  15.959  0.00  0.00    +0.000 C 
ENDBRANCH  10  12
ENDBRANCH   6  10
BRANCH   9  16
ATOM     16  O   UNL     1      43.225   7.339  11.356  0.00  0.00    +0.000 OA
ATOM     17  H   UNL     1      42.575   6.859  11.899  0.00  0.00    +0.000 HD
ENDBRANCH   9  16
ENDBRANCH   1   4
BRANCH   1  18
ATOM     18  C   UNL     1      43.038   4.556  11.086  0.00  0.00    +0.000 C 
BRANCH  18  19
ATOM     19  N   UNL     1      43.845   4.988   9.926  0.00  0.00    +0.000 N 
ATOM     20  H   UNL     1      43.408   5.722   9.370  0.00  0.00    +0.000 HD
BRANCH  19  24
ATOM     21  C   UNL     1      46.341   2.333   7.804  0.00  0.00    +0.000 A 
ATOM     22  C   UNL     1      45.361   1.823   8.654  0.00  0.00    +0.000 A 
ATOM     23  C   UNL     1      44.508   2.693   9.345  0.00  0.00    +0.000 A 
ATOM     24  C   UNL     1      44.594   4.081   9.185  0.00  0.00    +0.000 A 
ATOM     25  C   UNL     1      45.594   4.577   8.337  0.00  0.00    +0.000 A 
ATOM     26  C   UNL     1      46.465   3.715   7.655  0.00  0.00    +0.000 A 
BRANCH  21  28
ATOM     27  N   UNL     1      48.414   2.024   6.561  0.00  0.00    +0.000 N 
ATOM     28  C   UNL     1      47.298   1.446   7.094  0.00  0.00    +0.000 C 
ATOM     29  O   UNL     1      47.114   0.236   7.010  0.00  0.00    +0.000 OA
ATOM     30  H   UNL     1      49.101   1.391   6.170  0.00  0.00    +0.000 HD
ATOM     31  H   UNL     1      48.725   2.946   6.830  0.00  0.00    +0.000 HD
ENDBRANCH  21  28
ENDBRANCH  19  24
ENDBRANCH  18  19
ENDBRANCH   1  18
TORSDOF 8
ENDMDL
MODEL 4
REMARK VINA RESULT:    -8.066      2.227      4.133
REMARK INTER + INTRA:         -12.413
REMARK INTER:                 -12.319
REMARK INTRA:                  -0.093
REMARK UNBOUND:                -0.810
REMARK  Name = 
REMARK  8 active torsions:
REMARK  status: ('A' for Active; 'I' for Inactive)
REMARK    1  A    between atoms: C_2  and  C_4
REMARK    2  A    between atoms: C_7  and  N_8
REMARK    3  A    between atoms: N_8  and  C_9
REMARK    4  A    between atoms: C_9  and  C_10
REMARK    5  A    between atoms: C_10  and  C_13
REMARK    6  A    between atoms: C_15  and  N_16
REMARK    7  A    between atoms: N_16  and  C_17
REMARK    8  A    between atoms: C_23  and  O_24
REMARK                            x       y       z     vdW  Elec       q    Type
REMARK                         _______ _______ _______ _____ _____    ______ ____
ROOT
ATOM      1  C   UNL     1      43.853   3.930  12.555  0.00  0.00    +0.000 C 
ATOM      2  F   UNL     1      42.905   3.934  13.550  0.00  0.00    +0.000 F 
ATOM      3  F   UNL     1      44.386   2.668  12.604  0.00  0.00    +0.000 F 
ENDROOT
BRANCH   1   4
ATOM      4  C   UNL     1      44.901   5.002  12.789  0.00  0.00    +0.000 A 
ATOM      5  C   UNL     1      44.548   6.360  12.655  0.00  0.00    +0.000 A 
ATOM      6  C   UNL     1      45.463   7.387  12.905  0.00  0.00    +0.000 A 
ATOM      7  C   UNL     1      46.762   7.044  13.285  0.00  0.00    +0.000 A 
ATOM      8  C   UNL     1      47.145   5.706  13.399  0.00  0.00    +0.000 A 
ATOM      9  C   UNL     1      46.217   4.697  13.148  0.00  0.00    +0.000 A 
BRANCH   6  10
ATOM     10  N   UNL     1      45.159   8.734  12.659  0.00  0.00    +0.000 N 
ATOM     11  H   UNL     1      44.840   9.258  13.470  0.00  0.00    +0.000 HD
BRANCH  10  12
ATOM     12  C   UNL     1      44.995   9.360  11.378  0.00  0.00    +0.000 C 
ATOM     13  C   UNL     1      44.952  10.891  11.467  0.00  0.00    +0.000 C 
ATOM     14  O   UNL     1      43.632  10.937  10.877  0.00  0.00    +0.000 OA
ATOM     15  C   UNL     1      43.551   9.488  10.891  0.00  0.00    +0.000 C 
ENDBRANCH  10  12
ENDBRANCH   6  10
BRANCH   9  16
ATOM     16  O   UNL     1      46.599   3.390  13.231  0.00  0.00    +0.000 OA
ATOM     17  H   UNL     1      47.563   3.345  13.364  0.00  0.00    +0.000 HD
ENDBRANCH   9  16
ENDBRANCH   1   4
BRANCH   1  18
ATOM     18  C   UNL     1      43.114   4.098  11.201  0.00  0.00    +0.000 C 
BRANCH  18  19
ATOM     19  N   UNL     1      43.937   4.775  10.177  0.00  0.00    +0.000 N 
ATOM     20  H   UNL     1      43.444   5.509   9.671  0.00  0.00    +0.000 HD
BRANCH  19  24
ATOM     21  C   UNL     1      46.524   2.532   7.716  0.00  0.00    +0.000 A 
ATOM     22  C   UNL     1      46.557   3.925   7.657  0.00  0.00    +0.000 A 
ATOM     23  C   UNL     1      45.721   4.682   8.487  0.00  0.00    +0.000 A 
ATOM     24  C   UNL     1      44.860   4.074   9.409  0.00  0.00    +0.000 A 
ATOM     25  C   UNL     1      44.832   2.673   9.444  0.00  0.00    +0.000 A 
ATOM     26  C   UNL     1      45.650   1.906   8.605  0.00  0.00    +0.000 A 
BRANCH  21  28
ATOM     27  N   UNL     1      48.424   2.291   6.208  0.00  0.00    +0.000 N 
ATOM     28  C   UNL     1      47.357   1.694   6.815  0.00  0.00    +0.000 C 
ATOM     29  O   UNL     1      47.119   0.503   6.642  0.00  0.00    +0.000 OA
ATOM     30  H   UNL     1      49.036   1.681   5.681  0.00  0.00    +0.000 HD
ATOM     31  H   UNL     1      48.799   3.175   6.523  0.00  0.00    +0.000 HD
ENDBRANCH  21  28
ENDBRANCH  19  24
ENDBRANCH  18  19
ENDBRANCH   1  18
TORSDOF 8
ENDMDL
MODEL 5
REMARK VINA RESULT:    -7.918      3.052      5.317
REMARK INTER + INTRA:         -12.200
REMARK INTER:                 -11.405
REMARK INTRA:                  -0.796
REMARK UNBOUND:                -0.810
REMARK  Name = 
REMARK  8 active torsions:
REMARK  status: ('A' for Active; 'I' for Inactive)
REMARK    1  A    between atoms: C_2  and  C_4
REMARK    2  A    between atoms: C_7  and  N_8
REMARK    3  A    between atoms: N_8  and  C_9
REMARK    4  A    between atoms: C_9  and  C_10
REMARK    5  A    between atoms: C_10  and  C_13
REMARK    6  A    between atoms: C_15  and  N_16
REMARK    7  A    between atoms: N_16  and  C_17
REMARK    8  A    between atoms: C_23  and  O_24
REMARK                            x       y       z     vdW  Elec       q    Type
REMARK                         _______ _______ _______ _____ _____    ______ ____
ROOT
ATOM      1  C   UNL     1      44.712   5.534  12.035  0.00  0.00    +0.000 C 
ATOM      2  F   UNL     1      44.231   5.068  13.234  0.00  0.00    +0.000 F 
ATOM      3  F   UNL     1      45.853   4.805  11.824  0.00  0.00    +0.000 F 
ENDROOT
BRANCH   1   4
ATOM      4  C   UNL     1      44.989   7.024  12.094  0.00  0.00    +0.000 A 
ATOM      5  C   UNL     1      44.300   7.895  11.226  0.00  0.00    +0.000 A 
ATOM      6  C   UNL     1      44.483   9.280  11.272  0.00  0.00    +0.000 A 
ATOM      7  C   UNL     1      45.386   9.802  12.202  0.00  0.00    +0.000 A 
ATOM      8  C   UNL     1      46.100   8.959  13.056  0.00  0.00    +0.000 A 
ATOM      9  C   UNL     1      45.901   7.581  12.995  0.00  0.00    +0.000 A 
BRANCH   6  10
ATOM     10  N   UNL     1      43.897  10.143  10.335  0.00  0.00    +0.000 N 
ATOM     11  H   UNL     1      44.427  10.270   9.477  0.00  0.00    +0.000 HD
BRANCH  10  12
ATOM     12  C   UNL     1      42.805  11.047  10.562  0.00  0.00    +0.000 C 
ATOM     13  C   UNL     1      41.550  10.338  11.090  0.00  0.00    +0.000 C 
ATOM     14  O   UNL     1      40.765  10.782   9.959  0.00  0.00    +0.000 OA
ATOM     15  C   UNL     1      41.943  11.355   9.336  0.00  0.00    +0.000 C 
ENDBRANCH  10  12
ENDBRANCH   6  10
BRANCH   9  16
ATOM     16  O   UNL     1      46.620   6.757  13.811  0.00  0.00    +0.000 OA
ATOM     17  H   UNL     1      46.068   6.492  14.567  0.00  0.00    +0.000 HD
ENDBRANCH   9  16
ENDBRANCH   1   4
BRANCH   1  18
ATOM     18  C   UNL     1      43.682   5.159  10.937  0.00  0.00    +0.000 C 
BRANCH  18  19
ATOM     19  N   UNL     1      43.760   3.738  10.537  0.00  0.00    +0.000 N 
ATOM     20  H   UNL     1      43.709   3.086  11.318  0.00  0.00    +0.000 HD
BRANCH  19  24
ATOM     21  C   UNL     1      46.465   2.638   7.495  0.00  0.00    +0.000 A 
ATOM     22  C   UNL     1      45.992   1.667   8.376  0.00  0.00    +0.000 A 
ATOM     23  C   UNL     1      45.072   2.014   9.375  0.00  0.00    +0.000 A 
ATOM     24  C   UNL     1      44.587   3.321   9.500  0.00  0.00    +0.000 A 
ATOM     25  C   UNL     1      45.085   4.287   8.614  0.00  0.00    +0.000 A 
ATOM     26  C   UNL     1      46.019   3.954   7.623  0.00  0.00    +0.000 A 
BRANCH  21  28
ATOM     27  N   UNL     1      47.558   3.157   5.380  0.00  0.00    +0.000 N 
ATOM     28  C   UNL     1      47.479   2.321   6.456  0.00  0.00    +0.000 C 
ATOM     29  O   UNL     1      48.238   1.364   6.568  0.00  0.00    +0.000 OA
ATOM     30  H   UNL     1      48.319   2.983   4.735  0.00  0.00    +0.000 HD
ATOM     31  H   UNL     1      47.144   4.078   5.380  0.00  0.00    +0.000 HD
ENDBRANCH  21  28
ENDBRANCH  19  24
ENDBRANCH  18  19
ENDBRANCH   1  18
TORSDOF 8
ENDMDL
MODEL 6
REMARK VINA RESULT:    -7.563      2.896      3.881
REMARK INTER + INTRA:         -11.688
REMARK INTER:                 -11.089
REMARK INTRA:                  -0.600
REMARK UNBOUND:                -0.810
REMARK  Name = 
REMARK  8 active torsions:
REMARK  status: ('A' for Active; 'I' for Inactive)
REMARK    1  A    between atoms: C_2  and  C_4
REMARK    2  A    between atoms: C_7  and  N_8
REMARK    3  A    between atoms: N_8  and  C_9
REMARK    4  A    between atoms: C_9  and  C_10
REMARK    5  A    between atoms: C_10  and  C_13
REMARK    6  A    between atoms: C_15  and  N_16
REMARK    7  A    between atoms: N_16  and  C_17
REMARK    8  A    between atoms: C_23  and  O_24
REMARK                            x       y       z     vdW  Elec       q    Type
REMARK                         _______ _______ _______ _____ _____    ______ ____
ROOT
ATOM      1  C   UNL     1      45.183   5.873  12.166  0.00  0.00    +0.000 C 
ATOM      2  F   UNL     1      44.372   5.954  13.272  0.00  0.00    +0.000 F 
ATOM      3  F   UNL     1      45.750   4.628  12.255  0.00  0.00    +0.000 F 
ENDROOT
BRANCH   1   4
ATOM      4  C   UNL     1      46.224   6.976  12.165  0.00  0.00    +0.000 A 
ATOM      5  C   UNL     1      47.575   6.658  11.925  0.00  0.00    +0.000 A 
ATOM      6  C   UNL     1      48.566   7.643  11.866  0.00  0.00    +0.000 A 
ATOM      7  C   UNL     1      48.194   8.975  12.065  0.00  0.00    +0.000 A 
ATOM      8  C   UNL     1      46.865   9.314  12.330  0.00  0.00    +0.000 A 
ATOM      9  C   UNL     1      45.893   8.318  12.382  0.00  0.00    +0.000 A 
BRANCH   6  10
ATOM     10  N   UNL     1      49.927   7.328  11.748  0.00  0.00    +0.000 N 
ATOM     11  H   UNL     1      50.236   6.538  12.309  0.00  0.00    +0.000 HD
BRANCH  10  12
ATOM     12  C   UNL     1      50.951   8.140  11.155  0.00  0.00    +0.000 C 
ATOM     13  C   UNL     1      51.961   7.320  10.340  0.00  0.00    +0.000 C 
ATOM     14  O   UNL     1      53.062   7.767  11.165  0.00  0.00    +0.000 OA
ATOM     15  C   UNL     1      52.146   8.453  12.057  0.00  0.00    +0.000 C 
ENDBRANCH  10  12
ENDBRANCH   6  10
BRANCH   9  16
ATOM     16  O   UNL     1      44.601   8.647  12.670  0.00  0.00    +0.000 OA
ATOM     17  H   UNL     1      44.013   8.251  12.004  0.00  0.00    +0.000 HD
ENDBRANCH   9  16
ENDBRANCH   1   4
BRANCH   1  18
ATOM     18  C   UNL     1      44.272   5.907  10.910  0.00  0.00    +0.000 C 
BRANCH  18  19
ATOM     19  N   UNL     1      43.995   4.563  10.364  0.00  0.00    +0.000 N 
ATOM     20  H   UNL     1      43.525   3.940  11.019  0.00  0.00    +0.000 HD
BRANCH  19  24
ATOM     21  C   UNL     1      46.511   2.506   7.676  0.00  0.00    +0.000 A 
ATOM     22  C   UNL     1      46.489   3.900   7.666  0.00  0.00    +0.000 A 
ATOM     23  C   UNL     1      45.677   4.596   8.571  0.00  0.00    +0.000 A 
ATOM     24  C   UNL     1      44.896   3.925   9.518  0.00  0.00    +0.000 A 
ATOM     25  C   UNL     1      44.920   2.523   9.504  0.00  0.00    +0.000 A 
ATOM     26  C   UNL     1      45.714   1.816   8.590  0.00  0.00    +0.000 A 
BRANCH  21  28
ATOM     27  N   UNL     1      48.336   2.385   6.065  0.00  0.00    +0.000 N 
ATOM     28  C   UNL     1      47.318   1.731   6.699  0.00  0.00    +0.000 C 
ATOM     29  O   UNL     1      47.103   0.542   6.485  0.00  0.00    +0.000 OA
ATOM     30  H   UNL     1      48.936   1.816   5.481  0.00  0.00    +0.000 HD
ATOM     31  H   UNL     1      48.703   3.264   6.399  0.00  0.00    +0.000 HD
ENDBRANCH  21  28
ENDBRANCH  19  24
ENDBRANCH  18  19
ENDBRANCH   1  18
TORSDOF 8
ENDMDL
MODEL 7
REMARK VINA RESULT:    -7.196      2.873      6.999
REMARK INTER + INTRA:         -11.161
REMARK INTER:                 -10.748
REMARK INTRA:                  -0.413
REMARK UNBOUND:                -0.810
REMARK  Name = 
REMARK  8 active torsions:
REMARK  status: ('A' for Active; 'I' for Inactive)
REMARK    1  A    between atoms: C_2  and  C_4
REMARK    2  A    between atoms: C_7  and  N_8
REMARK    3  A    between atoms: N_8  and  C_9
REMARK    4  A    between atoms: C_9  and  C_10
REMARK    5  A    between atoms: C_10  and  C_13
REMARK    6  A    between atoms: C_15  and  N_16
REMARK    7  A    between atoms: N_16  and  C_17
REMARK    8  A    between atoms: C_23  and  O_24
REMARK                            x       y       z     vdW  Elec       q    Type
REMARK                         _______ _______ _______ _____ _____    ______ ____
ROOT
ATOM      1  C   UNL     1      44.331   6.068  11.255  0.00  0.00    +0.000 C 
ATOM      2  F   UNL     1      43.010   6.440  11.323  0.00  0.00    +0.000 F 
ATOM      3  F   UNL     1      44.950   7.133  10.653  0.00  0.00    +0.000 F 
ENDROOT
BRANCH   1   4
ATOM      4  C   UNL     1      44.502   4.785  10.464  0.00  0.00    +0.000 A 
ATOM      5  C   UNL     1      45.368   4.763   9.353  0.00  0.00    +0.000 A 
ATOM      6  C   UNL     1      45.597   3.595   8.620  0.00  0.00    +0.000 A 
ATOM      7  C   UNL     1      44.933   2.427   9.003  0.00  0.00    +0.000 A 
ATOM      8  C   UNL     1      44.050   2.428  10.085  0.00  0.00    +0.000 A 
ATOM      9  C   UNL     1      43.837   3.603  10.804  0.00  0.00    +0.000 A 
BRANCH   6  10
ATOM     10  N   UNL     1      46.360   3.588   7.443  0.00  0.00    +0.000 N 
ATOM     11  H   UNL     1      46.648   4.505   7.112  0.00  0.00    +0.000 HD
BRANCH  10  12
ATOM     12  C   UNL     1      46.539   2.487   6.540  0.00  0.00    +0.000 C 
ATOM     13  C   UNL     1      47.594   1.486   7.029  0.00  0.00    +0.000 C 
ATOM     14  O   UNL     1      48.399   1.681   5.843  0.00  0.00    +0.000 OA
ATOM     15  C   UNL     1      47.515   2.737   5.388  0.00  0.00    +0.000 C 
ENDBRANCH  10  12
ENDBRANCH   6  10
BRANCH   9  16
ATOM     16  O   UNL     1      42.953   3.610  11.842  0.00  0.00    +0.000 OA
ATOM     17  H   UNL     1      42.294   4.312  11.698  0.00  0.00    +0.000 HD
ENDBRANCH   9  16
ENDBRANCH   1   4
BRANCH   1  18
ATOM     18  C   UNL     1      44.862   5.952  12.709  0.00  0.00    +0.000 C 
BRANCH  18  19
ATOM     19  N   UNL     1      45.491   7.198  13.193  0.00  0.00    +0.000 N 
ATOM     20  H   UNL     1      44.848   7.986  13.261  0.00  0.00    +0.000 HD
BRANCH  19  24
ATOM     21  C   UNL     1      49.395   8.079  11.864  0.00  0.00    +0.000 A 
ATOM     22  C   UNL     1      48.421   9.076  11.842  0.00  0.00    +0.000 A 
ATOM     23  C   UNL     1      47.127   8.804  12.305  0.00  0.00    +0.000 A 
ATOM     24  C   UNL     1      46.784   7.550  12.822  0.00  0.00    +0.000 A 
ATOM     25  C   UNL     1      47.772   6.555  12.823  0.00  0.00    +0.000 A 
ATOM     26  C   UNL     1      49.065   6.811  12.346  0.00  0.00    +0.000 A 
BRANCH  21  28
ATOM     27  N   UNL     1      51.512   7.214  11.022  0.00  0.00    +0.000 N 
ATOM     28  C   UNL     1      50.763   8.312  11.335  0.00  0.00    +0.000 C 
ATOM     29  O   UNL     1      51.200   9.444  11.156  0.00  0.00    +0.000 OA
ATOM     30  H   UNL     1      52.400   7.394  10.569  0.00  0.00    +0.000 HD
ATOM     31  H   UNL     1      51.104   6.297  10.908  0.00  0.00    +0.000 HD
ENDBRANCH  21  28
ENDBRANCH  19  24
ENDBRANCH  18  19
ENDBRANCH   1  18
TORSDOF 8
ENDMDL
MODEL 8
REMARK VINA RESULT:    -6.799      2.059      7.926
REMARK INTER + INTRA:         -10.590
REMARK INTER:                 -10.517
REMARK INTRA:                  -0.073
REMARK UNBOUND:                -0.810
REMARK  Name = 
REMARK  8 active torsions:
REMARK  status: ('A' for Active; 'I' for Inactive)
REMARK    1  A    between atoms: C_2  and  C_4
REMARK    2  A    between atoms: C_7  and  N_8
REMARK    3  A    between atoms: N_8  and  C_9
REMARK    4  A    between atoms: C_9  and  C_10
REMARK    5  A    between atoms: C_10  and  C_13
REMARK    6  A    between atoms: C_15  and  N_16
REMARK    7  A    between atoms: N_16  and  C_17
REMARK    8  A    between atoms: C_23  and  O_24
REMARK                            x       y       z     vdW  Elec       q    Type
REMARK                         _______ _______ _______ _____ _____    ______ ____
ROOT
ATOM      1  C   UNL     1      45.401   6.166  11.540  0.00  0.00    +0.000 C 
ATOM      2  F   UNL     1      44.421   7.122  11.415  0.00  0.00    +0.000 F 
ATOM      3  F   UNL     1      46.526   6.772  11.043  0.00  0.00    +0.000 F 
ENDROOT
BRANCH   1   4
ATOM      4  C   UNL     1      45.043   4.907  10.774  0.00  0.00    +0.000 A 
ATOM      5  C   UNL     1      45.611   4.679   9.505  0.00  0.00    +0.000 A 
ATOM      6  C   UNL     1      45.351   3.513   8.779  0.00  0.00    +0.000 A 
ATOM      7  C   UNL     1      44.492   2.561   9.333  0.00  0.00    +0.000 A 
ATOM      8  C   UNL     1      43.895   2.774  10.578  0.00  0.00    +0.000 A 
ATOM      9  C   UNL     1      44.169   3.942  11.286  0.00  0.00    +0.000 A 
BRANCH   6  10
ATOM     10  N   UNL     1      45.813   3.331   7.467  0.00  0.00    +0.000 N 
ATOM     11  H   UNL     1      45.089   3.145   6.779  0.00  0.00    +0.000 HD
BRANCH  10  12
ATOM     12  C   UNL     1      47.171   3.114   7.055  0.00  0.00    +0.000 C 
ATOM     13  C   UNL     1      47.292   2.798   5.558  0.00  0.00    +0.000 C 
ATOM     14  O   UNL     1      47.907   1.517   5.829  0.00  0.00    +0.000 OA
ATOM     15  C   UNL     1      47.698   1.692   7.254  0.00  0.00    +0.000 C 
ENDBRANCH  10  12
ENDBRANCH   6  10
BRANCH   9  16
ATOM     16  O   UNL     1      43.564   4.162  12.488  0.00  0.00    +0.000 OA
ATOM     17  H   UNL     1      42.613   4.312  12.346  0.00  0.00    +0.000 HD
ENDBRANCH   9  16
ENDBRANCH   1   4
BRANCH   1  18
ATOM     18  C   UNL     1      45.613   5.906  13.055  0.00  0.00    +0.000 C 
BRANCH  18  19
ATOM     19  N   UNL     1      46.994   6.189  13.499  0.00  0.00    +0.000 N 
ATOM     20  H   UNL     1      47.658   6.304  12.734  0.00  0.00    +0.000 HD
BRANCH  19  24
ATOM     21  C   UNL     1      48.510   4.568  17.085  0.00  0.00    +0.000 A 
ATOM     22  C   UNL     1      47.591   3.835  16.335  0.00  0.00    +0.000 A 
ATOM     23  C   UNL     1      47.099   4.351  15.128  0.00  0.00    +0.000 A 
ATOM     24  C   UNL     1      47.529   5.587  14.632  0.00  0.00    +0.000 A 
ATOM     25  C   UNL     1      48.443   6.315  15.407  0.00  0.00    +0.000 A 
ATOM     26  C   UNL     1      48.928   5.817  16.624  0.00  0.00    +0.000 A 
BRANCH  21  28
ATOM     27  N   UNL     1      48.279   3.124  19.035  0.00  0.00    +0.000 N 
ATOM     28  C   UNL     1      49.015   4.079  18.393  0.00  0.00    +0.000 C 
ATOM     29  O   UNL     1      50.067   4.491  18.871  0.00  0.00    +0.000 OA
ATOM     30  H   UNL     1      48.690   2.732  19.873  0.00  0.00    +0.000 HD
ATOM     31  H   UNL     1      47.568   2.584  18.563  0.00  0.00    +0.000 HD
ENDBRANCH  21  28
ENDBRANCH  19  24
ENDBRANCH  18  19
ENDBRANCH   1  18
TORSDOF 8
ENDMDL
MODEL 9
REMARK VINA RESULT:    -6.408      3.439      5.014
REMARK INTER + INTRA:         -10.028
REMARK INTER:                  -9.147
REMARK INTRA:                  -0.882
REMARK UNBOUND:                -0.810
REMARK  Name = 
REMARK  8 active torsions:
REMARK  status: ('A' for Active; 'I' for Inactive)
REMARK    1  A    between atoms: C_2  and  C_4
REMARK    2  A    between atoms: C_7  and  N_8
REMARK    3  A    between atoms: N_8  and  C_9
REMARK    4  A    between atoms: C_9  and  C_10
REMARK    5  A    between atoms: C_10  and  C_13
REMARK    6  A    between atoms: C_15  and  N_16
REMARK    7  A    between atoms: N_16  and  C_17
REMARK    8  A    between atoms: C_23  and  O_24
REMARK                            x       y       z     vdW  Elec       q    Type
REMARK                         _______ _______ _______ _____ _____    ______ ____
ROOT
ATOM      1  C   UNL     1      48.672   7.871  13.182  0.00  0.00    +0.000 C 
ATOM      2  F   UNL     1      48.989   6.629  12.688  0.00  0.00    +0.000 F 
ATOM      3  F   UNL     1      49.663   8.687  12.701  0.00  0.00    +0.000 F 
ENDROOT
BRANCH   1   4
ATOM      4  C   UNL     1      48.620   7.865  14.698  0.00  0.00    +0.000 A 
ATOM      5  C   UNL     1      48.770   6.650  15.394  0.00  0.00    +0.000 A 
ATOM      6  C   UNL     1      48.777   6.596  16.791  0.00  0.00    +0.000 A 
ATOM      7  C   UNL     1      48.618   7.786  17.504  0.00  0.00    +0.000 A 
ATOM      8  C   UNL     1      48.441   9.001  16.838  0.00  0.00    +0.000 A 
ATOM      9  C   UNL     1      48.440   9.033  15.445  0.00  0.00    +0.000 A 
BRANCH   6  10
ATOM     10  N   UNL     1      48.804   5.382  17.492  0.00  0.00    +0.000 N 
ATOM     11  H   UNL     1      49.295   5.409  18.381  0.00  0.00    +0.000 HD
BRANCH  10  12
ATOM     12  C   UNL     1      48.461   4.084  16.981  0.00  0.00    +0.000 C 
ATOM     13  C   UNL     1      46.975   3.966  16.616  0.00  0.00    +0.000 C 
ATOM     14  O   UNL     1      46.783   2.877  17.549  0.00  0.00    +0.000 OA
ATOM     15  C   UNL     1      48.141   3.027  18.039  0.00  0.00    +0.000 C 
ENDBRANCH  10  12
ENDBRANCH   6  10
BRANCH   9  16
ATOM     16  O   UNL     1      48.239  10.216  14.796  0.00  0.00    +0.000 OA
ATOM     17  H   UNL     1      48.882  10.872  15.116  0.00  0.00    +0.000 HD
ENDBRANCH   9  16
ENDBRANCH   1   4
BRANCH   1  18
ATOM     18  C   UNL     1      47.328   8.304  12.538  0.00  0.00    +0.000 C 
BRANCH  18  19
ATOM     19  N   UNL     1      46.151   7.732  13.223  0.00  0.00    +0.000 N 
ATOM     20  H   UNL     1      46.165   7.850  14.236  0.00  0.00    +0.000 HD
BRANCH  19  24
ATOM     21  C   UNL     1      44.522   4.157  11.691  0.00  0.00    +0.000 A 
ATOM     22  C   UNL     1      45.347   4.109  12.814  0.00  0.00    +0.000 A 
ATOM     23  C   UNL     1      45.874   5.292  13.349  0.00  0.00    +0.000 A 
ATOM     24  C   UNL     1      45.570   6.542  12.797  0.00  0.00    +0.000 A 
ATOM     25  C   UNL     1      44.750   6.569  11.661  0.00  0.00    +0.000 A 
ATOM     26  C   UNL     1      44.233   5.390  11.107  0.00  0.00    +0.000 A 
BRANCH  21  28
ATOM     27  N   UNL     1      44.684   2.396  10.014  0.00  0.00    +0.000 N 
ATOM     28  C   UNL     1      43.986   2.921  11.064  0.00  0.00    +0.000 C 
ATOM     29  O   UNL     1      42.973   2.373  11.485  0.00  0.00    +0.000 OA
ATOM     30  H   UNL     1      44.360   1.502   9.666  0.00  0.00    +0.000 HD
ATOM     31  H   UNL     1      45.637   2.660   9.814  0.00  0.00    +0.000 HD
ENDBRANCH  21  28
ENDBRANCH  19  24
ENDBRANCH  18  19
ENDBRANCH   1  18
TORSDOF 8
ENDMDL
