MODEL 1
REMARK VINA RESULT:    -7.357      0.000      0.000
REMARK INTER + INTRA:          -8.578
REMARK INTER:                  -8.217
REMARK INTRA:                  -0.361
REMARK UNBOUND:                -0.361
REMARK  Name = 
REMARK  2 active torsions:
REMARK  status: ('A' for Active; 'I' for Inactive)
REMARK    1  A    between atoms: C_4  and  C_5
REMARK    2  A    between atoms: C_5  and  N_6
REMARK                            x       y       z     vdW  Elec       q    Type
REMARK                         _______ _______ _______ _____ _____    ______ ____
ROOT
ATOM      1  N   UNL     1      44.201   4.191  10.541  0.00  0.00    +0.000 N 
ATOM      2  C   UNL     1      43.394   3.418  11.344  0.00  0.00    +0.000 A 
ATOM      3  C   UNL     1      43.809   3.588  12.647  0.00  0.00    +0.000 A 
ATOM      4  C   UNL     1      44.875   4.519  12.635  0.00  0.00    +0.000 A 
ATOM      5  N   UNL     1      45.622   4.968  13.672  0.00  0.00    +0.000 NA
ATOM      6  C   UNL     1      46.569   5.868  13.333  0.00  0.00    +0.000 A 
ATOM      7  C   UNL     1      46.787   6.374  12.059  0.00  0.00    +0.000 A 
ATOM      8  C   UNL     1      46.010   5.913  11.002  0.00  0.00    +0.000 A 
ATOM      9  C   UNL     1      45.060   4.938  11.318  0.00  0.00    +0.000 A 
ENDROOT
BRANCH   1  10
ATOM     10  C   UNL     1      44.169   4.191   9.082  0.00  0.00    +0.000 C 
BRANCH  10  14
ATOM     11  C   UNL     1      47.253   1.994   7.102  0.00  0.00    +0.000 A 
ATOM     12  C   UNL     1      46.453   1.317   8.016  0.00  0.00    +0.000 A 
ATOM     13  C   UNL     1      45.444   2.007   8.687  0.00  0.00    +0.000 A 
ATOM     14  C   UNL     1      45.267   3.369   8.443  0.00  0.00    +0.000 A 
ATOM     15  N   UNL     1      46.041   4.032   7.542  0.00  0.00    +0.000 NA
ATOM     16  C   UNL     1      47.007   3.338   6.898  0.00  0.00    +0.000 A 
ENDBRANCH  10  14
ENDBRANCH   1  10
TORSDOF 2
ENDMDL
MODEL 2
REMARK VINA RESULT:    -6.787      1.251      2.600
REMARK INTER + INTRA:          -7.941
REMARK INTER:                  -7.607
REMARK INTRA:                  -0.333
REMARK UNBOUND:                -0.361
REMARK  Name = 
REMARK  2 active torsions:
REMARK  status: ('A' for Active; 'I' for Inactive)
REMARK    1  A    between atoms: C_4  and  C_5
REMARK    2  A    between atoms: C_5  and  N_6
REMARK                            x       y       z     vdW  Elec       q    Type
REMARK                         _______ _______ _______ _____ _____    ______ ____
ROOT
ATOM      1  N   UNL     1      45.036   4.511   9.410  0.00  0.00    +0.000 N 
ATOM      2  C   UNL     1      45.921   5.562   9.496  0.00  0.00    +0.000 A 
ATOM      3  C   UNL     1      45.944   5.987  10.807  0.00  0.00    +0.000 A 
ATOM      4  C   UNL     1      45.075   5.146  11.542  0.00  0.00    +0.000 A 
ATOM      5  N   UNL     1      44.747   5.202  12.855  0.00  0.00    +0.000 NA
ATOM      6  C   UNL     1      43.888   4.244  13.261  0.00  0.00    +0.000 A 
ATOM      7  C   UNL     1      43.378   3.225  12.469  0.00  0.00    +0.000 A 
ATOM      8  C   UNL     1      43.726   3.170  11.123  0.00  0.00    +0.000 A 
ATOM      9  C   UNL     1      44.570   4.185  10.666  0.00  0.00    +0.000 A 
ENDROOT
BRANCH   1  10
ATOM     10  C   UNL     1      44.631   3.864   8.167  0.00  0.00    +0.000 C 
BRANCH  10  14
ATOM     11  C   UNL     1      47.742   1.417   6.556  0.00  0.00    +0.000 A 
ATOM     12  C   UNL     1      47.476   2.630   5.931  0.00  0.00    +0.000 A 
ATOM     13  C   UNL     1      46.460   3.448   6.425  0.00  0.00    +0.000 A 
ATOM     14  C   UNL     1      45.716   3.025   7.528  0.00  0.00    +0.000 A 
ATOM     15  N   UNL     1      45.981   1.845   8.149  0.00  0.00    +0.000 NA
ATOM     16  C   UNL     1      46.977   1.074   7.655  0.00  0.00    +0.000 A 
ENDBRANCH  10  14
ENDBRANCH   1  10
TORSDOF 2
ENDMDL
MODEL 3
REMARK VINA RESULT:    -6.774      1.404      1.880
REMARK INTER + INTRA:          -7.926
REMARK INTER:                  -7.527
REMARK INTRA:                  -0.399
REMARK UNBOUND:                -0.361
REMARK  Name = 
REMARK  2 active torsions:
REMARK  status: ('A' for Active; 'I' for Inactive)
REMARK    1  A    between atoms: C_4  and  C_5
REMARK    2  A    between atoms: C_5  and  N_6
REMARK                            x       y       z     vdW  Elec       q    Type
REMARK                         _______ _______ _______ _____ _____    ______ ____
ROOT
ATOM      1  N   UNL     1      44.883   3.871  11.444  0.00  0.00    +0.000 N 
ATOM      2  C   UNL     1      45.541   3.138  12.406  0.00  0.00    +0.000 A 
ATOM      3  C   UNL     1      46.164   4.025  13.258  0.00  0.00    +0.000 A 
ATOM      4  C   UNL     1      45.844   5.332  12.820  0.00  0.00    +0.000 A 
ATOM      5  N   UNL     1      46.257   6.520  13.320  0.00  0.00    +0.000 NA
ATOM      6  C   UNL     1      45.764   7.601  12.679  0.00  0.00    +0.000 A 
ATOM      7  C   UNL     1      44.870   7.576  11.619  0.00  0.00    +0.000 A 
ATOM      8  C   UNL     1      44.445   6.351  11.115  0.00  0.00    +0.000 A 
ATOM      9  C   UNL     1      44.985   5.216  11.727  0.00  0.00    +0.000 A 
ENDROOT
BRANCH   1  10
ATOM     10  C   UNL     1      44.207   3.303  10.283  0.00  0.00    +0.000 C 
BRANCH  10  14
ATOM     11  C   UNL     1      46.887   2.358   7.092  0.00  0.00    +0.000 A 
ATOM     12  C   UNL     1      46.474   3.679   7.228  0.00  0.00    +0.000 A 
ATOM     13  C   UNL     1      45.592   4.019   8.253  0.00  0.00    +0.000 A 
ATOM     14  C   UNL     1      45.125   3.024   9.112  0.00  0.00    +0.000 A 
ATOM     15  N   UNL     1      45.534   1.733   8.989  0.00  0.00    +0.000 NA
ATOM     16  C   UNL     1      46.397   1.431   7.991  0.00  0.00    +0.000 A 
ENDBRANCH  10  14
ENDBRANCH   1  10
TORSDOF 2
ENDMDL
MODEL 4
REMARK VINA RESULT:    -6.556      1.461      2.088
REMARK INTER + INTRA:          -7.683
REMARK INTER:                  -7.326
REMARK INTRA:                  -0.356
REMARK UNBOUND:                -0.361
REMARK  Name = 
REMARK  2 active torsions:
REMARK  status: ('A' for Active; 'I' for Inactive)
REMARK    1  A    between atoms: C_4  and  C_5
REMARK    2  A    between atoms: C_5  and  N_6
REMARK                            x       y       z     vdW  Elec       q    Type
REMARK                         _______ _______ _______ _____ _____    ______ ____
ROOT
ATOM      1  N   UNL     1      45.439   5.227  11.987  0.00  0.00    +0.000 N 
ATOM      2  C   UNL     1      45.191   4.457  13.101  0.00  0.00    +0.000 A 
ATOM      3  C   UNL     1      46.225   4.657  13.990  0.00  0.00    +0.000 A 
ATOM      4  C   UNL     1      47.105   5.602  13.413  0.00  0.00    +0.000 A 
ATOM      5  N   UNL     1      48.275   6.081  13.900  0.00  0.00    +0.000 NA
ATOM      6  C   UNL     1      48.883   6.988  13.107  0.00  0.00    +0.000 A 
ATOM      7  C   UNL     1      48.390   7.474  11.905  0.00  0.00    +0.000 A 
ATOM      8  C   UNL     1      47.183   6.983  11.416  0.00  0.00    +0.000 A 
ATOM      9  C   UNL     1      46.562   6.000  12.192  0.00  0.00    +0.000 A 
ENDROOT
BRANCH   1  10
ATOM     10  C   UNL     1      44.647   5.200  10.763  0.00  0.00    +0.000 C 
BRANCH  10  14
ATOM     11  C   UNL     1      46.042   2.591   7.680  0.00  0.00    +0.000 A 
ATOM     12  C   UNL     1      45.405   2.023   8.778  0.00  0.00    +0.000 A 
ATOM     13  C   UNL     1      44.947   2.845   9.806  0.00  0.00    +0.000 A 
ATOM     14  C   UNL     1      45.152   4.223   9.724  0.00  0.00    +0.000 A 
ATOM     15  N   UNL     1      45.765   4.784   8.648  0.00  0.00    +0.000 NA
ATOM     16  C   UNL     1      46.193   3.964   7.660  0.00  0.00    +0.000 A 
ENDBRANCH  10  14
ENDBRANCH   1  10
TORSDOF 2
ENDMDL
MODEL 5
REMARK VINA RESULT:    -6.382      1.775      5.680
REMARK INTER + INTRA:          -7.488
REMARK INTER:                  -7.305
REMARK INTRA:                  -0.184
REMARK UNBOUND:                -0.361
REMARK  Name = 
REMARK  2 active torsions:
REMARK  status: ('A' for Active; 'I' for Inactive)
REMARK    1  A    between atoms: C_4  and  C_5
REMARK    2  A    between atoms: C_5  and  N_6
REMARK                            x       y       z     vdW  Elec       q    Type
REMARK                         _______ _______ _______ _____ _____    ______ ____
ROOT
ATOM      1  N   UNL     1      45.101   3.102   9.050  0.00  0.00    +0.000 N 
ATOM      2  C   UNL     1      45.234   4.433   8.725  0.00  0.00    +0.000 A 
ATOM      3  C   UNL     1      46.228   4.537   7.776  0.00  0.00    +0.000 A 
ATOM      4  C   UNL     1      46.684   3.228   7.493  0.00  0.00    +0.000 A 
ATOM      5  N   UNL     1      47.674   2.836   6.655  0.00  0.00    +0.000 NA
ATOM      6  C   UNL     1      47.865   1.501   6.599  0.00  0.00    +0.000 A 
ATOM      7  C   UNL     1      47.120   0.546   7.275  0.00  0.00    +0.000 A 
ATOM      8  C   UNL     1      46.101   0.957   8.128  0.00  0.00    +0.000 A 
ATOM      9  C   UNL     1      45.920   2.338   8.247  0.00  0.00    +0.000 A 
ENDROOT
BRANCH   1  10
ATOM     10  C   UNL     1      44.241   2.586  10.110  0.00  0.00    +0.000 C 
BRANCH  10  14
ATOM     11  C   UNL     1      43.497   5.454  13.189  0.00  0.00    +0.000 A 
ATOM     12  C   UNL     1      44.684   4.731  13.243  0.00  0.00    +0.000 A 
ATOM     13  C   UNL     1      44.953   3.781  12.259  0.00  0.00    +0.000 A 
ATOM     14  C   UNL     1      44.017   3.558  11.248  0.00  0.00    +0.000 A 
ATOM     15  N   UNL     1      42.860   4.270  11.186  0.00  0.00    +0.000 NA
ATOM     16  C   UNL     1      42.628   5.193  12.147  0.00  0.00    +0.000 A 
ENDBRANCH  10  14
ENDBRANCH   1  10
TORSDOF 2
ENDMDL
MODEL 6
REMARK VINA RESULT:    -6.289      1.302      2.100
REMARK INTER + INTRA:          -7.385
REMARK INTER:                  -7.062
REMARK INTRA:                  -0.322
REMARK UNBOUND:                -0.361
REMARK  Name = 
REMARK  2 active torsions:
REMARK  status: ('A' for Active; 'I' for Inactive)
REMARK    1  A    between atoms: C_4  and  C_5
REMARK    2  A    between atoms: C_5  and  N_6
REMARK                            x       y       z     vdW  Elec       q    Type
REMARK                         _______ _______ _______ _____ _____    ______ ____
ROOT
ATOM      1  N   UNL     1      44.972   5.478  11.140  0.00  0.00    +0.000 N 
ATOM      2  C   UNL     1      45.022   6.852  11.084  0.00  0.00    +0.000 A 
ATOM      3  C   UNL     1      45.748   7.292  12.170  0.00  0.00    +0.000 A 
ATOM      4  C   UNL     1      46.179   6.149  12.884  0.00  0.00    +0.000 A 
ATOM      5  N   UNL     1      46.888   6.084  14.036  0.00  0.00    +0.000 NA
ATOM      6  C   UNL     1      47.152   4.832  14.464  0.00  0.00    +0.000 A 
ATOM      7  C   UNL     1      46.801   3.661  13.808  0.00  0.00    +0.000 A 
ATOM      8  C   UNL     1      46.079   3.736  12.621  0.00  0.00    +0.000 A 
ATOM      9  C   UNL     1      45.745   5.022  12.186  0.00  0.00    +0.000 A 
ENDROOT
BRANCH   1  10
ATOM     10  C   UNL     1      44.190   4.636  10.241  0.00  0.00    +0.000 C 
BRANCH  10  14
ATOM     11  C   UNL     1      46.516   2.450   7.401  0.00  0.00    +0.000 A 
ATOM     12  C   UNL     1      45.832   1.732   8.375  0.00  0.00    +0.000 A 
ATOM     13  C   UNL     1      45.072   2.415   9.323  0.00  0.00    +0.000 A 
ATOM     14  C   UNL     1      45.026   3.809   9.289  0.00  0.00    +0.000 A 
ATOM     15  N   UNL     1      45.686   4.515   8.331  0.00  0.00    +0.000 NA
ATOM     16  C   UNL     1      46.409   3.827   7.418  0.00  0.00    +0.000 A 
ENDBRANCH  10  14
ENDBRANCH   1  10
TORSDOF 2
ENDMDL
MODEL 7
REMARK VINA RESULT:    -5.832      1.688      5.042
REMARK INTER + INTRA:          -6.874
REMARK INTER:                  -6.584
REMARK INTRA:                  -0.291
REMARK UNBOUND:                -0.361
REMARK  Name = 
REMARK  2 active torsions:
REMARK  status: ('A' for Active; 'I' for Inactive)
REMARK    1  A    between atoms: C_4  and  C_5
REMARK    2  A    between atoms: C_5  and  N_6
REMARK                            x       y       z     vdW  Elec       q    Type
REMARK                         _______ _______ _______ _____ _____    ______ ____
ROOT
ATOM      1  N   UNL     1      44.068   4.690  11.820  0.00  0.00    +0.000 N 
ATOM      2  C   UNL     1      43.462   3.680  12.532  0.00  0.00    +0.000 A 
ATOM      3  C   UNL     1      43.409   2.567  11.721  0.00  0.00    +0.000 A 
ATOM      4  C   UNL     1      44.034   2.902  10.497  0.00  0.00    +0.000 A 
ATOM      5  N   UNL     1      44.187   2.143   9.386  0.00  0.00    +0.000 NA
ATOM      6  C   UNL     1      44.841   2.754   8.375  0.00  0.00    +0.000 A 
ATOM      7  C   UNL     1      45.380   4.031   8.413  0.00  0.00    +0.000 A 
ATOM      8  C   UNL     1      45.225   4.801   9.561  0.00  0.00    +0.000 A 
ATOM      9  C   UNL     1      44.502   4.212  10.603  0.00  0.00    +0.000 A 
ENDROOT
BRANCH   1  10
ATOM     10  C   UNL     1      44.200   6.068  12.279  0.00  0.00    +0.000 C 
BRANCH  10  14
ATOM     11  C   UNL     1      48.231   7.220  13.106  0.00  0.00    +0.000 A 
ATOM     12  C   UNL     1      47.480   8.033  12.265  0.00  0.00    +0.000 A 
ATOM     13  C   UNL     1      46.164   7.681  11.967  0.00  0.00    +0.000 A 
ATOM     14  C   UNL     1      45.631   6.508  12.503  0.00  0.00    +0.000 A 
ATOM     15  N   UNL     1      46.360   5.715  13.334  0.00  0.00    +0.000 NA
ATOM     16  C   UNL     1      47.631   6.085  13.615  0.00  0.00    +0.000 A 
ENDBRANCH  10  14
ENDBRANCH   1  10
TORSDOF 2
ENDMDL
MODEL 8
REMARK VINA RESULT:    -5.099      3.239      6.284
REMARK INTER + INTRA:          -6.056
REMARK INTER:                  -5.710
REMARK INTRA:                  -0.346
REMARK UNBOUND:                -0.361
REMARK  Name = 
REMARK  2 active torsions:
REMARK  status: ('A' for Active; 'I' for Inactive)
REMARK    1  A    between atoms: C_4  and  C_5
REMARK    2  A    between atoms: C_5  and  N_6
REMARK                            x       y       z     vdW  Elec       q    Type
REMARK                         _______ _______ _______ _____ _____    ______ ____
ROOT
ATOM      1  N   UNL     1      46.356   5.956  12.781  0.00  0.00    +0.000 N 
ATOM      2  C   UNL     1      46.008   7.278  12.620  0.00  0.00    +0.000 A 
ATOM      3  C   UNL     1      44.758   7.316  12.040  0.00  0.00    +0.000 A 
ATOM      4  C   UNL     1      44.324   5.979  11.878  0.00  0.00    +0.000 A 
ATOM      5  N   UNL     1      43.178   5.520  11.320  0.00  0.00    +0.000 NA
ATOM      6  C   UNL     1      43.052   4.177  11.322  0.00  0.00    +0.000 A 
ATOM      7  C   UNL     1      43.954   3.279  11.873  0.00  0.00    +0.000 A 
ATOM      8  C   UNL     1      45.125   3.759  12.452  0.00  0.00    +0.000 A 
ATOM      9  C   UNL     1      45.305   5.145  12.412  0.00  0.00    +0.000 A 
ENDROOT
BRANCH   1  10
ATOM     10  C   UNL     1      47.658   5.489  13.245  0.00  0.00    +0.000 C 
BRANCH  10  14
ATOM     11  C   UNL     1      48.143   5.145  17.477  0.00  0.00    +0.000 A 
ATOM     12  C   UNL     1      47.301   4.239  16.840  0.00  0.00    +0.000 A 
ATOM     13  C   UNL     1      47.113   4.330  15.461  0.00  0.00    +0.000 A 
ATOM     14  C   UNL     1      47.759   5.341  14.748  0.00  0.00    +0.000 A 
ATOM     15  N   UNL     1      48.590   6.222  15.365  0.00  0.00    +0.000 NA
ATOM     16  C   UNL     1      48.762   6.106  16.702  0.00  0.00    +0.000 A 
ENDBRANCH  10  14
ENDBRANCH   1  10
TORSDOF 2
ENDMDL
MODEL 9
REMARK VINA RESULT:    -5.019      2.799      4.901
REMARK INTER + INTRA:          -5.966
REMARK INTER:                  -5.693
REMARK INTRA:                  -0.273
REMARK UNBOUND:                -0.361
REMARK  Name = 
REMARK  2 active torsions:
REMARK  status: ('A' for Active; 'I' for Inactive)
REMARK    1  A    between atoms: C_4  and  C_5
REMARK    2  A    between atoms: C_5  and  N_6
REMARK                            x       y       z     vdW  Elec       q    Type
REMARK                         _______ _______ _______ _____ _____    ______ ____
ROOT
ATOM      1  N   UNL     1      46.401   7.099  12.606  0.00  0.00    +0.000 N 
ATOM      2  C   UNL     1      45.270   7.864  12.784  0.00  0.00    +0.000 A 
ATOM      3  C   UNL     1      45.611   9.180  12.558  0.00  0.00    +0.000 A 
ATOM      4  C   UNL     1      46.979   9.208  12.198  0.00  0.00    +0.000 A 
ATOM      5  N   UNL     1      47.763  10.278  11.921  0.00  0.00    +0.000 NA
ATOM      6  C   UNL     1      49.038   9.972  11.601  0.00  0.00    +0.000 A 
ATOM      7  C   UNL     1      49.562   8.691  11.497  0.00  0.00    +0.000 A 
ATOM      8  C   UNL     1      48.749   7.598  11.776  0.00  0.00    +0.000 A 
ATOM      9  C   UNL     1      47.438   7.892  12.165  0.00  0.00    +0.000 A 
ENDROOT
BRANCH   1  10
ATOM     10  C   UNL     1      46.489   5.669  12.877  0.00  0.00    +0.000 C 
BRANCH  10  14
ATOM     11  C   UNL     1      43.398   3.216  11.235  0.00  0.00    +0.000 A 
ATOM     12  C   UNL     1      44.119   4.028  10.365  0.00  0.00    +0.000 A 
ATOM     13  C   UNL     1      45.128   4.848  10.870  0.00  0.00    +0.000 A 
ATOM     14  C   UNL     1      45.383   4.853  12.242  0.00  0.00    +0.000 A 
ATOM     15  N   UNL     1      44.688   4.053  13.094  0.00  0.00    +0.000 NA
ATOM     16  C   UNL     1      43.720   3.261  12.578  0.00  0.00    +0.000 A 
ENDBRANCH  10  14
ENDBRANCH   1  10
TORSDOF 2
ENDMDL
