MODEL 1
REMARK VINA RESULT:    -8.918      0.000      0.000
REMARK INTER + INTRA:         -12.540
REMARK INTER:                 -11.524
REMARK INTRA:                  -1.016
REMARK UNBOUND:                -1.016
REMARK  Name = 
REMARK  5 active torsions:
REMARK  status: ('A' for Active; 'I' for Inactive)
REMARK    1  A    between atoms: C_2  and  C_4
REMARK    2  A    between atoms: C_7  and  O_8
REMARK    3  A    between atoms: O_8  and  C_9
REMARK    4  A    between atoms: C_9  and  C_10
REMARK    5  A    between atoms: C_15  and  C_16
REMARK                            x       y       z     vdW  Elec       q    Type
REMARK                         _______ _______ _______ _____ _____    ______ ____
ROOT
ATOM      1  C   UNL     1      43.497   4.520  11.290  0.00  0.00    +0.000 C 
ENDROOT
BRANCH   1   2
ATOM      2  C   UNL     1      44.788   4.838  12.003  0.00  0.00    +0.000 A 
ATOM      3  C   UNL     1      45.424   3.875  12.791  0.00  0.00    +0.000 A 
ATOM      4  C   UNL     1      46.609   4.195  13.437  0.00  0.00    +0.000 A 
ATOM      5  F   UNL     1      47.220   3.267  14.186  0.00  0.00    +0.000 F 
ATOM      6  C   UNL     1      47.188   5.454  13.303  0.00  0.00    +0.000 A 
ATOM      7  C   UNL     1      46.600   6.437  12.491  0.00  0.00    +0.000 A 
ATOM      8  C   UNL     1      45.378   6.110  11.870  0.00  0.00    +0.000 A 
BRANCH   7   9
ATOM      9  C   UNL     1      47.272   7.730  12.235  0.00  0.00    +0.000 A 
ATOM     10  C   UNL     1      48.624   7.793  11.866  0.00  0.00    +0.000 A 
ATOM     11  C   UNL     1      49.223   9.011  11.556  0.00  0.00    +0.000 A 
ATOM     12  C   UNL     1      48.455  10.156  11.621  0.00  0.00    +0.000 A 
ATOM     13  N   UNL     1      47.160  10.160  11.987  0.00  0.00    +0.000 NA
ATOM     14  C   UNL     1      46.605   8.955  12.286  0.00  0.00    +0.000 A 
ENDBRANCH   7   9
ENDBRANCH   1   2
BRANCH   1  15
ATOM     15  O   UNL     1      43.698   4.713   9.891  0.00  0.00    +0.000 OA
BRANCH  15  19
ATOM     16  C   UNL     1      46.357   2.263   7.820  0.00  0.00    +0.000 A 
ATOM     17  C   UNL     1      45.465   1.668   8.719  0.00  0.00    +0.000 A 
ATOM     18  C   UNL     1      44.555   2.455   9.433  0.00  0.00    +0.000 A 
ATOM     19  C   UNL     1      44.533   3.840   9.257  0.00  0.00    +0.000 A 
ATOM     20  C   UNL     1      45.436   4.431   8.369  0.00  0.00    +0.000 A 
ATOM     21  C   UNL     1      46.350   3.652   7.657  0.00  0.00    +0.000 A 
BRANCH  16  23
ATOM     22  N   UNL     1      48.414   2.117   6.531  0.00  0.00    +0.000 N 
ATOM     23  C   UNL     1      47.330   1.458   7.041  0.00  0.00    +0.000 C 
ATOM     24  O   UNL     1      47.195   0.248   6.889  0.00  0.00    +0.000 OA
ATOM     25  H   UNL     1      49.126   1.537   6.105  0.00  0.00    +0.000 HD
ATOM     26  H   UNL     1      48.691   3.032   6.857  0.00  0.00    +0.000 HD
ENDBRANCH  16  23
ENDBRANCH  15  19
ENDBRANCH   1  15
TORSDOF 5
ENDMDL
MODEL 2
REMARK VINA RESULT:    -8.479      2.500      3.630
REMARK INTER + INTRA:         -11.974
REMARK INTER:                 -11.006
REMARK INTRA:                  -0.968
REMARK UNBOUND:                -1.016
REMARK  Name = 
REMARK  5 active torsions:
REMARK  status: ('A' for Active; 'I' for Inactive)
REMARK    1  A    between atoms: C_2  and  C_4
REMARK    2  A    between atoms: C_7  and  O_8
REMARK    3  A    between atoms: O_8  and  C_9
REMARK    4  A    between atoms: C_9  and  C_10
REMARK    5  A    between atoms: C_15  and  C_16
REMARK                            x       y       z     vdW  Elec       q    Type
REMARK                         _______ _______ _______ _____ _____    ______ ____
ROOT
ATOM      1  C   UNL     1      43.435   4.533  11.307  0.00  0.00    +0.000 C 
ENDROOT
BRANCH   1   2
ATOM      2  C   UNL     1      44.573   5.312  11.919  0.00  0.00    +0.000 A 
ATOM      3  C   UNL     1      44.835   6.625  11.520  0.00  0.00    +0.000 A 
ATOM      4  C   UNL     1      45.888   7.318  12.098  0.00  0.00    +0.000 A 
ATOM      5  F   UNL     1      46.132   8.578  11.719  0.00  0.00    +0.000 F 
ATOM      6  C   UNL     1      46.683   6.735  13.081  0.00  0.00    +0.000 A 
ATOM      7  C   UNL     1      46.430   5.430  13.537  0.00  0.00    +0.000 A 
ATOM      8  C   UNL     1      45.378   4.727  12.915  0.00  0.00    +0.000 A 
BRANCH   7   9
ATOM      9  C   UNL     1      47.181   4.849  14.671  0.00  0.00    +0.000 A 
ATOM     10  C   UNL     1      47.817   5.662  15.622  0.00  0.00    +0.000 A 
ATOM     11  C   UNL     1      48.457   5.103  16.725  0.00  0.00    +0.000 A 
ATOM     12  C   UNL     1      48.451   3.729  16.861  0.00  0.00    +0.000 A 
ATOM     13  N   UNL     1      47.874   2.898  15.972  0.00  0.00    +0.000 NA
ATOM     14  C   UNL     1      47.260   3.476  14.905  0.00  0.00    +0.000 A 
ENDBRANCH   7   9
ENDBRANCH   1   2
BRANCH   1  15
ATOM     15  O   UNL     1      43.521   4.654   9.888  0.00  0.00    +0.000 OA
BRANCH  15  19
ATOM     16  C   UNL     1      46.391   2.451   7.823  0.00  0.00    +0.000 A 
ATOM     17  C   UNL     1      45.481   1.764   8.635  0.00  0.00    +0.000 A 
ATOM     18  C   UNL     1      44.500   2.467   9.344  0.00  0.00    +0.000 A 
ATOM     19  C   UNL     1      44.426   3.858   9.250  0.00  0.00    +0.000 A 
ATOM     20  C   UNL     1      45.347   4.541   8.450  0.00  0.00    +0.000 A 
ATOM     21  C   UNL     1      46.330   3.846   7.744  0.00  0.00    +0.000 A 
BRANCH  16  23
ATOM     22  N   UNL     1      48.413   2.502   6.473  0.00  0.00    +0.000 N 
ATOM     23  C   UNL     1      47.439   1.738   7.052  0.00  0.00    +0.000 C 
ATOM     24  O   UNL     1      47.459   0.514   6.965  0.00  0.00    +0.000 OA
ATOM     25  H   UNL     1      49.182   1.997   6.051  0.00  0.00    +0.000 HD
ATOM     26  H   UNL     1      48.577   3.461   6.743  0.00  0.00    +0.000 HD
ENDBRANCH  16  23
ENDBRANCH  15  19
ENDBRANCH   1  15
TORSDOF 5
ENDMDL
MODEL 3
REMARK VINA RESULT:    -8.379      1.574      1.871
REMARK INTER + INTRA:         -11.845
REMARK INTER:                 -10.852
REMARK INTRA:                  -0.993
REMARK UNBOUND:                -1.016
REMARK  Name = 
REMARK  5 active torsions:
REMARK  status: ('A' for Active; 'I' for Inactive)
REMARK    1  A    between atoms: C_2  and  C_4
REMARK    2  A    between atoms: C_7  and  O_8
REMARK    3  A    between atoms: O_8  and  C_9
REMARK    4  A    between atoms: C_9  and  C_10
REMARK    5  A    between atoms: C_15  and  C_16
REMARK                            x       y       z     vdW  Elec       q    Type
REMARK                         _______ _______ _______ _____ _____    ______ ____
ROOT
ATOM      1  C   UNL     1      43.711   3.515  11.742  0.00  0.00    +0.000 C 
ENDROOT
BRANCH   1   2
ATOM      2  C   UNL     1      44.650   4.582  12.248  0.00  0.00    +0.000 A 
ATOM      3  C   UNL     1      45.767   4.243  13.015  0.00  0.00    +0.000 A 
ATOM      4  C   UNL     1      46.614   5.245  13.469  0.00  0.00    +0.000 A 
ATOM      5  F   UNL     1      47.688   4.916  14.198  0.00  0.00    +0.000 F 
ATOM      6  C   UNL     1      46.380   6.582  13.161  0.00  0.00    +0.000 A 
ATOM      7  C   UNL     1      45.289   6.960  12.362  0.00  0.00    +0.000 A 
ATOM      8  C   UNL     1      44.419   5.936  11.938  0.00  0.00    +0.000 A 
BRANCH   7   9
ATOM      9  C   UNL     1      45.105   8.359  11.918  0.00  0.00    +0.000 A 
ATOM     10  C   UNL     1      45.986   9.376  12.318  0.00  0.00    +0.000 A 
ATOM     11  C   UNL     1      45.844  10.674  11.833  0.00  0.00    +0.000 A 
ATOM     12  C   UNL     1      44.816  10.936  10.950  0.00  0.00    +0.000 A 
ATOM     13  N   UNL     1      43.929  10.007  10.546  0.00  0.00    +0.000 NA
ATOM     14  C   UNL     1      44.094   8.750  11.040  0.00  0.00    +0.000 A 
ENDBRANCH   7   9
ENDBRANCH   1   2
BRANCH   1  15
ATOM     15  O   UNL     1      43.479   3.743  10.353  0.00  0.00    +0.000 OA
BRANCH  15  19
ATOM     16  C   UNL     1      46.398   2.609   7.604  0.00  0.00    +0.000 A 
ATOM     17  C   UNL     1      45.815   1.619   8.403  0.00  0.00    +0.000 A 
ATOM     18  C   UNL     1      44.830   1.958   9.338  0.00  0.00    +0.000 A 
ATOM     19  C   UNL     1      44.425   3.287   9.482  0.00  0.00    +0.000 A 
ATOM     20  C   UNL     1      45.021   4.274   8.693  0.00  0.00    +0.000 A 
ATOM     21  C   UNL     1      46.008   3.943   7.762  0.00  0.00    +0.000 A 
BRANCH  16  23
ATOM     22  N   UNL     1      47.393   2.965   5.415  0.00  0.00    +0.000 N 
ATOM     23  C   UNL     1      47.440   2.285   6.599  0.00  0.00    +0.000 C 
ATOM     24  O   UNL     1      48.329   1.470   6.827  0.00  0.00    +0.000 OA
ATOM     25  H   UNL     1      48.175   2.820   4.788  0.00  0.00    +0.000 HD
ATOM     26  H   UNL     1      46.855   3.812   5.300  0.00  0.00    +0.000 HD
ENDBRANCH  16  23
ENDBRANCH  15  19
ENDBRANCH   1  15
TORSDOF 5
ENDMDL
MODEL 4
REMARK VINA RESULT:    -7.949      2.162      2.577
REMARK INTER + INTRA:         -11.289
REMARK INTER:                 -10.521
REMARK INTRA:                  -0.769
REMARK UNBOUND:                -1.016
REMARK  Name = 
REMARK  5 active torsions:
REMARK  status: ('A' for Active; 'I' for Inactive)
REMARK    1  A    between atoms: C_2  and  C_4
REMARK    2  A    between atoms: C_7  and  O_8
REMARK    3  A    between atoms: O_8  and  C_9
REMARK    4  A    between atoms: C_9  and  C_10
REMARK    5  A    between atoms: C_15  and  C_16
REMARK                            x       y       z     vdW  Elec       q    Type
REMARK                         _______ _______ _______ _____ _____    ______ ____
ROOT
ATOM      1  C   UNL     1      44.225   3.714  11.692  0.00  0.00    +0.000 C 
ENDROOT
BRANCH   1   2
ATOM      2  C   UNL     1      44.694   5.148  11.720  0.00  0.00    +0.000 A 
ATOM      3  C   UNL     1      43.825   6.190  11.387  0.00  0.00    +0.000 A 
ATOM      4  C   UNL     1      44.284   7.499  11.421  0.00  0.00    +0.000 A 
ATOM      5  F   UNL     1      43.446   8.496  11.108  0.00  0.00    +0.000 F 
ATOM      6  C   UNL     1      45.591   7.797  11.793  0.00  0.00    +0.000 A 
ATOM      7  C   UNL     1      46.485   6.781  12.170  0.00  0.00    +0.000 A 
ATOM      8  C   UNL     1      46.016   5.454  12.098  0.00  0.00    +0.000 A 
BRANCH   7   9
ATOM      9  C   UNL     1      47.832   7.094  12.694  0.00  0.00    +0.000 A 
ATOM     10  C   UNL     1      48.762   7.824  11.937  0.00  0.00    +0.000 A 
ATOM     11  C   UNL     1      49.999   8.175  12.472  0.00  0.00    +0.000 A 
ATOM     12  C   UNL     1      50.290   7.787  13.765  0.00  0.00    +0.000 A 
ATOM     13  N   UNL     1      49.446   7.071  14.532  0.00  0.00    +0.000 NA
ATOM     14  C   UNL     1      48.248   6.742  13.979  0.00  0.00    +0.000 A 
ENDBRANCH   7   9
ENDBRANCH   1   2
BRANCH   1  15
ATOM     15  O   UNL     1      43.716   3.435  10.389  0.00  0.00    +0.000 OA
BRANCH  15  19
ATOM     16  C   UNL     1      46.485   2.736   7.355  0.00  0.00    +0.000 A 
ATOM     17  C   UNL     1      46.088   1.659   8.156  0.00  0.00    +0.000 A 
ATOM     18  C   UNL     1      45.159   1.850   9.184  0.00  0.00    +0.000 A 
ATOM     19  C   UNL     1      44.625   3.119   9.421  0.00  0.00    +0.000 A 
ATOM     20  C   UNL     1      45.036   4.194   8.629  0.00  0.00    +0.000 A 
ATOM     21  C   UNL     1      45.965   4.010   7.603  0.00  0.00    +0.000 A 
BRANCH  16  23
ATOM     22  N   UNL     1      48.702   2.098   6.585  0.00  0.00    +0.000 N 
ATOM     23  C   UNL     1      47.462   2.567   6.251  0.00  0.00    +0.000 C 
ATOM     24  O   UNL     1      47.166   2.799   5.083  0.00  0.00    +0.000 OA
ATOM     25  H   UNL     1      49.317   1.878   5.812  0.00  0.00    +0.000 HD
ATOM     26  H   UNL     1      48.889   1.652   7.472  0.00  0.00    +0.000 HD
ENDBRANCH  16  23
ENDBRANCH  15  19
ENDBRANCH   1  15
TORSDOF 5
ENDMDL
MODEL 5
REMARK VINA RESULT:    -7.496      2.668      6.866
REMARK INTER + INTRA:         -10.704
REMARK INTER:                  -9.805
REMARK INTRA:                  -0.899
REMARK UNBOUND:                -1.016
REMARK  Name = 
REMARK  5 active torsions:
REMARK  status: ('A' for Active; 'I' for Inactive)
REMARK    1  A    between atoms: C_2  and  C_4
REMARK    2  A    between atoms: C_7  and  O_8
REMARK    3  A    between atoms: O_8  and  C_9
REMARK    4  A    between atoms: C_9  and  C_10
REMARK    5  A    between atoms: C_15  and  C_16
REMARK                            x       y       z     vdW  Elec       q    Type
REMARK                         _______ _______ _______ _____ _____    ______ ____
ROOT
ATOM      1  C   UNL     1      44.487   6.620  11.050  0.00  0.00    +0.000 C 
ENDROOT
BRANCH   1   2
ATOM      2  C   UNL     1      44.470   5.149  10.714  0.00  0.00    +0.000 A 
ATOM      3  C   UNL     1      43.667   4.263  11.435  0.00  0.00    +0.000 A 
ATOM      4  C   UNL     1      43.671   2.915  11.107  0.00  0.00    +0.000 A 
ATOM      5  F   UNL     1      42.894   2.069  11.795  0.00  0.00    +0.000 F 
ATOM      6  C   UNL     1      44.450   2.429  10.061  0.00  0.00    +0.000 A 
ATOM      7  C   UNL     1      45.244   3.293   9.288  0.00  0.00    +0.000 A 
ATOM      8  C   UNL     1      45.256   4.654   9.656  0.00  0.00    +0.000 A 
BRANCH   7   9
ATOM      9  C   UNL     1      45.971   2.812   8.094  0.00  0.00    +0.000 A 
ATOM     10  C   UNL     1      46.249   3.662   7.013  0.00  0.00    +0.000 A 
ATOM     11  C   UNL     1      46.999   3.216   5.928  0.00  0.00    +0.000 A 
ATOM     12  C   UNL     1      47.464   1.916   5.941  0.00  0.00    +0.000 A 
ATOM     13  N   UNL     1      47.214   1.049   6.941  0.00  0.00    +0.000 NA
ATOM     14  C   UNL     1      46.476   1.515   7.984  0.00  0.00    +0.000 A 
ENDBRANCH   7   9
ENDBRANCH   1   2
BRANCH   1  15
ATOM     15  O   UNL     1      45.061   6.778  12.346  0.00  0.00    +0.000 OA
BRANCH  15  19
ATOM     16  C   UNL     1      49.075   7.866  12.605  0.00  0.00    +0.000 A 
ATOM     17  C   UNL     1      48.143   8.840  12.229  0.00  0.00    +0.000 A 
ATOM     18  C   UNL     1      46.786   8.517  12.131  0.00  0.00    +0.000 A 
ATOM     19  C   UNL     1      46.352   7.217  12.405  0.00  0.00    +0.000 A 
ATOM     20  C   UNL     1      47.287   6.245  12.766  0.00  0.00    +0.000 A 
ATOM     21  C   UNL     1      48.644   6.561  12.861  0.00  0.00    +0.000 A 
BRANCH  16  23
ATOM     22  N   UNL     1      51.144   7.796  13.881  0.00  0.00    +0.000 N 
ATOM     23  C   UNL     1      50.520   8.177  12.726  0.00  0.00    +0.000 C 
ATOM     24  O   UNL     1      51.145   8.717  11.818  0.00  0.00    +0.000 OA
ATOM     25  H   UNL     1      52.150   7.907  13.901  0.00  0.00    +0.000 HD
ATOM     26  H   UNL     1      50.736   7.126  14.518  0.00  0.00    +0.000 HD
ENDBRANCH  16  23
ENDBRANCH  15  19
ENDBRANCH   1  15
TORSDOF 5
ENDMDL
MODEL 6
REMARK VINA RESULT:    -7.435      3.072      7.152
REMARK INTER + INTRA:         -10.625
REMARK INTER:                 -10.167
REMARK INTRA:                  -0.458
REMARK UNBOUND:                -1.016
REMARK  Name = 
REMARK  5 active torsions:
REMARK  status: ('A' for Active; 'I' for Inactive)
REMARK    1  A    between atoms: C_2  and  C_4
REMARK    2  A    between atoms: C_7  and  O_8
REMARK    3  A    between atoms: O_8  and  C_9
REMARK    4  A    between atoms: C_9  and  C_10
REMARK    5  A    between atoms: C_15  and  C_16
REMARK                            x       y       z     vdW  Elec       q    Type
REMARK                         _______ _______ _______ _____ _____    ______ ____
ROOT
ATOM      1  C   UNL     1      45.135   6.559  11.221  0.00  0.00    +0.000 C 
ENDROOT
BRANCH   1   2
ATOM      2  C   UNL     1      44.871   5.139  10.785  0.00  0.00    +0.000 A 
ATOM      3  C   UNL     1      43.910   4.360  11.432  0.00  0.00    +0.000 A 
ATOM      4  C   UNL     1      43.689   3.057  11.011  0.00  0.00    +0.000 A 
ATOM      5  F   UNL     1      42.761   2.315  11.629  0.00  0.00    +0.000 F 
ATOM      6  C   UNL     1      44.398   2.513   9.943  0.00  0.00    +0.000 A 
ATOM      7  C   UNL     1      45.347   3.276   9.243  0.00  0.00    +0.000 A 
ATOM      8  C   UNL     1      45.585   4.586   9.704  0.00  0.00    +0.000 A 
BRANCH   7   9
ATOM      9  C   UNL     1      46.009   2.755   8.027  0.00  0.00    +0.000 A 
ATOM     10  C   UNL     1      46.241   3.574   6.911  0.00  0.00    +0.000 A 
ATOM     11  C   UNL     1      46.932   3.091   5.803  0.00  0.00    +0.000 A 
ATOM     12  C   UNL     1      47.383   1.787   5.827  0.00  0.00    +0.000 A 
ATOM     13  N   UNL     1      47.175   0.949   6.860  0.00  0.00    +0.000 NA
ATOM     14  C   UNL     1      46.495   1.450   7.926  0.00  0.00    +0.000 A 
ENDBRANCH   7   9
ENDBRANCH   1   2
BRANCH   1  15
ATOM     15  O   UNL     1      46.530   6.696  11.486  0.00  0.00    +0.000 OA
BRANCH  15  19
ATOM     16  C   UNL     1      48.032   5.748  15.255  0.00  0.00    +0.000 A 
ATOM     17  C   UNL     1      47.098   4.883  14.673  0.00  0.00    +0.000 A 
ATOM     18  C   UNL     1      46.570   5.164  13.408  0.00  0.00    +0.000 A 
ATOM     19  C   UNL     1      46.969   6.312  12.719  0.00  0.00    +0.000 A 
ATOM     20  C   UNL     1      47.890   7.180  13.310  0.00  0.00    +0.000 A 
ATOM     21  C   UNL     1      48.418   6.908  14.574  0.00  0.00    +0.000 A 
BRANCH  16  23
ATOM     22  N   UNL     1      47.759   5.463  17.654  0.00  0.00    +0.000 N 
ATOM     23  C   UNL     1      48.618   5.477  16.590  0.00  0.00    +0.000 C 
ATOM     24  O   UNL     1      49.813   5.239  16.738  0.00  0.00    +0.000 OA
ATOM     25  H   UNL     1      48.151   5.162  18.537  0.00  0.00    +0.000 HD
ATOM     26  H   UNL     1      46.758   5.388  17.538  0.00  0.00    +0.000 HD
ENDBRANCH  16  23
ENDBRANCH  15  19
ENDBRANCH   1  15
TORSDOF 5
ENDMDL
MODEL 7
REMARK VINA RESULT:    -7.216      3.679      7.369
REMARK INTER + INTRA:         -10.342
REMARK INTER:                  -9.620
REMARK INTRA:                  -0.722
REMARK UNBOUND:                -1.016
REMARK  Name = 
REMARK  5 active torsions:
REMARK  status: ('A' for Active; 'I' for Inactive)
REMARK    1  A    between atoms: C_2  and  C_4
REMARK    2  A    between atoms: C_7  and  O_8
REMARK    3  A    between atoms: O_8  and  C_9
REMARK    4  A    between atoms: C_9  and  C_10
REMARK    5  A    between atoms: C_15  and  C_16
REMARK                            x       y       z     vdW  Elec       q    Type
REMARK                         _______ _______ _______ _____ _____    ______ ____
ROOT
ATOM      1  C   UNL     1      46.156   7.285  12.609  0.00  0.00    +0.000 C 
ENDROOT
BRANCH   1   2
ATOM      2  C   UNL     1      45.225   6.352  11.874  0.00  0.00    +0.000 A 
ATOM      3  C   UNL     1      43.847   6.397  12.099  0.00  0.00    +0.000 A 
ATOM      4  C   UNL     1      43.014   5.527  11.410  0.00  0.00    +0.000 A 
ATOM      5  F   UNL     1      41.692   5.578  11.622  0.00  0.00    +0.000 F 
ATOM      6  C   UNL     1      43.523   4.618  10.488  0.00  0.00    +0.000 A 
ATOM      7  C   UNL     1      44.898   4.566  10.207  0.00  0.00    +0.000 A 
ATOM      8  C   UNL     1      45.735   5.432  10.939  0.00  0.00    +0.000 A 
BRANCH   7   9
ATOM      9  C   UNL     1      45.435   3.699   9.136  0.00  0.00    +0.000 A 
ATOM     10  C   UNL     1      46.040   4.239   7.990  0.00  0.00    +0.000 A 
ATOM     11  C   UNL     1      46.607   3.410   7.025  0.00  0.00    +0.000 A 
ATOM     12  C   UNL     1      46.561   2.045   7.222  0.00  0.00    +0.000 A 
ATOM     13  N   UNL     1      45.979   1.469   8.291  0.00  0.00    +0.000 NA
ATOM     14  C   UNL     1      45.432   2.305   9.213  0.00  0.00    +0.000 A 
ENDBRANCH   7   9
ENDBRANCH   1   2
BRANCH   1  15
ATOM     15  O   UNL     1      47.412   6.629  12.771  0.00  0.00    +0.000 OA
BRANCH  15  19
ATOM     16  C   UNL     1      48.126   4.912  16.500  0.00  0.00    +0.000 A 
ATOM     17  C   UNL     1      48.763   6.119  16.188  0.00  0.00    +0.000 A 
ATOM     18  C   UNL     1      48.549   6.729  14.948  0.00  0.00    +0.000 A 
ATOM     19  C   UNL     1      47.701   6.136  14.009  0.00  0.00    +0.000 A 
ATOM     20  C   UNL     1      47.079   4.924  14.319  0.00  0.00    +0.000 A 
ATOM     21  C   UNL     1      47.292   4.308  15.554  0.00  0.00    +0.000 A 
BRANCH  16  23
ATOM     22  N   UNL     1      47.363   4.439  18.759  0.00  0.00    +0.000 N 
ATOM     23  C   UNL     1      48.324   4.242  17.808  0.00  0.00    +0.000 C 
ATOM     24  O   UNL     1      49.287   3.511  18.022  0.00  0.00    +0.000 OA
ATOM     25  H   UNL     1      47.451   3.884  19.601  0.00  0.00    +0.000 HD
ATOM     26  H   UNL     1      46.448   4.803  18.534  0.00  0.00    +0.000 HD
ENDBRANCH  16  23
ENDBRANCH  15  19
ENDBRANCH   1  15
TORSDOF 5
ENDMDL
MODEL 8
REMARK VINA RESULT:    -6.711      4.765      8.200
REMARK INTER + INTRA:          -9.689
REMARK INTER:                  -8.920
REMARK INTRA:                  -0.769
REMARK UNBOUND:                -1.016
REMARK  Name = 
REMARK  5 active torsions:
REMARK  status: ('A' for Active; 'I' for Inactive)
REMARK    1  A    between atoms: C_2  and  C_4
REMARK    2  A    between atoms: C_7  and  O_8
REMARK    3  A    between atoms: O_8  and  C_9
REMARK    4  A    between atoms: C_9  and  C_10
REMARK    5  A    between atoms: C_15  and  C_16
REMARK                            x       y       z     vdW  Elec       q    Type
REMARK                         _______ _______ _______ _____ _____    ______ ____
ROOT
ATOM      1  C   UNL     1      48.264   7.023  13.986  0.00  0.00    +0.000 C 
ENDROOT
BRANCH   1   2
ATOM      2  C   UNL     1      47.050   7.173  13.103  0.00  0.00    +0.000 A 
ATOM      3  C   UNL     1      46.354   8.383  13.046  0.00  0.00    +0.000 A 
ATOM      4  C   UNL     1      45.240   8.493  12.226  0.00  0.00    +0.000 A 
ATOM      5  F   UNL     1      44.580   9.657  12.169  0.00  0.00    +0.000 F 
ATOM      6  C   UNL     1      44.809   7.424  11.446  0.00  0.00    +0.000 A 
ATOM      7  C   UNL     1      45.503   6.202  11.447  0.00  0.00    +0.000 A 
ATOM      8  C   UNL     1      46.611   6.095  12.311  0.00  0.00    +0.000 A 
BRANCH   7   9
ATOM      9  C   UNL     1      45.135   5.106  10.526  0.00  0.00    +0.000 A 
ATOM     10  C   UNL     1      45.656   5.036   9.224  0.00  0.00    +0.000 A 
ATOM     11  C   UNL     1      45.359   3.959   8.394  0.00  0.00    +0.000 A 
ATOM     12  C   UNL     1      44.541   2.959   8.881  0.00  0.00    +0.000 A 
ATOM     13  N   UNL     1      43.998   2.980  10.113  0.00  0.00    +0.000 NA
ATOM     14  C   UNL     1      44.304   4.047  10.898  0.00  0.00    +0.000 A 
ENDBRANCH   7   9
ENDBRANCH   1   2
BRANCH   1  15
ATOM     15  O   UNL     1      48.331   5.669  14.430  0.00  0.00    +0.000 OA
BRANCH  15  19
ATOM     16  C   UNL     1      48.118   5.214  18.567  0.00  0.00    +0.000 A 
ATOM     17  C   UNL     1      47.450   4.286  17.759  0.00  0.00    +0.000 A 
ATOM     18  C   UNL     1      47.498   4.402  16.365  0.00  0.00    +0.000 A 
ATOM     19  C   UNL     1      48.209   5.447  15.771  0.00  0.00    +0.000 A 
ATOM     20  C   UNL     1      48.862   6.380  16.581  0.00  0.00    +0.000 A 
ATOM     21  C   UNL     1      48.814   6.272  17.973  0.00  0.00    +0.000 A 
BRANCH  16  23
ATOM     22  N   UNL     1      48.576   3.964  20.601  0.00  0.00    +0.000 N 
ATOM     23  C   UNL     1      48.095   5.117  20.046  0.00  0.00    +0.000 C 
ATOM     24  O   UNL     1      47.699   6.041  20.750  0.00  0.00    +0.000 OA
ATOM     25  H   UNL     1      48.662   3.958  21.610  0.00  0.00    +0.000 HD
ATOM     26  H   UNL     1      49.144   3.311  20.081  0.00  0.00    +0.000 HD
ENDBRANCH  16  23
ENDBRANCH  15  19
ENDBRANCH   1  15
TORSDOF 5
ENDMDL
MODEL 9
REMARK VINA RESULT:    -6.641      5.390      7.824
REMARK INTER + INTRA:          -9.599
REMARK INTER:                  -8.743
REMARK INTRA:                  -0.856
REMARK UNBOUND:                -1.016
REMARK  Name = 
REMARK  5 active torsions:
REMARK  status: ('A' for Active; 'I' for Inactive)
REMARK    1  A    between atoms: C_2  and  C_4
REMARK    2  A    between atoms: C_7  and  O_8
REMARK    3  A    between atoms: O_8  and  C_9
REMARK    4  A    between atoms: C_9  and  C_10
REMARK    5  A    between atoms: C_15  and  C_16
REMARK                            x       y       z     vdW  Elec       q    Type
REMARK                         _______ _______ _______ _____ _____    ______ ____
ROOT
ATOM      1  C   UNL     1      48.733   6.614  15.896  0.00  0.00    +0.000 C 
ENDROOT
BRANCH   1   2
ATOM      2  C   UNL     1      48.278   6.650  14.458  0.00  0.00    +0.000 A 
ATOM      3  C   UNL     1      49.023   7.329  13.491  0.00  0.00    +0.000 A 
ATOM      4  C   UNL     1      48.581   7.347  12.176  0.00  0.00    +0.000 A 
ATOM      5  F   UNL     1      49.301   7.993  11.250  0.00  0.00    +0.000 F 
ATOM      6  C   UNL     1      47.415   6.688  11.797  0.00  0.00    +0.000 A 
ATOM      7  C   UNL     1      46.657   5.964  12.731  0.00  0.00    +0.000 A 
ATOM      8  C   UNL     1      47.100   5.984  14.069  0.00  0.00    +0.000 A 
BRANCH   7   9
ATOM      9  C   UNL     1      45.493   5.152  12.318  0.00  0.00    +0.000 A 
ATOM     10  C   UNL     1      45.019   5.170  10.997  0.00  0.00    +0.000 A 
ATOM     11  C   UNL     1      43.968   4.344  10.604  0.00  0.00    +0.000 A 
ATOM     12  C   UNL     1      43.404   3.506  11.545  0.00  0.00    +0.000 A 
ATOM     13  N   UNL     1      43.804   3.459  12.830  0.00  0.00    +0.000 NA
ATOM     14  C   UNL     1      44.829   4.280  13.182  0.00  0.00    +0.000 A 
ENDBRANCH   7   9
ENDBRANCH   1   2
BRANCH   1  15
ATOM     15  O   UNL     1      48.171   5.458  16.515  0.00  0.00    +0.000 OA
BRANCH  15  19
ATOM     16  C   UNL     1      50.953   2.488  17.410  0.00  0.00    +0.000 A 
ATOM     17  C   UNL     1      49.687   2.100  16.956  0.00  0.00    +0.000 A 
ATOM     18  C   UNL     1      48.725   3.066  16.643  0.00  0.00    +0.000 A 
ATOM     19  C   UNL     1      49.020   4.424  16.786  0.00  0.00    +0.000 A 
ATOM     20  C   UNL     1      50.279   4.806  17.254  0.00  0.00    +0.000 A 
ATOM     21  C   UNL     1      51.243   3.846  17.572  0.00  0.00    +0.000 A 
BRANCH  16  23
ATOM     22  N   UNL     1      51.575   0.248  18.122  0.00  0.00    +0.000 N 
ATOM     23  C   UNL     1      51.999   1.491  17.744  0.00  0.00    +0.000 C 
ATOM     24  O   UNL     1      53.195   1.751  17.652  0.00  0.00    +0.000 OA
ATOM     25  H   UNL     1      52.297  -0.454  18.233  0.00  0.00    +0.000 HD
ATOM     26  H   UNL     1      50.633  -0.075  17.952  0.00  0.00    +0.000 HD
ENDBRANCH  16  23
ENDBRANCH  15  19
ENDBRANCH   1  15
TORSDOF 5
ENDMDL
