MODEL 1
REMARK VINA RESULT:    -8.297      0.000      0.000
REMARK INTER + INTRA:         -11.108
REMARK INTER:                 -10.237
REMARK INTRA:                  -0.871
REMARK UNBOUND:                -0.871
REMARK  Name = 
REMARK  4 active torsions:
REMARK  status: ('A' for Active; 'I' for Inactive)
REMARK    1  A    between atoms: C_2  and  C_3
REMARK    2  A    between atoms: C_6  and  C_7
REMARK    3  A    between atoms: C_7  and  C_8
REMARK    4  A    between atoms: C_12  and  C_13
REMARK                            x       y       z     vdW  Elec       q    Type
REMARK                         _______ _______ _______ _____ _____    ______ ____
ROOT
ATOM      1  C   UNL     1      45.406   4.937  11.961  0.00  0.00    +0.000 A 
ATOM      2  C   UNL     1      45.717   4.247  13.143  0.00  0.00    +0.000 A 
ATOM      3  C   UNL     1      46.726   4.697  13.992  0.00  0.00    +0.000 A 
ATOM      4  C   UNL     1      47.447   5.850  13.675  0.00  0.00    +0.000 A 
ATOM      5  C   UNL     1      47.142   6.603  12.530  0.00  0.00    +0.000 A 
ATOM      6  C   UNL     1      46.082   6.149  11.723  0.00  0.00    +0.000 A 
ENDROOT
BRANCH   5   7
ATOM      7  C   UNL     1      47.966   7.757  12.102  0.00  0.00    +0.000 A 
ATOM      8  C   UNL     1      47.436   9.062  12.095  0.00  0.00    +0.000 A 
ATOM      9  C   UNL     1      48.229  10.171  11.785  0.00  0.00    +0.000 A 
ATOM     10  C   UNL     1      49.576  10.001  11.482  0.00  0.00    +0.000 A 
ATOM     11  C   UNL     1      50.124   8.721  11.473  0.00  0.00    +0.000 A 
ATOM     12  C   UNL     1      49.324   7.614  11.769  0.00  0.00    +0.000 A 
ENDBRANCH   5   7
BRANCH   1  13
ATOM     13  C   UNL     1      44.537   4.301  10.872  0.00  0.00    +0.000 C 
ATOM     14  C   UNL     1      43.240   3.624  11.333  0.00  0.00    +0.000 C 
ATOM     15  C   UNL     1      43.166   4.962  10.678  0.00  0.00    +0.000 C 
BRANCH  13  19
ATOM     16  C   UNL     1      46.654   2.653   7.416  0.00  0.00    +0.000 A 
ATOM     17  C   UNL     1      46.535   4.038   7.579  0.00  0.00    +0.000 A 
ATOM     18  C   UNL     1      45.824   4.564   8.667  0.00  0.00    +0.000 A 
ATOM     19  C   UNL     1      45.221   3.731   9.627  0.00  0.00    +0.000 A 
ATOM     20  C   UNL     1      45.332   2.343   9.426  0.00  0.00    +0.000 A 
ATOM     21  C   UNL     1      46.041   1.808   8.342  0.00  0.00    +0.000 A 
BRANCH  16  23
ATOM     22  N   UNL     1      48.021   1.677   5.436  0.00  0.00    +0.000 NA
ATOM     23  C   UNL     1      47.407   2.112   6.319  0.00  0.00    +0.000 C 
ENDBRANCH  16  23
ENDBRANCH  13  19
ENDBRANCH   1  13
TORSDOF 4
ENDMDL
MODEL 2
REMARK VINA RESULT:    -7.483      1.815      3.282
REMARK INTER + INTRA:         -10.104
REMARK INTER:                  -9.354
REMARK INTRA:                  -0.750
REMARK UNBOUND:                -0.871
REMARK  Name = 
REMARK  4 active torsions:
REMARK  status: ('A' for Active; 'I' for Inactive)
REMARK    1  A    between atoms: C_2  and  C_3
REMARK    2  A    between atoms: C_6  and  C_7
REMARK    3  A    between atoms: C_7  and  C_8
REMARK    4  A    between atoms: C_12  and  C_13
REMARK                            x       y       z     vdW  Elec       q    Type
REMARK                         _______ _______ _______ _____ _____    ______ ____
ROOT
ATOM      1  C   UNL     1      45.489   5.562  11.487  0.00  0.00    +0.000 A 
ATOM      2  C   UNL     1      45.240   6.935  11.338  0.00  0.00    +0.000 A 
ATOM      3  C   UNL     1      45.738   7.859  12.254  0.00  0.00    +0.000 A 
ATOM      4  C   UNL     1      46.498   7.426  13.342  0.00  0.00    +0.000 A 
ATOM      5  C   UNL     1      46.816   6.070  13.510  0.00  0.00    +0.000 A 
ATOM      6  C   UNL     1      46.341   5.170  12.536  0.00  0.00    +0.000 A 
ENDROOT
BRANCH   5   7
ATOM      7  C   UNL     1      47.513   5.565  14.716  0.00  0.00    +0.000 A 
ATOM      8  C   UNL     1      48.487   6.345  15.369  0.00  0.00    +0.000 A 
ATOM      9  C   UNL     1      49.083   5.922  16.560  0.00  0.00    +0.000 A 
ATOM     10  C   UNL     1      48.711   4.711  17.134  0.00  0.00    +0.000 A 
ATOM     11  C   UNL     1      47.755   3.916  16.506  0.00  0.00    +0.000 A 
ATOM     12  C   UNL     1      47.174   4.336  15.307  0.00  0.00    +0.000 A 
ENDBRANCH   5   7
BRANCH   1  13
ATOM     13  C   UNL     1      44.702   4.518  10.689  0.00  0.00    +0.000 C 
ATOM     14  C   UNL     1      43.707   3.656  11.475  0.00  0.00    +0.000 C 
ATOM     15  C   UNL     1      43.190   4.765  10.624  0.00  0.00    +0.000 C 
BRANCH  13  19
ATOM     16  C   UNL     1      46.747   2.691   7.280  0.00  0.00    +0.000 A 
ATOM     17  C   UNL     1      46.654   4.083   7.386  0.00  0.00    +0.000 A 
ATOM     18  C   UNL     1      45.966   4.666   8.459  0.00  0.00    +0.000 A 
ATOM     19  C   UNL     1      45.361   3.885   9.461  0.00  0.00    +0.000 A 
ATOM     20  C   UNL     1      45.445   2.488   9.316  0.00  0.00    +0.000 A 
ATOM     21  C   UNL     1      46.131   1.896   8.248  0.00  0.00    +0.000 A 
BRANCH  16  23
ATOM     22  N   UNL     1      48.065   1.613   5.320  0.00  0.00    +0.000 NA
ATOM     23  C   UNL     1      47.476   2.091   6.198  0.00  0.00    +0.000 C 
ENDBRANCH  16  23
ENDBRANCH  13  19
ENDBRANCH   1  13
TORSDOF 4
ENDMDL
MODEL 3
REMARK VINA RESULT:    -7.432      1.256      2.131
REMARK INTER + INTRA:         -10.041
REMARK INTER:                  -9.220
REMARK INTRA:                  -0.821
REMARK UNBOUND:                -0.871
REMARK  Name = 
REMARK  4 active torsions:
REMARK  status: ('A' for Active; 'I' for Inactive)
REMARK    1  A    between atoms: C_2  and  C_3
REMARK    2  A    between atoms: C_6  and  C_7
REMARK    3  A    between atoms: C_7  and  C_8
REMARK    4  A    between atoms: C_12  and  C_13
REMARK                            x       y       z     vdW  Elec       q    Type
REMARK                         _______ _______ _______ _____ _____    ______ ____
ROOT
ATOM      1  C   UNL     1      45.289   5.108  12.350  0.00  0.00    +0.000 A 
ATOM      2  C   UNL     1      46.227   4.574  13.246  0.00  0.00    +0.000 A 
ATOM      3  C   UNL     1      47.143   5.394  13.901  0.00  0.00    +0.000 A 
ATOM      4  C   UNL     1      47.138   6.772  13.671  0.00  0.00    +0.000 A 
ATOM      5  C   UNL     1      46.189   7.362  12.822  0.00  0.00    +0.000 A 
ATOM      6  C   UNL     1      45.245   6.509  12.218  0.00  0.00    +0.000 A 
ENDROOT
BRANCH   5   7
ATOM      7  C   UNL     1      46.236   8.798  12.462  0.00  0.00    +0.000 A 
ATOM      8  C   UNL     1      47.465   9.470  12.323  0.00  0.00    +0.000 A 
ATOM      9  C   UNL     1      47.527  10.798  11.892  0.00  0.00    +0.000 A 
ATOM     10  C   UNL     1      46.358  11.484  11.580  0.00  0.00    +0.000 A 
ATOM     11  C   UNL     1      45.127  10.846  11.716  0.00  0.00    +0.000 A 
ATOM     12  C   UNL     1      45.070   9.524  12.162  0.00  0.00    +0.000 A 
ENDBRANCH   5   7
BRANCH   1  13
ATOM     13  C   UNL     1      44.498   4.209  11.394  0.00  0.00    +0.000 C 
ATOM     14  C   UNL     1      43.556   3.182  12.035  0.00  0.00    +0.000 C 
ATOM     15  C   UNL     1      42.978   4.416  11.430  0.00  0.00    +0.000 C 
BRANCH  13  19
ATOM     16  C   UNL     1      46.114   3.197   7.457  0.00  0.00    +0.000 A 
ATOM     17  C   UNL     1      45.640   2.192   8.307  0.00  0.00    +0.000 A 
ATOM     18  C   UNL     1      45.157   2.514   9.583  0.00  0.00    +0.000 A 
ATOM     19  C   UNL     1      45.122   3.842  10.046  0.00  0.00    +0.000 A 
ATOM     20  C   UNL     1      45.629   4.830   9.183  0.00  0.00    +0.000 A 
ATOM     21  C   UNL     1      46.113   4.519   7.906  0.00  0.00    +0.000 A 
BRANCH  16  23
ATOM     22  N   UNL     1      46.953   2.616   5.070  0.00  0.00    +0.000 NA
ATOM     23  C   UNL     1      46.581   2.874   6.138  0.00  0.00    +0.000 C 
ENDBRANCH  16  23
ENDBRANCH  13  19
ENDBRANCH   1  13
TORSDOF 4
ENDMDL
MODEL 4
REMARK VINA RESULT:    -6.967      3.187      7.137
REMARK INTER + INTRA:          -9.467
REMARK INTER:                  -8.998
REMARK INTRA:                  -0.469
REMARK UNBOUND:                -0.871
REMARK  Name = 
REMARK  4 active torsions:
REMARK  status: ('A' for Active; 'I' for Inactive)
REMARK    1  A    between atoms: C_2  and  C_3
REMARK    2  A    between atoms: C_6  and  C_7
REMARK    3  A    between atoms: C_7  and  C_8
REMARK    4  A    between atoms: C_12  and  C_13
REMARK                            x       y       z     vdW  Elec       q    Type
REMARK                         _______ _______ _______ _____ _____    ______ ____
ROOT
ATOM      1  C   UNL     1      45.392   5.677  12.054  0.00  0.00    +0.000 A 
ATOM      2  C   UNL     1      44.010   5.880  12.174  0.00  0.00    +0.000 A 
ATOM      3  C   UNL     1      43.117   5.293  11.279  0.00  0.00    +0.000 A 
ATOM      4  C   UNL     1      43.592   4.488  10.242  0.00  0.00    +0.000 A 
ATOM      5  C   UNL     1      44.962   4.214  10.107  0.00  0.00    +0.000 A 
ATOM      6  C   UNL     1      45.830   4.780  11.060  0.00  0.00    +0.000 A 
ENDROOT
BRANCH   5   7
ATOM      7  C   UNL     1      45.508   3.469   8.949  0.00  0.00    +0.000 A 
ATOM      8  C   UNL     1      46.016   4.148   7.825  0.00  0.00    +0.000 A 
ATOM      9  C   UNL     1      46.620   3.462   6.768  0.00  0.00    +0.000 A 
ATOM     10  C   UNL     1      46.740   2.077   6.815  0.00  0.00    +0.000 A 
ATOM     11  C   UNL     1      46.239   1.379   7.911  0.00  0.00    +0.000 A 
ATOM     12  C   UNL     1      45.622   2.068   8.958  0.00  0.00    +0.000 A 
ENDBRANCH   5   7
BRANCH   1  13
ATOM     13  C   UNL     1      46.396   6.549  12.815  0.00  0.00    +0.000 C 
ATOM     14  C   UNL     1      47.155   7.600  11.996  0.00  0.00    +0.000 C 
ATOM     15  C   UNL     1      46.034   8.038  12.876  0.00  0.00    +0.000 C 
BRANCH  13  19
ATOM     16  C   UNL     1      48.312   4.923  16.396  0.00  0.00    +0.000 A 
ATOM     17  C   UNL     1      48.760   6.126  15.838  0.00  0.00    +0.000 A 
ATOM     18  C   UNL     1      48.170   6.626  14.669  0.00  0.00    +0.000 A 
ATOM     19  C   UNL     1      47.113   5.953  14.029  0.00  0.00    +0.000 A 
ATOM     20  C   UNL     1      46.700   4.733  14.594  0.00  0.00    +0.000 A 
ATOM     21  C   UNL     1      47.283   4.225  15.763  0.00  0.00    +0.000 A 
BRANCH  16  23
ATOM     22  N   UNL     1      49.372   4.021  18.588  0.00  0.00    +0.000 NA
ATOM     23  C   UNL     1      48.895   4.424  17.610  0.00  0.00    +0.000 C 
ENDBRANCH  16  23
ENDBRANCH  13  19
ENDBRANCH   1  13
TORSDOF 4
ENDMDL
MODEL 5
REMARK VINA RESULT:    -6.029      2.599      6.817
REMARK INTER + INTRA:          -8.310
REMARK INTER:                  -7.748
REMARK INTRA:                  -0.562
REMARK UNBOUND:                -0.871
REMARK  Name = 
REMARK  4 active torsions:
REMARK  status: ('A' for Active; 'I' for Inactive)
REMARK    1  A    between atoms: C_2  and  C_3
REMARK    2  A    between atoms: C_6  and  C_7
REMARK    3  A    between atoms: C_7  and  C_8
REMARK    4  A    between atoms: C_12  and  C_13
REMARK                            x       y       z     vdW  Elec       q    Type
REMARK                         _______ _______ _______ _____ _____    ______ ____
ROOT
ATOM      1  C   UNL     1      45.383   4.510  11.811  0.00  0.00    +0.000 A 
ATOM      2  C   UNL     1      44.128   5.114  11.642  0.00  0.00    +0.000 A 
ATOM      3  C   UNL     1      43.445   5.023  10.431  0.00  0.00    +0.000 A 
ATOM      4  C   UNL     1      44.006   4.324   9.360  0.00  0.00    +0.000 A 
ATOM      5  C   UNL     1      45.236   3.662   9.493  0.00  0.00    +0.000 A 
ATOM      6  C   UNL     1      45.873   3.729  10.747  0.00  0.00    +0.000 A 
ENDROOT
BRANCH   5   7
ATOM      7  C   UNL     1      45.915   3.018   8.345  0.00  0.00    +0.000 A 
ATOM      8  C   UNL     1      46.223   1.644   8.362  0.00  0.00    +0.000 A 
ATOM      9  C   UNL     1      46.776   1.005   7.249  0.00  0.00    +0.000 A 
ATOM     10  C   UNL     1      47.027   1.725   6.086  0.00  0.00    +0.000 A 
ATOM     11  C   UNL     1      46.740   3.087   6.044  0.00  0.00    +0.000 A 
ATOM     12  C   UNL     1      46.202   3.725   7.164  0.00  0.00    +0.000 A 
ENDBRANCH   5   7
BRANCH   1  13
ATOM     13  C   UNL     1      46.280   4.856  13.004  0.00  0.00    +0.000 C 
ATOM     14  C   UNL     1      45.765   4.457  14.392  0.00  0.00    +0.000 C 
ATOM     15  C   UNL     1      46.842   3.643  13.757  0.00  0.00    +0.000 C 
BRANCH  13  19
ATOM     16  C   UNL     1      48.957   8.300  12.669  0.00  0.00    +0.000 A 
ATOM     17  C   UNL     1      48.900   7.561  13.856  0.00  0.00    +0.000 A 
ATOM     18  C   UNL     1      48.015   6.480  13.974  0.00  0.00    +0.000 A 
ATOM     19  C   UNL     1      47.169   6.099  12.916  0.00  0.00    +0.000 A 
ATOM     20  C   UNL     1      47.226   6.875  11.744  0.00  0.00    +0.000 A 
ATOM     21  C   UNL     1      48.108   7.956  11.616  0.00  0.00    +0.000 A 
BRANCH  16  23
ATOM     22  N   UNL     1      50.638  10.263  12.426  0.00  0.00    +0.000 NA
ATOM     23  C   UNL     1      49.884   9.389  12.534  0.00  0.00    +0.000 C 
ENDBRANCH  16  23
ENDBRANCH  13  19
ENDBRANCH   1  13
TORSDOF 4
ENDMDL
MODEL 6
REMARK VINA RESULT:    -5.916      4.121      8.081
REMARK INTER + INTRA:          -8.171
REMARK INTER:                  -7.424
REMARK INTRA:                  -0.747
REMARK UNBOUND:                -0.871
REMARK  Name = 
REMARK  4 active torsions:
REMARK  status: ('A' for Active; 'I' for Inactive)
REMARK    1  A    between atoms: C_2  and  C_3
REMARK    2  A    between atoms: C_6  and  C_7
REMARK    3  A    between atoms: C_7  and  C_8
REMARK    4  A    between atoms: C_12  and  C_13
REMARK                            x       y       z     vdW  Elec       q    Type
REMARK                         _______ _______ _______ _____ _____    ______ ____
ROOT
ATOM      1  C   UNL     1      47.070   7.709  12.627  0.00  0.00    +0.000 A 
ATOM      2  C   UNL     1      46.115   8.737  12.640  0.00  0.00    +0.000 A 
ATOM      3  C   UNL     1      44.895   8.592  11.983  0.00  0.00    +0.000 A 
ATOM      4  C   UNL     1      44.604   7.411  11.297  0.00  0.00    +0.000 A 
ATOM      5  C   UNL     1      45.504   6.335  11.294  0.00  0.00    +0.000 A 
ATOM      6  C   UNL     1      46.704   6.495  12.013  0.00  0.00    +0.000 A 
ENDROOT
BRANCH   5   7
ATOM      7  C   UNL     1      45.281   5.120  10.477  0.00  0.00    +0.000 A 
ATOM      8  C   UNL     1      44.577   4.016  10.996  0.00  0.00    +0.000 A 
ATOM      9  C   UNL     1      44.276   2.904  10.206  0.00  0.00    +0.000 A 
ATOM     10  C   UNL     1      44.665   2.872   8.871  0.00  0.00    +0.000 A 
ATOM     11  C   UNL     1      45.370   3.946   8.333  0.00  0.00    +0.000 A 
ATOM     12  C   UNL     1      45.682   5.049   9.132  0.00  0.00    +0.000 A 
ENDBRANCH   5   7
BRANCH   1  13
ATOM     13  C   UNL     1      48.517   7.959  13.063  0.00  0.00    +0.000 C 
ATOM     14  C   UNL     1      49.616   7.472  12.111  0.00  0.00    +0.000 C 
ATOM     15  C   UNL     1      49.298   8.928  12.167  0.00  0.00    +0.000 C 
BRANCH  13  19
ATOM     16  C   UNL     1      49.301   7.873  17.366  0.00  0.00    +0.000 A 
ATOM     17  C   UNL     1      48.479   8.863  16.816  0.00  0.00    +0.000 A 
ATOM     18  C   UNL     1      48.258   8.911  15.433  0.00  0.00    +0.000 A 
ATOM     19  C   UNL     1      48.840   7.974  14.559  0.00  0.00    +0.000 A 
ATOM     20  C   UNL     1      49.684   7.006  15.133  0.00  0.00    +0.000 A 
ATOM     21  C   UNL     1      49.910   6.949  16.515  0.00  0.00    +0.000 A 
BRANCH  16  23
ATOM     22  N   UNL     1      49.670   7.738  19.933  0.00  0.00    +0.000 NA
ATOM     23  C   UNL     1      49.505   7.802  18.786  0.00  0.00    +0.000 C 
ENDBRANCH  16  23
ENDBRANCH  13  19
ENDBRANCH   1  13
TORSDOF 4
ENDMDL
MODEL 7
REMARK VINA RESULT:    -5.867      2.703      6.858
REMARK INTER + INTRA:          -8.110
REMARK INTER:                  -7.326
REMARK INTRA:                  -0.784
REMARK UNBOUND:                -0.871
REMARK  Name = 
REMARK  4 active torsions:
REMARK  status: ('A' for Active; 'I' for Inactive)
REMARK    1  A    between atoms: C_2  and  C_3
REMARK    2  A    between atoms: C_6  and  C_7
REMARK    3  A    between atoms: C_7  and  C_8
REMARK    4  A    between atoms: C_12  and  C_13
REMARK                            x       y       z     vdW  Elec       q    Type
REMARK                         _______ _______ _______ _____ _____    ______ ____
ROOT
ATOM      1  C   UNL     1      46.897   7.772  12.762  0.00  0.00    +0.000 A 
ATOM      2  C   UNL     1      45.934   8.790  12.694  0.00  0.00    +0.000 A 
ATOM      3  C   UNL     1      44.772   8.630  11.943  0.00  0.00    +0.000 A 
ATOM      4  C   UNL     1      44.548   7.443  11.242  0.00  0.00    +0.000 A 
ATOM      5  C   UNL     1      45.456   6.376  11.316  0.00  0.00    +0.000 A 
ATOM      6  C   UNL     1      46.594   6.552  12.128  0.00  0.00    +0.000 A 
ENDROOT
BRANCH   5   7
ATOM      7  C   UNL     1      45.311   5.155  10.489  0.00  0.00    +0.000 A 
ATOM      8  C   UNL     1      44.669   4.009  10.997  0.00  0.00    +0.000 A 
ATOM      9  C   UNL     1      44.440   2.886  10.198  0.00  0.00    +0.000 A 
ATOM     10  C   UNL     1      44.841   2.885   8.866  0.00  0.00    +0.000 A 
ATOM     11  C   UNL     1      45.486   4.002   8.340  0.00  0.00    +0.000 A 
ATOM     12  C   UNL     1      45.726   5.116   9.148  0.00  0.00    +0.000 A 
ENDBRANCH   5   7
BRANCH   1  13
ATOM     13  C   UNL     1      48.302   8.038  13.310  0.00  0.00    +0.000 C 
ATOM     14  C   UNL     1      48.391   8.604  14.733  0.00  0.00    +0.000 C 
ATOM     15  C   UNL     1      48.701   7.164  14.506  0.00  0.00    +0.000 C 
BRANCH  13  19
ATOM     16  C   UNL     1      51.596   9.133  10.647  0.00  0.00    +0.000 A 
ATOM     17  C   UNL     1      50.852  10.124  11.297  0.00  0.00    +0.000 A 
ATOM     18  C   UNL     1      49.773   9.773  12.120  0.00  0.00    +0.000 A 
ATOM     19  C   UNL     1      49.410   8.430  12.329  0.00  0.00    +0.000 A 
ATOM     20  C   UNL     1      50.157   7.454  11.644  0.00  0.00    +0.000 A 
ATOM     21  C   UNL     1      51.237   7.795  10.820  0.00  0.00    +0.000 A 
BRANCH  16  23
ATOM     22  N   UNL     1      53.632   9.768   9.167  0.00  0.00    +0.000 NA
ATOM     23  C   UNL     1      52.721   9.487   9.827  0.00  0.00    +0.000 C 
ENDBRANCH  16  23
ENDBRANCH  13  19
ENDBRANCH   1  13
TORSDOF 4
ENDMDL
MODEL 8
REMARK VINA RESULT:    -5.839      3.452      6.086
REMARK INTER + INTRA:          -8.076
REMARK INTER:                  -7.416
REMARK INTRA:                  -0.660
REMARK UNBOUND:                -0.871
REMARK  Name = 
REMARK  4 active torsions:
REMARK  status: ('A' for Active; 'I' for Inactive)
REMARK    1  A    between atoms: C_2  and  C_3
REMARK    2  A    between atoms: C_6  and  C_7
REMARK    3  A    between atoms: C_7  and  C_8
REMARK    4  A    between atoms: C_12  and  C_13
REMARK                            x       y       z     vdW  Elec       q    Type
REMARK                         _______ _______ _______ _____ _____    ______ ____
ROOT
ATOM      1  C   UNL     1      48.258   7.923  14.329  0.00  0.00    +0.000 A 
ATOM      2  C   UNL     1      48.037   9.033  15.159  0.00  0.00    +0.000 A 
ATOM      3  C   UNL     1      48.343   8.986  16.517  0.00  0.00    +0.000 A 
ATOM      4  C   UNL     1      48.879   7.823  17.075  0.00  0.00    +0.000 A 
ATOM      5  C   UNL     1      49.165   6.704  16.279  0.00  0.00    +0.000 A 
ATOM      6  C   UNL     1      48.893   6.805  14.901  0.00  0.00    +0.000 A 
ENDROOT
BRANCH   5   7
ATOM      7  C   UNL     1      49.617   5.417  16.859  0.00  0.00    +0.000 A 
ATOM      8  C   UNL     1      48.746   4.313  16.937  0.00  0.00    +0.000 A 
ATOM      9  C   UNL     1      49.186   3.067  17.393  0.00  0.00    +0.000 A 
ATOM     10  C   UNL     1      50.512   2.893  17.774  0.00  0.00    +0.000 A 
ATOM     11  C   UNL     1      51.393   3.971  17.715  0.00  0.00    +0.000 A 
ATOM     12  C   UNL     1      50.945   5.218  17.273  0.00  0.00    +0.000 A 
ENDBRANCH   5   7
BRANCH   1  13
ATOM     13  C   UNL     1      47.647   7.841  12.927  0.00  0.00    +0.000 C 
ATOM     14  C   UNL     1      47.530   9.157  12.148  0.00  0.00    +0.000 C 
ATOM     15  C   UNL     1      48.609   8.195  11.786  0.00  0.00    +0.000 C 
BRANCH  13  19
ATOM     16  C   UNL     1      44.751   4.700  11.984  0.00  0.00    +0.000 A 
ATOM     17  C   UNL     1      44.586   5.992  11.472  0.00  0.00    +0.000 A 
ATOM     18  C   UNL     1      45.494   7.007  11.805  0.00  0.00    +0.000 A 
ATOM     19  C   UNL     1      46.595   6.765  12.647  0.00  0.00    +0.000 A 
ATOM     20  C   UNL     1      46.723   5.466  13.170  0.00  0.00    +0.000 A 
ATOM     21  C   UNL     1      45.821   4.445  12.842  0.00  0.00    +0.000 A 
BRANCH  16  23
ATOM     22  N   UNL     1      43.108   2.803  11.321  0.00  0.00    +0.000 NA
ATOM     23  C   UNL     1      43.840   3.652  11.620  0.00  0.00    +0.000 C 
ENDBRANCH  16  23
ENDBRANCH  13  19
ENDBRANCH   1  13
TORSDOF 4
ENDMDL
MODEL 9
REMARK VINA RESULT:    -5.436      2.807      5.694
REMARK INTER + INTRA:          -7.579
REMARK INTER:                  -6.967
REMARK INTRA:                  -0.611
REMARK UNBOUND:                -0.871
REMARK  Name = 
REMARK  4 active torsions:
REMARK  status: ('A' for Active; 'I' for Inactive)
REMARK    1  A    between atoms: C_2  and  C_3
REMARK    2  A    between atoms: C_6  and  C_7
REMARK    3  A    between atoms: C_7  and  C_8
REMARK    4  A    between atoms: C_12  and  C_13
REMARK                            x       y       z     vdW  Elec       q    Type
REMARK                         _______ _______ _______ _____ _____    ______ ____
ROOT
ATOM      1  C   UNL     1      48.915   8.348  12.159  0.00  0.00    +0.000 A 
ATOM      2  C   UNL     1      48.732   9.699  11.826  0.00  0.00    +0.000 A 
ATOM      3  C   UNL     1      49.719  10.411  11.148  0.00  0.00    +0.000 A 
ATOM      4  C   UNL     1      50.914   9.784  10.788  0.00  0.00    +0.000 A 
ATOM      5  C   UNL     1      51.126   8.423  11.054  0.00  0.00    +0.000 A 
ATOM      6  C   UNL     1      50.086   7.720  11.693  0.00  0.00    +0.000 A 
ENDROOT
BRANCH   5   7
ATOM      7  C   UNL     1      52.426   7.761  10.798  0.00  0.00    +0.000 A 
ATOM      8  C   UNL     1      53.537   8.000  11.630  0.00  0.00    +0.000 A 
ATOM      9  C   UNL     1      54.741   7.312  11.458  0.00  0.00    +0.000 A 
ATOM     10  C   UNL     1      54.860   6.358  10.452  0.00  0.00    +0.000 A 
ATOM     11  C   UNL     1      53.780   6.108   9.609  0.00  0.00    +0.000 A 
ATOM     12  C   UNL     1      52.584   6.810   9.776  0.00  0.00    +0.000 A 
ENDBRANCH   5   7
BRANCH   1  13
ATOM     13  C   UNL     1      47.998   7.644  13.164  0.00  0.00    +0.000 C 
ATOM     14  C   UNL     1      48.515   7.525  14.603  0.00  0.00    +0.000 C 
ATOM     15  C   UNL     1      47.470   8.542  14.290  0.00  0.00    +0.000 C 
BRANCH  13  19
ATOM     16  C   UNL     1      45.197   4.578  11.786  0.00  0.00    +0.000 A 
ATOM     17  C   UNL     1      45.843   4.444  13.020  0.00  0.00    +0.000 A 
ATOM     18  C   UNL     1      46.768   5.408  13.444  0.00  0.00    +0.000 A 
ATOM     19  C   UNL     1      47.070   6.536  12.659  0.00  0.00    +0.000 A 
ATOM     20  C   UNL     1      46.429   6.634  11.411  0.00  0.00    +0.000 A 
ATOM     21  C   UNL     1      45.502   5.676  10.980  0.00  0.00    +0.000 A 
BRANCH  16  23
ATOM     22  N   UNL     1      43.438   2.827  11.026  0.00  0.00    +0.000 NA
ATOM     23  C   UNL     1      44.226   3.608  11.363  0.00  0.00    +0.000 C 
ENDBRANCH  16  23
ENDBRANCH  13  19
ENDBRANCH   1  13
TORSDOF 4
ENDMDL
