MODEL 1
REMARK VINA RESULT:    -7.908      0.000      0.000
REMARK INTER + INTRA:         -11.392
REMARK INTER:                 -10.681
REMARK INTRA:                  -0.710
REMARK UNBOUND:                -0.710
REMARK  Name = 
REMARK  6 active torsions:
REMARK  status: ('A' for Active; 'I' for Inactive)
REMARK    1  A    between atoms: C_2  and  C_25
REMARK    2  A    between atoms: N_3  and  C_4
REMARK    3  A    between atoms: C_4  and  C_5
REMARK    4  A    between atoms: C_8  and  C_9
REMARK    5  A    between atoms: C_9  and  N_10
REMARK    6  A    between atoms: C_11  and  C_13
REMARK                            x       y       z     vdW  Elec       q    Type
REMARK                         _______ _______ _______ _____ _____    ______ ____
ROOT
ATOM      1  C   UNL     1      44.681   5.486  11.335  0.00  0.00    +0.000 A 
ATOM      2  C   UNL     1      45.763   4.966  12.058  0.00  0.00    +0.000 A 
ATOM      3  C   UNL     1      46.632   5.812  12.767  0.00  0.00    +0.000 A 
ATOM      4  C   UNL     1      46.423   7.198  12.792  0.00  0.00    +0.000 A 
ATOM      5  C   UNL     1      45.342   7.717  12.066  0.00  0.00    +0.000 A 
ATOM      6  C   UNL     1      44.475   6.872  11.357  0.00  0.00    +0.000 A 
ENDROOT
BRANCH   1   7
ATOM      7  C   UNL     1      43.771   4.581  10.538  0.00  0.00    +0.000 C 
BRANCH   7  10
ATOM      8  O   UNL     1      45.415   5.045   8.342  0.00  0.00    +0.000 OA
ATOM      9  C   UNL     1      45.298   3.886   8.730  0.00  0.00    +0.000 C 
ATOM     10  N   UNL     1      44.491   3.567   9.805  0.00  0.00    +0.000 N 
ATOM     11  H   UNL     1      44.524   2.622  10.164  0.00  0.00    +0.000 HD
BRANCH   9  12
ATOM     12  C   UNL     1      45.997   2.768   8.103  0.00  0.00    +0.000 A 
ATOM     13  C   UNL     1      45.887   1.424   8.429  0.00  0.00    +0.000 A 
ATOM     14  C   UNL     1      46.735   0.594   7.638  0.00  0.00    +0.000 A 
ATOM     15  C   UNL     1      47.473   1.326   6.736  0.00  0.00    +0.000 A 
ATOM     16  S   UNL     1      47.123   2.995   6.827  0.00  0.00    +0.000 S 
ENDBRANCH   9  12
ENDBRANCH   7  10
ENDBRANCH   1   7
BRANCH   4  17
ATOM     17  C   UNL     1      47.343   8.119  13.564  0.00  0.00    +0.000 C 
BRANCH  17  18
ATOM     18  N   UNL     1      47.755   7.539  14.820  0.00  0.00    +0.000 N 
ATOM     19  C   UNL     1      49.032   7.076  15.027  0.00  0.00    +0.000 C 
ATOM     20  O   UNL     1      49.910   7.157  14.173  0.00  0.00    +0.000 OA
ATOM     21  H   UNL     1      47.015   7.214  15.430  0.00  0.00    +0.000 HD
BRANCH  19  22
ATOM     22  C   UNL     1      49.312   6.531  16.363  0.00  0.00    +0.000 A 
ATOM     23  C   UNL     1      50.147   7.210  17.239  0.00  0.00    +0.000 A 
ATOM     24  S   UNL     1      50.312   6.451  18.758  0.00  0.00    +0.000 S 
ATOM     25  C   UNL     1      49.315   5.157  18.282  0.00  0.00    +0.000 A 
ATOM     26  N   UNL     1      49.062   4.117  19.125  0.00  0.00    +0.000 NA
ATOM     27  C   UNL     1      48.310   3.195  18.626  0.00  0.00    +0.000 A 
ATOM     28  N   UNL     1      47.780   3.222  17.362  0.00  0.00    +0.000 N 
ATOM     29  C   UNL     1      47.974   4.265  16.491  0.00  0.00    +0.000 A 
ATOM     30  O   UNL     1      47.428   4.286  15.394  0.00  0.00    +0.000 OA
ATOM     31  C   UNL     1      48.837   5.317  16.994  0.00  0.00    +0.000 A 
ATOM     32  H   UNL     1      47.180   2.476  17.035  0.00  0.00    +0.000 HD
ENDBRANCH  19  22
ENDBRANCH  17  18
ENDBRANCH   4  17
TORSDOF 6
ENDMDL
MODEL 2
REMARK VINA RESULT:    -7.431      4.828      9.212
REMARK INTER + INTRA:         -10.748
REMARK INTER:                  -9.988
REMARK INTRA:                  -0.760
REMARK UNBOUND:                -0.710
REMARK  Name = 
REMARK  6 active torsions:
REMARK  status: ('A' for Active; 'I' for Inactive)
REMARK    1  A    between atoms: C_2  and  C_25
REMARK    2  A    between atoms: N_3  and  C_4
REMARK    3  A    between atoms: C_4  and  C_5
REMARK    4  A    between atoms: C_8  and  C_9
REMARK    5  A    between atoms: C_9  and  N_10
REMARK    6  A    between atoms: C_11  and  C_13
REMARK                            x       y       z     vdW  Elec       q    Type
REMARK                         _______ _______ _______ _____ _____    ______ ____
ROOT
ATOM      1  C   UNL     1      51.501   3.076  17.728  0.00  0.00    +0.000 A 
ATOM      2  C   UNL     1      50.710   2.048  17.196  0.00  0.00    +0.000 A 
ATOM      3  C   UNL     1      49.336   2.234  16.977  0.00  0.00    +0.000 A 
ATOM      4  C   UNL     1      48.723   3.462  17.258  0.00  0.00    +0.000 A 
ATOM      5  C   UNL     1      49.514   4.489  17.791  0.00  0.00    +0.000 A 
ATOM      6  C   UNL     1      50.886   4.304  18.013  0.00  0.00    +0.000 A 
ENDROOT
BRANCH   1   7
ATOM      7  C   UNL     1      52.970   2.864  18.005  0.00  0.00    +0.000 C 
BRANCH   7  10
ATOM      8  O   UNL     1      54.341   0.933  19.465  0.00  0.00    +0.000 OA
ATOM      9  C   UNL     1      54.127   0.703  18.278  0.00  0.00    +0.000 C 
ATOM     10  N   UNL     1      53.465   1.615  17.478  0.00  0.00    +0.000 N 
ATOM     11  H   UNL     1      53.203   1.330  16.544  0.00  0.00    +0.000 HD
BRANCH   9  12
ATOM     12  C   UNL     1      54.541  -0.536  17.625  0.00  0.00    +0.000 A 
ATOM     13  C   UNL     1      54.852  -0.712  16.285  0.00  0.00    +0.000 A 
ATOM     14  C   UNL     1      55.190  -2.061  15.970  0.00  0.00    +0.000 A 
ATOM     15  C   UNL     1      55.121  -2.878  17.075  0.00  0.00    +0.000 A 
ATOM     16  S   UNL     1      54.680  -2.017  18.483  0.00  0.00    +0.000 S 
ENDBRANCH   9  12
ENDBRANCH   7  10
ENDBRANCH   1   7
BRANCH   4  17
ATOM     17  C   UNL     1      47.245   3.680  17.010  0.00  0.00    +0.000 C 
BRANCH  17  18
ATOM     18  N   UNL     1      47.010   4.614  15.936  0.00  0.00    +0.000 N 
ATOM     19  C   UNL     1      47.093   4.244  14.615  0.00  0.00    +0.000 C 
ATOM     20  O   UNL     1      47.336   3.092  14.266  0.00  0.00    +0.000 OA
ATOM     21  H   UNL     1      47.078   5.597  16.170  0.00  0.00    +0.000 HD
BRANCH  19  22
ATOM     22  C   UNL     1      46.808   5.298  13.631  0.00  0.00    +0.000 A 
ATOM     23  C   UNL     1      47.785   6.222  13.287  0.00  0.00    +0.000 A 
ATOM     24  S   UNL     1      47.287   7.335  12.094  0.00  0.00    +0.000 S 
ATOM     25  C   UNL     1      45.729   6.657  12.031  0.00  0.00    +0.000 A 
ATOM     26  N   UNL     1      44.769   7.171  11.212  0.00  0.00    +0.000 NA
ATOM     27  C   UNL     1      43.628   6.574  11.284  0.00  0.00    +0.000 A 
ATOM     28  N   UNL     1      43.360   5.502  12.094  0.00  0.00    +0.000 N 
ATOM     29  C   UNL     1      44.303   4.924  12.907  0.00  0.00    +0.000 A 
ATOM     30  O   UNL     1      44.045   3.923  13.566  0.00  0.00    +0.000 OA
ATOM     31  C   UNL     1      45.599   5.576  12.885  0.00  0.00    +0.000 A 
ATOM     32  H   UNL     1      42.448   5.063  12.090  0.00  0.00    +0.000 HD
ENDBRANCH  19  22
ENDBRANCH  17  18
ENDBRANCH   4  17
TORSDOF 6
ENDMDL
MODEL 3
REMARK VINA RESULT:    -7.349      2.259      2.589
REMARK INTER + INTRA:         -10.637
REMARK INTER:                  -9.786
REMARK INTRA:                  -0.851
REMARK UNBOUND:                -0.710
REMARK  Name = 
REMARK  6 active torsions:
REMARK  status: ('A' for Active; 'I' for Inactive)
REMARK    1  A    between atoms: C_2  and  C_25
REMARK    2  A    between atoms: N_3  and  C_4
REMARK    3  A    between atoms: C_4  and  C_5
REMARK    4  A    between atoms: C_8  and  C_9
REMARK    5  A    between atoms: C_9  and  N_10
REMARK    6  A    between atoms: C_11  and  C_13
REMARK                            x       y       z     vdW  Elec       q    Type
REMARK                         _______ _______ _______ _____ _____    ______ ____
ROOT
ATOM      1  C   UNL     1      45.338   6.272  11.685  0.00  0.00    +0.000 A 
ATOM      2  C   UNL     1      45.044   7.643  11.668  0.00  0.00    +0.000 A 
ATOM      3  C   UNL     1      45.786   8.549  12.443  0.00  0.00    +0.000 A 
ATOM      4  C   UNL     1      46.857   8.111  13.233  0.00  0.00    +0.000 A 
ATOM      5  C   UNL     1      47.148   6.739  13.250  0.00  0.00    +0.000 A 
ATOM      6  C   UNL     1      46.407   5.834  12.478  0.00  0.00    +0.000 A 
ENDROOT
BRANCH   1   7
ATOM      7  C   UNL     1      44.514   5.290  10.884  0.00  0.00    +0.000 C 
BRANCH   7  10
ATOM      8  O   UNL     1      43.879   2.782   9.864  0.00  0.00    +0.000 OA
ATOM      9  C   UNL     1      44.901   3.321   9.452  0.00  0.00    +0.000 C 
ATOM     10  N   UNL     1      45.297   4.561   9.916  0.00  0.00    +0.000 N 
ATOM     11  H   UNL     1      46.075   5.018   9.458  0.00  0.00    +0.000 HD
BRANCH   9  12
ATOM     12  C   UNL     1      45.767   2.711   8.446  0.00  0.00    +0.000 A 
ATOM     13  C   UNL     1      46.114   1.372   8.342  0.00  0.00    +0.000 A 
ATOM     14  C   UNL     1      47.006   1.116   7.259  0.00  0.00    +0.000 A 
ATOM     15  C   UNL     1      47.320   2.266   6.570  0.00  0.00    +0.000 A 
ATOM     16  S   UNL     1      46.523   3.634   7.211  0.00  0.00    +0.000 S 
ENDBRANCH   9  12
ENDBRANCH   7  10
ENDBRANCH   1   7
BRANCH   4  17
ATOM     17  C   UNL     1      47.674   9.080  14.061  0.00  0.00    +0.000 C 
BRANCH  17  18
ATOM     18  N   UNL     1      47.487   8.871  15.476  0.00  0.00    +0.000 N 
ATOM     19  C   UNL     1      48.305   9.452  16.415  0.00  0.00    +0.000 C 
ATOM     20  O   UNL     1      49.220  10.212  16.113  0.00  0.00    +0.000 OA
ATOM     21  H   UNL     1      46.938   8.062  15.743  0.00  0.00    +0.000 HD
BRANCH  19  22
ATOM     22  C   UNL     1      47.980   9.164  17.819  0.00  0.00    +0.000 A 
ATOM     23  C   UNL     1      47.608  10.187  18.679  0.00  0.00    +0.000 A 
ATOM     24  S   UNL     1      47.221   9.655  20.253  0.00  0.00    +0.000 S 
ATOM     25  C   UNL     1      47.590   8.042  19.859  0.00  0.00    +0.000 A 
ATOM     26  N   UNL     1      47.497   7.051  20.789  0.00  0.00    +0.000 NA
ATOM     27  C   UNL     1      47.830   5.881  20.359  0.00  0.00    +0.000 A 
ATOM     28  N   UNL     1      48.237   5.609  19.079  0.00  0.00    +0.000 N 
ATOM     29  C   UNL     1      48.309   6.565  18.097  0.00  0.00    +0.000 A 
ATOM     30  O   UNL     1      48.612   6.271  16.946  0.00  0.00    +0.000 OA
ATOM     31  C   UNL     1      47.972   7.906  18.537  0.00  0.00    +0.000 A 
ATOM     32  H   UNL     1      48.466   4.664  18.797  0.00  0.00    +0.000 HD
ENDBRANCH  19  22
ENDBRANCH  17  18
ENDBRANCH   4  17
TORSDOF 6
ENDMDL
MODEL 4
REMARK VINA RESULT:    -7.236      3.984      4.943
REMARK INTER + INTRA:         -10.485
REMARK INTER:                  -9.592
REMARK INTRA:                  -0.893
REMARK UNBOUND:                -0.710
REMARK  Name = 
REMARK  6 active torsions:
REMARK  status: ('A' for Active; 'I' for Inactive)
REMARK    1  A    between atoms: C_2  and  C_25
REMARK    2  A    between atoms: N_3  and  C_4
REMARK    3  A    between atoms: C_4  and  C_5
REMARK    4  A    between atoms: C_8  and  C_9
REMARK    5  A    between atoms: C_9  and  N_10
REMARK    6  A    between atoms: C_11  and  C_13
REMARK                            x       y       z     vdW  Elec       q    Type
REMARK                         _______ _______ _______ _____ _____    ______ ____
ROOT
ATOM      1  C   UNL     1      44.638   4.756  11.873  0.00  0.00    +0.000 A 
ATOM      2  C   UNL     1      45.771   4.967  12.671  0.00  0.00    +0.000 A 
ATOM      3  C   UNL     1      46.191   6.266  13.000  0.00  0.00    +0.000 A 
ATOM      4  C   UNL     1      45.471   7.386  12.562  0.00  0.00    +0.000 A 
ATOM      5  C   UNL     1      44.340   7.174  11.761  0.00  0.00    +0.000 A 
ATOM      6  C   UNL     1      43.922   5.877  11.431  0.00  0.00    +0.000 A 
ENDROOT
BRANCH   1   7
ATOM      7  C   UNL     1      44.210   3.361  11.483  0.00  0.00    +0.000 C 
BRANCH   7  10
ATOM      8  O   UNL     1      44.055   3.946   8.768  0.00  0.00    +0.000 OA
ATOM      9  C   UNL     1      44.909   3.142   9.128  0.00  0.00    +0.000 C 
ATOM     10  N   UNL     1      45.045   2.785  10.456  0.00  0.00    +0.000 N 
ATOM     11  H   UNL     1      45.839   2.217  10.720  0.00  0.00    +0.000 HD
BRANCH   9  12
ATOM     12  C   UNL     1      45.843   2.510   8.199  0.00  0.00    +0.000 A 
ATOM     13  C   UNL     1      46.160   1.162   8.119  0.00  0.00    +0.000 A 
ATOM     14  C   UNL     1      47.136   0.885   7.118  0.00  0.00    +0.000 A 
ATOM     15  C   UNL     1      47.541   2.027   6.465  0.00  0.00    +0.000 A 
ATOM     16  S   UNL     1      46.729   3.415   7.041  0.00  0.00    +0.000 S 
ENDBRANCH   9  12
ENDBRANCH   7  10
ENDBRANCH   1   7
BRANCH   4  17
ATOM     17  C   UNL     1      45.905   8.791  12.923  0.00  0.00    +0.000 C 
BRANCH  17  18
ATOM     18  N   UNL     1      47.132   9.163  12.262  0.00  0.00    +0.000 N 
ATOM     19  C   UNL     1      48.188   9.723  12.941  0.00  0.00    +0.000 C 
ATOM     20  O   UNL     1      48.167   9.908  14.154  0.00  0.00    +0.000 OA
ATOM     21  H   UNL     1      47.085   9.278  11.256  0.00  0.00    +0.000 HD
BRANCH  19  22
ATOM     22  C   UNL     1      49.380  10.030  12.139  0.00  0.00    +0.000 A 
ATOM     23  C   UNL     1      49.723  11.347  11.864  0.00  0.00    +0.000 A 
ATOM     24  S   UNL     1      51.164  11.508  10.965  0.00  0.00    +0.000 S 
ATOM     25  C   UNL     1      51.355   9.822  10.862  0.00  0.00    +0.000 A 
ATOM     26  N   UNL     1      52.399   9.271  10.182  0.00  0.00    +0.000 NA
ATOM     27  C   UNL     1      52.406   7.981  10.165  0.00  0.00    +0.000 A 
ATOM     28  N   UNL     1      51.469   7.189  10.775  0.00  0.00    +0.000 N 
ATOM     29  C   UNL     1      50.422   7.695  11.504  0.00  0.00    +0.000 A 
ATOM     30  O   UNL     1      49.642   6.955  12.093  0.00  0.00    +0.000 OA
ATOM     31  C   UNL     1      50.351   9.144  11.531  0.00  0.00    +0.000 A 
ATOM     32  H   UNL     1      51.541   6.180  10.743  0.00  0.00    +0.000 HD
ENDBRANCH  19  22
ENDBRANCH  17  18
ENDBRANCH   4  17
TORSDOF 6
ENDMDL
MODEL 5
REMARK VINA RESULT:    -7.136      1.884      2.260
REMARK INTER + INTRA:         -10.350
REMARK INTER:                  -9.479
REMARK INTRA:                  -0.871
REMARK UNBOUND:                -0.710
REMARK  Name = 
REMARK  6 active torsions:
REMARK  status: ('A' for Active; 'I' for Inactive)
REMARK    1  A    between atoms: C_2  and  C_25
REMARK    2  A    between atoms: N_3  and  C_4
REMARK    3  A    between atoms: C_4  and  C_5
REMARK    4  A    between atoms: C_8  and  C_9
REMARK    5  A    between atoms: C_9  and  N_10
REMARK    6  A    between atoms: C_11  and  C_13
REMARK                            x       y       z     vdW  Elec       q    Type
REMARK                         _______ _______ _______ _____ _____    ______ ____
ROOT
ATOM      1  C   UNL     1      45.325   5.882  11.427  0.00  0.00    +0.000 A 
ATOM      2  C   UNL     1      45.998   5.202  12.452  0.00  0.00    +0.000 A 
ATOM      3  C   UNL     1      46.844   5.888  13.338  0.00  0.00    +0.000 A 
ATOM      4  C   UNL     1      47.018   7.275  13.239  0.00  0.00    +0.000 A 
ATOM      5  C   UNL     1      46.346   7.953  12.212  0.00  0.00    +0.000 A 
ATOM      6  C   UNL     1      45.503   7.269  11.325  0.00  0.00    +0.000 A 
ENDROOT
BRANCH   1   7
ATOM      7  C   UNL     1      44.448   5.140  10.447  0.00  0.00    +0.000 C 
BRANCH   7  10
ATOM      8  O   UNL     1      44.208   2.418   9.922  0.00  0.00    +0.000 OA
ATOM      9  C   UNL     1      45.014   3.057   9.253  0.00  0.00    +0.000 C 
ATOM     10  N   UNL     1      45.205   4.410   9.458  0.00  0.00    +0.000 N 
ATOM     11  H   UNL     1      45.785   4.917   8.802  0.00  0.00    +0.000 HD
BRANCH   9  12
ATOM     12  C   UNL     1      45.820   2.452   8.195  0.00  0.00    +0.000 A 
ATOM     13  C   UNL     1      46.235   1.132   8.112  0.00  0.00    +0.000 A 
ATOM     14  C   UNL     1      47.038   0.879   6.961  0.00  0.00    +0.000 A 
ATOM     15  C   UNL     1      47.219   2.012   6.202  0.00  0.00    +0.000 A 
ATOM     16  S   UNL     1      46.403   3.361   6.860  0.00  0.00    +0.000 S 
ENDBRANCH   9  12
ENDBRANCH   7  10
ENDBRANCH   1   7
BRANCH   4  17
ATOM     17  C   UNL     1      47.915   8.028  14.198  0.00  0.00    +0.000 C 
BRANCH  17  18
ATOM     18  N   UNL     1      48.020   7.361  15.473  0.00  0.00    +0.000 N 
ATOM     19  C   UNL     1      49.191   6.785  15.902  0.00  0.00    +0.000 C 
ATOM     20  O   UNL     1      50.228   6.831  15.247  0.00  0.00    +0.000 OA
ATOM     21  H   UNL     1      47.149   7.072  15.903  0.00  0.00    +0.000 HD
BRANCH  19  22
ATOM     22  C   UNL     1      49.153   6.160  17.232  0.00  0.00    +0.000 A 
ATOM     23  C   UNL     1      49.649   4.878  17.421  0.00  0.00    +0.000 A 
ATOM     24  S   UNL     1      49.566   4.341  19.039  0.00  0.00    +0.000 S 
ATOM     25  C   UNL     1      48.812   5.781  19.537  0.00  0.00    +0.000 A 
ATOM     26  N   UNL     1      48.434   5.966  20.833  0.00  0.00    +0.000 NA
ATOM     27  C   UNL     1      47.852   7.094  21.064  0.00  0.00    +0.000 A 
ATOM     28  N   UNL     1      47.623   8.061  20.120  0.00  0.00    +0.000 N 
ATOM     29  C   UNL     1      48.020   7.938  18.812  0.00  0.00    +0.000 A 
ATOM     30  O   UNL     1      47.859   8.852  18.011  0.00  0.00    +0.000 OA
ATOM     31  C   UNL     1      48.655   6.673  18.492  0.00  0.00    +0.000 A 
ATOM     32  H   UNL     1      47.179   8.935  20.369  0.00  0.00    +0.000 HD
ENDBRANCH  19  22
ENDBRANCH  17  18
ENDBRANCH   4  17
TORSDOF 6
ENDMDL
MODEL 6
REMARK VINA RESULT:    -6.974      1.812      2.027
REMARK INTER + INTRA:         -10.131
REMARK INTER:                  -9.361
REMARK INTRA:                  -0.770
REMARK UNBOUND:                -0.710
REMARK  Name = 
REMARK  6 active torsions:
REMARK  status: ('A' for Active; 'I' for Inactive)
REMARK    1  A    between atoms: C_2  and  C_25
REMARK    2  A    between atoms: N_3  and  C_4
REMARK    3  A    between atoms: C_4  and  C_5
REMARK    4  A    between atoms: C_8  and  C_9
REMARK    5  A    between atoms: C_9  and  N_10
REMARK    6  A    between atoms: C_11  and  C_13
REMARK                            x       y       z     vdW  Elec       q    Type
REMARK                         _______ _______ _______ _____ _____    ______ ____
ROOT
ATOM      1  C   UNL     1      45.328   6.300  11.531  0.00  0.00    +0.000 A 
ATOM      2  C   UNL     1      46.529   5.804  12.056  0.00  0.00    +0.000 A 
ATOM      3  C   UNL     1      47.335   6.596  12.889  0.00  0.00    +0.000 A 
ATOM      4  C   UNL     1      46.945   7.896  13.241  0.00  0.00    +0.000 A 
ATOM      5  C   UNL     1      45.744   8.391  12.715  0.00  0.00    +0.000 A 
ATOM      6  C   UNL     1      44.940   7.601  11.881  0.00  0.00    +0.000 A 
ENDROOT
BRANCH   1   7
ATOM      7  C   UNL     1      44.481   5.464  10.600  0.00  0.00    +0.000 C 
BRANCH   7  10
ATOM      8  O   UNL     1      44.155   2.838   9.741  0.00  0.00    +0.000 OA
ATOM      9  C   UNL     1      45.017   3.514   9.189  0.00  0.00    +0.000 C 
ATOM     10  N   UNL     1      45.254   4.823   9.563  0.00  0.00    +0.000 N 
ATOM     11  H   UNL     1      45.885   5.376   8.999  0.00  0.00    +0.000 HD
BRANCH   9  12
ATOM     12  C   UNL     1      45.847   3.003   8.101  0.00  0.00    +0.000 A 
ATOM     13  C   UNL     1      46.321   3.710   7.006  0.00  0.00    +0.000 A 
ATOM     14  C   UNL     1      47.080   2.899   6.112  0.00  0.00    +0.000 A 
ATOM     15  C   UNL     1      47.160   1.595   6.545  0.00  0.00    +0.000 A 
ATOM     16  S   UNL     1      46.348   1.362   8.029  0.00  0.00    +0.000 S 
ENDBRANCH   9  12
ENDBRANCH   7  10
ENDBRANCH   1   7
BRANCH   4  17
ATOM     17  C   UNL     1      47.797   8.754  14.152  0.00  0.00    +0.000 C 
BRANCH  17  18
ATOM     18  N   UNL     1      48.957   8.043  14.633  0.00  0.00    +0.000 N 
ATOM     19  C   UNL     1      49.202   7.866  15.973  0.00  0.00    +0.000 C 
ATOM     20  O   UNL     1      48.435   8.269  16.843  0.00  0.00    +0.000 OA
ATOM     21  H   UNL     1      49.725   7.941  13.980  0.00  0.00    +0.000 HD
BRANCH  19  22
ATOM     22  C   UNL     1      50.412   7.103  16.312  0.00  0.00    +0.000 A 
ATOM     23  C   UNL     1      51.670   7.635  16.069  0.00  0.00    +0.000 A 
ATOM     24  S   UNL     1      52.951   6.628  16.575  0.00  0.00    +0.000 S 
ATOM     25  C   UNL     1      51.872   5.419  17.088  0.00  0.00    +0.000 A 
ATOM     26  N   UNL     1      52.326   4.244  17.608  0.00  0.00    +0.000 NA
ATOM     27  C   UNL     1      51.398   3.408  17.933  0.00  0.00    +0.000 A 
ATOM     28  N   UNL     1      50.055   3.644  17.795  0.00  0.00    +0.000 N 
ATOM     29  C   UNL     1      49.548   4.825  17.314  0.00  0.00    +0.000 A 
ATOM     30  O   UNL     1      48.339   5.025  17.269  0.00  0.00    +0.000 OA
ATOM     31  C   UNL     1      50.552   5.790  16.907  0.00  0.00    +0.000 A 
ATOM     32  H   UNL     1      49.374   2.955  18.089  0.00  0.00    +0.000 HD
ENDBRANCH  19  22
ENDBRANCH  17  18
ENDBRANCH   4  17
TORSDOF 6
ENDMDL
MODEL 7
REMARK VINA RESULT:    -6.955      2.845      8.642
REMARK INTER + INTRA:         -10.106
REMARK INTER:                  -9.174
REMARK INTRA:                  -0.932
REMARK UNBOUND:                -0.710
REMARK  Name = 
REMARK  6 active torsions:
REMARK  status: ('A' for Active; 'I' for Inactive)
REMARK    1  A    between atoms: C_2  and  C_25
REMARK    2  A    between atoms: N_3  and  C_4
REMARK    3  A    between atoms: C_4  and  C_5
REMARK    4  A    between atoms: C_8  and  C_9
REMARK    5  A    between atoms: C_9  and  N_10
REMARK    6  A    between atoms: C_11  and  C_13
REMARK                            x       y       z     vdW  Elec       q    Type
REMARK                         _______ _______ _______ _____ _____    ______ ____
ROOT
ATOM      1  C   UNL     1      50.405   7.365  15.229  0.00  0.00    +0.000 A 
ATOM      2  C   UNL     1      50.807   7.961  14.025  0.00  0.00    +0.000 A 
ATOM      3  C   UNL     1      49.925   8.054  12.936  0.00  0.00    +0.000 A 
ATOM      4  C   UNL     1      48.610   7.579  13.033  0.00  0.00    +0.000 A 
ATOM      5  C   UNL     1      48.210   6.982  14.237  0.00  0.00    +0.000 A 
ATOM      6  C   UNL     1      49.090   6.887  15.324  0.00  0.00    +0.000 A 
ENDROOT
BRANCH   1   7
ATOM      7  C   UNL     1      51.365   7.226  16.386  0.00  0.00    +0.000 C 
BRANCH   7  10
ATOM      8  O   UNL     1      50.333   5.552  18.354  0.00  0.00    +0.000 OA
ATOM      9  C   UNL     1      51.196   5.092  17.612  0.00  0.00    +0.000 C 
ATOM     10  N   UNL     1      51.770   5.860  16.617  0.00  0.00    +0.000 N 
ATOM     11  H   UNL     1      52.382   5.404  15.954  0.00  0.00    +0.000 HD
BRANCH   9  12
ATOM     12  C   UNL     1      51.673   3.715  17.711  0.00  0.00    +0.000 A 
ATOM     13  C   UNL     1      52.939   3.294  18.090  0.00  0.00    +0.000 A 
ATOM     14  C   UNL     1      53.082   1.876  18.050  0.00  0.00    +0.000 A 
ATOM     15  C   UNL     1      51.926   1.255  17.638  0.00  0.00    +0.000 A 
ATOM     16  S   UNL     1      50.673   2.373  17.327  0.00  0.00    +0.000 S 
ENDBRANCH   9  12
ENDBRANCH   7  10
ENDBRANCH   1   7
BRANCH   4  17
ATOM     17  C   UNL     1      47.646   7.689  11.871  0.00  0.00    +0.000 C 
BRANCH  17  18
ATOM     18  N   UNL     1      46.895   6.472  11.678  0.00  0.00    +0.000 N 
ATOM     19  C   UNL     1      45.521   6.450  11.695  0.00  0.00    +0.000 C 
ATOM     20  O   UNL     1      44.847   7.466  11.840  0.00  0.00    +0.000 OA
ATOM     21  H   UNL     1      47.397   5.604  11.827  0.00  0.00    +0.000 HD
BRANCH  19  22
ATOM     22  C   UNL     1      44.894   5.141  11.463  0.00  0.00    +0.000 A 
ATOM     23  C   UNL     1      44.130   4.542  12.454  0.00  0.00    +0.000 A 
ATOM     24  S   UNL     1      43.442   3.053  11.985  0.00  0.00    +0.000 S 
ATOM     25  C   UNL     1      44.185   3.127  10.457  0.00  0.00    +0.000 A 
ATOM     26  N   UNL     1      44.029   2.123   9.549  0.00  0.00    +0.000 NA
ATOM     27  C   UNL     1      44.668   2.300   8.442  0.00  0.00    +0.000 A 
ATOM     28  N   UNL     1      45.442   3.394   8.156  0.00  0.00    +0.000 N 
ATOM     29  C   UNL     1      45.598   4.448   9.021  0.00  0.00    +0.000 A 
ATOM     30  O   UNL     1      46.242   5.441   8.702  0.00  0.00    +0.000 OA
ATOM     31  C   UNL     1      44.922   4.286  10.294  0.00  0.00    +0.000 A 
ATOM     32  H   UNL     1      45.903   3.484   7.259  0.00  0.00    +0.000 HD
ENDBRANCH  19  22
ENDBRANCH  17  18
ENDBRANCH   4  17
TORSDOF 6
ENDMDL
MODEL 8
REMARK VINA RESULT:    -6.955      2.829      8.292
REMARK INTER + INTRA:         -10.105
REMARK INTER:                  -9.248
REMARK INTRA:                  -0.857
REMARK UNBOUND:                -0.710
REMARK  Name = 
REMARK  6 active torsions:
REMARK  status: ('A' for Active; 'I' for Inactive)
REMARK    1  A    between atoms: C_2  and  C_25
REMARK    2  A    between atoms: N_3  and  C_4
REMARK    3  A    between atoms: C_4  and  C_5
REMARK    4  A    between atoms: C_8  and  C_9
REMARK    5  A    between atoms: C_9  and  N_10
REMARK    6  A    between atoms: C_11  and  C_13
REMARK                            x       y       z     vdW  Elec       q    Type
REMARK                         _______ _______ _______ _____ _____    ______ ____
ROOT
ATOM      1  C   UNL     1      49.913   6.678  16.250  0.00  0.00    +0.000 A 
ATOM      2  C   UNL     1      48.636   6.302  15.808  0.00  0.00    +0.000 A 
ATOM      3  C   UNL     1      48.178   6.664  14.531  0.00  0.00    +0.000 A 
ATOM      4  C   UNL     1      48.997   7.387  13.652  0.00  0.00    +0.000 A 
ATOM      5  C   UNL     1      50.272   7.764  14.095  0.00  0.00    +0.000 A 
ATOM      6  C   UNL     1      50.729   7.405  15.371  0.00  0.00    +0.000 A 
ENDROOT
BRANCH   1   7
ATOM      7  C   UNL     1      50.390   6.326  17.639  0.00  0.00    +0.000 C 
BRANCH   7  10
ATOM      8  O   UNL     1      49.483   3.708  17.879  0.00  0.00    +0.000 OA
ATOM      9  C   UNL     1      50.693   3.882  17.773  0.00  0.00    +0.000 C 
ATOM     10  N   UNL     1      51.228   5.152  17.662  0.00  0.00    +0.000 N 
ATOM     11  H   UNL     1      52.214   5.239  17.452  0.00  0.00    +0.000 HD
BRANCH   9  12
ATOM     12  C   UNL     1      51.652   2.781  17.747  0.00  0.00    +0.000 A 
ATOM     13  C   UNL     1      51.399   1.460  17.411  0.00  0.00    +0.000 A 
ATOM     14  C   UNL     1      52.556   0.633  17.519  0.00  0.00    +0.000 A 
ATOM     15  C   UNL     1      53.657   1.343  17.940  0.00  0.00    +0.000 A 
ATOM     16  S   UNL     1      53.300   2.997  18.177  0.00  0.00    +0.000 S 
ENDBRANCH   9  12
ENDBRANCH   7  10
ENDBRANCH   1   7
BRANCH   4  17
ATOM     17  C   UNL     1      48.521   7.769  12.267  0.00  0.00    +0.000 C 
BRANCH  17  18
ATOM     18  N   UNL     1      47.732   6.725  11.661  0.00  0.00    +0.000 N 
ATOM     19  C   UNL     1      46.374   6.844  11.483  0.00  0.00    +0.000 C 
ATOM     20  O   UNL     1      45.755   7.856  11.794  0.00  0.00    +0.000 OA
ATOM     21  H   UNL     1      48.145   5.799  11.646  0.00  0.00    +0.000 HD
BRANCH  19  22
ATOM     22  C   UNL     1      45.707   5.706  10.833  0.00  0.00    +0.000 A 
ATOM     23  C   UNL     1      45.802   5.526   9.460  0.00  0.00    +0.000 A 
ATOM     24  S   UNL     1      45.007   4.127   8.895  0.00  0.00    +0.000 S 
ATOM     25  C   UNL     1      44.458   3.739  10.458  0.00  0.00    +0.000 A 
ATOM     26  N   UNL     1      43.675   2.646  10.678  0.00  0.00    +0.000 NA
ATOM     27  C   UNL     1      43.313   2.486  11.906  0.00  0.00    +0.000 A 
ATOM     28  N   UNL     1      43.671   3.315  12.937  0.00  0.00    +0.000 N 
ATOM     29  C   UNL     1      44.489   4.404  12.773  0.00  0.00    +0.000 A 
ATOM     30  O   UNL     1      44.843   5.083  13.730  0.00  0.00    +0.000 OA
ATOM     31  C   UNL     1      44.902   4.646  11.403  0.00  0.00    +0.000 A 
ATOM     32  H   UNL     1      43.370   3.124  13.885  0.00  0.00    +0.000 HD
ENDBRANCH  19  22
ENDBRANCH  17  18
ENDBRANCH   4  17
TORSDOF 6
ENDMDL
MODEL 9
REMARK VINA RESULT:    -6.654      3.596      4.685
REMARK INTER + INTRA:          -9.699
REMARK INTER:                  -8.689
REMARK INTRA:                  -1.010
REMARK UNBOUND:                -0.710
REMARK  Name = 
REMARK  6 active torsions:
REMARK  status: ('A' for Active; 'I' for Inactive)
REMARK    1  A    between atoms: C_2  and  C_25
REMARK    2  A    between atoms: N_3  and  C_4
REMARK    3  A    between atoms: C_4  and  C_5
REMARK    4  A    between atoms: C_8  and  C_9
REMARK    5  A    between atoms: C_9  and  N_10
REMARK    6  A    between atoms: C_11  and  C_13
REMARK                            x       y       z     vdW  Elec       q    Type
REMARK                         _______ _______ _______ _____ _____    ______ ____
ROOT
ATOM      1  C   UNL     1      45.080   6.182  11.476  0.00  0.00    +0.000 A 
ATOM      2  C   UNL     1      46.226   5.676  12.106  0.00  0.00    +0.000 A 
ATOM      3  C   UNL     1      47.014   6.492  12.933  0.00  0.00    +0.000 A 
ATOM      4  C   UNL     1      46.661   7.827  13.174  0.00  0.00    +0.000 A 
ATOM      5  C   UNL     1      45.516   8.332  12.542  0.00  0.00    +0.000 A 
ATOM      6  C   UNL     1      44.730   7.519  11.714  0.00  0.00    +0.000 A 
ENDROOT
BRANCH   1   7
ATOM      7  C   UNL     1      44.255   5.318  10.552  0.00  0.00    +0.000 C 
BRANCH   7  10
ATOM      8  O   UNL     1      44.140   2.641   9.804  0.00  0.00    +0.000 OA
ATOM      9  C   UNL     1      44.911   3.371   9.188  0.00  0.00    +0.000 C 
ATOM     10  N   UNL     1      45.039   4.710   9.504  0.00  0.00    +0.000 N 
ATOM     11  H   UNL     1      45.591   5.296   8.891  0.00  0.00    +0.000 HD
BRANCH   9  12
ATOM     12  C   UNL     1      45.738   2.894   8.082  0.00  0.00    +0.000 A 
ATOM     13  C   UNL     1      46.136   3.614   6.965  0.00  0.00    +0.000 A 
ATOM     14  C   UNL     1      46.916   2.837   6.059  0.00  0.00    +0.000 A 
ATOM     15  C   UNL     1      47.087   1.546   6.504  0.00  0.00    +0.000 A 
ATOM     16  S   UNL     1      46.334   1.285   8.015  0.00  0.00    +0.000 S 
ENDBRANCH   9  12
ENDBRANCH   7  10
ENDBRANCH   1   7
BRANCH   4  17
ATOM     17  C   UNL     1      47.494   8.711  14.077  0.00  0.00    +0.000 C 
BRANCH  17  18
ATOM     18  N   UNL     1      48.899   8.636  13.758  0.00  0.00    +0.000 N 
ATOM     19  C   UNL     1      49.663   9.759  13.551  0.00  0.00    +0.000 C 
ATOM     20  O   UNL     1      49.209  10.895  13.659  0.00  0.00    +0.000 OA
ATOM     21  H   UNL     1      49.233   7.748  13.401  0.00  0.00    +0.000 HD
BRANCH  19  22
ATOM     22  C   UNL     1      51.084   9.527  13.254  0.00  0.00    +0.000 A 
ATOM     23  C   UNL     1      52.069  10.173  13.987  0.00  0.00    +0.000 A 
ATOM     24  S   UNL     1      53.656   9.740  13.533  0.00  0.00    +0.000 S 
ATOM     25  C   UNL     1      53.085   8.715  12.302  0.00  0.00    +0.000 A 
ATOM     26  N   UNL     1      53.947   8.041  11.491  0.00  0.00    +0.000 NA
ATOM     27  C   UNL     1      53.377   7.319  10.586  0.00  0.00    +0.000 A 
ATOM     28  N   UNL     1      52.021   7.202  10.425  0.00  0.00    +0.000 N 
ATOM     29  C   UNL     1      51.113   7.829  11.240  0.00  0.00    +0.000 A 
ATOM     30  O   UNL     1      49.908   7.646  11.108  0.00  0.00    +0.000 OA
ATOM     31  C   UNL     1      51.703   8.677  12.259  0.00  0.00    +0.000 A 
ATOM     32  H   UNL     1      51.633   6.602   9.707  0.00  0.00    +0.000 HD
ENDBRANCH  19  22
ENDBRANCH  17  18
ENDBRANCH   4  17
TORSDOF 6
ENDMDL
