MODEL 1
REMARK VINA RESULT:    -7.578      0.000      0.000
REMARK INTER + INTRA:         -11.222
REMARK INTER:                 -10.236
REMARK INTRA:                  -0.986
REMARK UNBOUND:                -0.986
REMARK  Name = 
REMARK  7 active torsions:
REMARK  status: ('A' for Active; 'I' for Inactive)
REMARK    1  A    between atoms: C_1  and  N_2
REMARK    2  A    between atoms: N_2  and  C_3
REMARK    3  A    between atoms: C_3  and  C_4
REMARK    4  A    between atoms: C_7  and  C_8
REMARK    5  A    between atoms: C_8  and  N_9
REMARK    6  A    between atoms: C_10  and  C_12
REMARK    7  A    between atoms: C_24  and  C_26
REMARK                            x       y       z     vdW  Elec       q    Type
REMARK                         _______ _______ _______ _____ _____    ______ ____
ROOT
ATOM      1  C   UNL     1      46.528   4.577  13.308  0.00  0.00    +0.000 A 
ATOM      2  C   UNL     1      46.746   4.040  14.584  0.00  0.00    +0.000 A 
ATOM      3  C   UNL     1      47.556   4.705  15.507  0.00  0.00    +0.000 A 
ATOM      4  C   UNL     1      48.159   5.926  15.173  0.00  0.00    +0.000 A 
ATOM      5  C   UNL     1      47.972   6.443  13.884  0.00  0.00    +0.000 A 
ATOM      6  C   UNL     1      47.158   5.780  12.962  0.00  0.00    +0.000 A 
ENDROOT
BRANCH   1   7
ATOM      7  C   UNL     1      45.595   3.887  12.342  0.00  0.00    +0.000 C 
BRANCH   7   9
ATOM      8  C   UNL     1      43.496   5.152  13.066  0.00  0.00    +0.000 C 
ATOM      9  N   UNL     1      44.336   4.573  12.027  0.00  0.00    +0.000 N 
ATOM     10  C   UNL     1      43.863   4.713  10.711  0.00  0.00    +0.000 C 
ATOM     11  O   UNL     1      42.841   5.357  10.467  0.00  0.00    +0.000 OA
BRANCH  10  12
ATOM     12  C   UNL     1      44.631   4.114   9.606  0.00  0.00    +0.000 A 
ATOM     13  C   UNL     1      44.600   2.775   9.258  0.00  0.00    +0.000 A 
ATOM     14  N   UNL     1      45.459   2.642   8.205  0.00  0.00    +0.000 N 
ATOM     15  C   UNL     1      46.005   3.868   7.963  0.00  0.00    +0.000 A 
ATOM     16  N   UNL     1      45.520   4.779   8.775  0.00  0.00    +0.000 NA
ATOM     17  H   UNL     1      45.664   1.790   7.701  0.00  0.00    +0.000 HD
ENDBRANCH  10  12
ENDBRANCH   7   9
ENDBRANCH   1   7
BRANCH   4  18
ATOM     18  C   UNL     1      49.024   6.655  16.166  0.00  0.00    +0.000 C 
BRANCH  18  19
ATOM     19  N   UNL     1      50.097   5.814  16.627  0.00  0.00    +0.000 N 
ATOM     20  C   UNL     1      50.220   5.473  17.949  0.00  0.00    +0.000 C 
ATOM     21  O   UNL     1      49.400   5.828  18.792  0.00  0.00    +0.000 OA
ATOM     22  H   UNL     1      50.894   5.709  16.008  0.00  0.00    +0.000 HD
BRANCH  20  23
ATOM     23  C   UNL     1      51.352   4.606  18.297  0.00  0.00    +0.000 A 
ATOM     24  C   UNL     1      52.410   5.117  19.037  0.00  0.00    +0.000 A 
ATOM     25  S   UNL     1      53.610   3.960  19.402  0.00  0.00    +0.000 S 
ATOM     26  C   UNL     1      52.782   2.749  18.544  0.00  0.00    +0.000 A 
ATOM     27  N   UNL     1      53.289   1.489  18.445  0.00  0.00    +0.000 NA
ATOM     28  C   UNL     1      52.573   0.678  17.748  0.00  0.00    +0.000 A 
ATOM     29  N   UNL     1      51.390   1.009  17.135  0.00  0.00    +0.000 N 
ATOM     30  C   UNL     1      50.826   2.260  17.222  0.00  0.00    +0.000 A 
ATOM     31  O   UNL     1      49.755   2.514  16.683  0.00  0.00    +0.000 OA
ATOM     32  C   UNL     1      51.600   3.213  17.999  0.00  0.00    +0.000 A 
ATOM     33  H   UNL     1      50.869   0.323  16.608  0.00  0.00    +0.000 HD
ENDBRANCH  20  23
ENDBRANCH  18  19
ENDBRANCH   4  18
TORSDOF 6
ENDMDL
MODEL 2
REMARK VINA RESULT:    -7.549      3.282      9.699
REMARK INTER + INTRA:         -11.182
REMARK INTER:                 -10.230
REMARK INTRA:                  -0.953
REMARK UNBOUND:                -0.986
REMARK  Name = 
REMARK  7 active torsions:
REMARK  status: ('A' for Active; 'I' for Inactive)
REMARK    1  A    between atoms: C_1  and  N_2
REMARK    2  A    between atoms: N_2  and  C_3
REMARK    3  A    between atoms: C_3  and  C_4
REMARK    4  A    between atoms: C_7  and  C_8
REMARK    5  A    between atoms: C_8  and  N_9
REMARK    6  A    between atoms: C_10  and  C_12
REMARK    7  A    between atoms: C_24  and  C_26
REMARK                            x       y       z     vdW  Elec       q    Type
REMARK                         _______ _______ _______ _____ _____    ______ ____
ROOT
ATOM      1  C   UNL     1      51.432   3.744  17.635  0.00  0.00    +0.000 A 
ATOM      2  C   UNL     1      50.850   2.493  17.384  0.00  0.00    +0.000 A 
ATOM      3  C   UNL     1      49.481   2.384  17.132  0.00  0.00    +0.000 A 
ATOM      4  C   UNL     1      48.668   3.526  17.119  0.00  0.00    +0.000 A 
ATOM      5  C   UNL     1      49.244   4.770  17.408  0.00  0.00    +0.000 A 
ATOM      6  C   UNL     1      50.614   4.880  17.656  0.00  0.00    +0.000 A 
ENDROOT
BRANCH   1   7
ATOM      7  C   UNL     1      52.924   3.860  17.837  0.00  0.00    +0.000 C 
BRANCH   7   9
ATOM      8  C   UNL     1      53.328   4.192  20.339  0.00  0.00    +0.000 C 
ATOM      9  N   UNL     1      53.459   3.399  19.125  0.00  0.00    +0.000 N 
ATOM     10  C   UNL     1      54.127   2.171  19.266  0.00  0.00    +0.000 C 
ATOM     11  O   UNL     1      54.502   1.773  20.372  0.00  0.00    +0.000 OA
BRANCH  10  12
ATOM     12  C   UNL     1      54.341   1.330  18.076  0.00  0.00    +0.000 A 
ATOM     13  C   UNL     1      53.593   0.212  17.755  0.00  0.00    +0.000 A 
ATOM     14  N   UNL     1      54.127  -0.276  16.597  0.00  0.00    +0.000 N 
ATOM     15  C   UNL     1      55.184   0.520  16.265  0.00  0.00    +0.000 A 
ATOM     16  N   UNL     1      55.332   1.503  17.122  0.00  0.00    +0.000 NA
ATOM     17  H   UNL     1      53.808  -1.086  16.082  0.00  0.00    +0.000 HD
ENDBRANCH  10  12
ENDBRANCH   7   9
ENDBRANCH   1   7
BRANCH   4  18
ATOM     18  C   UNL     1      47.192   3.418  16.836  0.00  0.00    +0.000 C 
BRANCH  18  19
ATOM     19  N   UNL     1      46.785   4.391  15.858  0.00  0.00    +0.000 N 
ATOM     20  C   UNL     1      46.862   4.129  14.514  0.00  0.00    +0.000 C 
ATOM     21  O   UNL     1      47.234   3.040  14.084  0.00  0.00    +0.000 OA
ATOM     22  H   UNL     1      46.701   5.352  16.175  0.00  0.00    +0.000 HD
BRANCH  20  23
ATOM     23  C   UNL     1      46.412   5.197  13.614  0.00  0.00    +0.000 A 
ATOM     24  C   UNL     1      47.255   6.266  13.338  0.00  0.00    +0.000 A 
ATOM     25  S   UNL     1      46.599   7.385  12.229  0.00  0.00    +0.000 S 
ATOM     26  C   UNL     1      45.147   6.506  12.116  0.00  0.00    +0.000 A 
ATOM     27  N   UNL     1      44.126   6.939  11.327  0.00  0.00    +0.000 NA
ATOM     28  C   UNL     1      43.078   6.192  11.353  0.00  0.00    +0.000 A 
ATOM     29  N   UNL     1      42.952   5.047  12.099  0.00  0.00    +0.000 N 
ATOM     30  C   UNL     1      43.960   4.558  12.895  0.00  0.00    +0.000 A 
ATOM     31  O   UNL     1      43.823   3.517  13.528  0.00  0.00    +0.000 OA
ATOM     32  C   UNL     1      45.166   5.368  12.901  0.00  0.00    +0.000 A 
ATOM     33  H   UNL     1      42.105   4.498  12.069  0.00  0.00    +0.000 HD
ENDBRANCH  20  23
ENDBRANCH  18  19
ENDBRANCH   4  18
TORSDOF 6
ENDMDL
MODEL 3
REMARK VINA RESULT:    -7.192      3.386      8.816
REMARK INTER + INTRA:         -10.701
REMARK INTER:                  -9.748
REMARK INTRA:                  -0.952
REMARK UNBOUND:                -0.986
REMARK  Name = 
REMARK  7 active torsions:
REMARK  status: ('A' for Active; 'I' for Inactive)
REMARK    1  A    between atoms: C_1  and  N_2
REMARK    2  A    between atoms: N_2  and  C_3
REMARK    3  A    between atoms: C_3  and  C_4
REMARK    4  A    between atoms: C_7  and  C_8
REMARK    5  A    between atoms: C_8  and  N_9
REMARK    6  A    between atoms: C_10  and  C_12
REMARK    7  A    between atoms: C_24  and  C_26
REMARK                            x       y       z     vdW  Elec       q    Type
REMARK                         _______ _______ _______ _____ _____    ______ ____
ROOT
ATOM      1  C   UNL     1      49.923   6.898  15.859  0.00  0.00    +0.000 A 
ATOM      2  C   UNL     1      50.726   7.574  14.930  0.00  0.00    +0.000 A 
ATOM      3  C   UNL     1      50.223   7.923  13.675  0.00  0.00    +0.000 A 
ATOM      4  C   UNL     1      48.902   7.607  13.327  0.00  0.00    +0.000 A 
ATOM      5  C   UNL     1      48.113   6.895  14.240  0.00  0.00    +0.000 A 
ATOM      6  C   UNL     1      48.615   6.551  15.497  0.00  0.00    +0.000 A 
ENDROOT
BRANCH   1   7
ATOM      7  C   UNL     1      50.454   6.587  17.238  0.00  0.00    +0.000 C 
BRANCH   7   9
ATOM      8  C   UNL     1      52.805   5.588  17.238  0.00  0.00    +0.000 C 
ATOM      9  N   UNL     1      51.362   5.440  17.358  0.00  0.00    +0.000 N 
ATOM     10  C   UNL     1      50.899   4.134  17.596  0.00  0.00    +0.000 C 
ATOM     11  O   UNL     1      51.687   3.201  17.766  0.00  0.00    +0.000 OA
BRANCH  10  12
ATOM     12  C   UNL     1      49.449   3.892  17.684  0.00  0.00    +0.000 A 
ATOM     13  C   UNL     1      48.674   4.141  18.803  0.00  0.00    +0.000 A 
ATOM     14  N   UNL     1      47.405   3.766  18.469  0.00  0.00    +0.000 N 
ATOM     15  C   UNL     1      47.441   3.278  17.196  0.00  0.00    +0.000 A 
ATOM     16  N   UNL     1      48.650   3.353  16.688  0.00  0.00    +0.000 NA
ATOM     17  H   UNL     1      46.586   3.826  19.059  0.00  0.00    +0.000 HD
ENDBRANCH  10  12
ENDBRANCH   7   9
ENDBRANCH   1   7
BRANCH   4  18
ATOM     18  C   UNL     1      48.348   7.989  11.980  0.00  0.00    +0.000 C 
BRANCH  18  19
ATOM     19  N   UNL     1      47.625   6.892  11.392  0.00  0.00    +0.000 N 
ATOM     20  C   UNL     1      46.255   6.878  11.354  0.00  0.00    +0.000 C 
ATOM     21  O   UNL     1      45.583   7.816  11.774  0.00  0.00    +0.000 OA
ATOM     22  H   UNL     1      48.138   6.027  11.257  0.00  0.00    +0.000 HD
BRANCH  20  23
ATOM     23  C   UNL     1      45.632   5.708  10.725  0.00  0.00    +0.000 A 
ATOM     24  C   UNL     1      45.774   5.504   9.358  0.00  0.00    +0.000 A 
ATOM     25  S   UNL     1      45.038   4.068   8.802  0.00  0.00    +0.000 S 
ATOM     26  C   UNL     1      44.462   3.695  10.358  0.00  0.00    +0.000 A 
ATOM     27  N   UNL     1      43.719   2.576  10.579  0.00  0.00    +0.000 NA
ATOM     28  C   UNL     1      43.329   2.426  11.797  0.00  0.00    +0.000 A 
ATOM     29  N   UNL     1      43.612   3.296  12.821  0.00  0.00    +0.000 N 
ATOM     30  C   UNL     1      44.374   4.428  12.652  0.00  0.00    +0.000 A 
ATOM     31  O   UNL     1      44.629   5.169  13.594  0.00  0.00    +0.000 OA
ATOM     32  C   UNL     1      44.837   4.641  11.292  0.00  0.00    +0.000 A 
ATOM     33  H   UNL     1      43.284   3.118  13.759  0.00  0.00    +0.000 HD
ENDBRANCH  20  23
ENDBRANCH  18  19
ENDBRANCH   4  18
TORSDOF 6
ENDMDL
MODEL 4
REMARK VINA RESULT:    -7.153      2.626      3.142
REMARK INTER + INTRA:         -10.648
REMARK INTER:                 -10.072
REMARK INTRA:                  -0.575
REMARK UNBOUND:                -0.986
REMARK  Name = 
REMARK  7 active torsions:
REMARK  status: ('A' for Active; 'I' for Inactive)
REMARK    1  A    between atoms: C_1  and  N_2
REMARK    2  A    between atoms: N_2  and  C_3
REMARK    3  A    between atoms: C_3  and  C_4
REMARK    4  A    between atoms: C_7  and  C_8
REMARK    5  A    between atoms: C_8  and  N_9
REMARK    6  A    between atoms: C_10  and  C_12
REMARK    7  A    between atoms: C_24  and  C_26
REMARK                            x       y       z     vdW  Elec       q    Type
REMARK                         _______ _______ _______ _____ _____    ______ ____
ROOT
ATOM      1  C   UNL     1      45.314   6.721  11.440  0.00  0.00    +0.000 A 
ATOM      2  C   UNL     1      46.543   6.144  11.788  0.00  0.00    +0.000 A 
ATOM      3  C   UNL     1      47.408   6.794  12.671  0.00  0.00    +0.000 A 
ATOM      4  C   UNL     1      47.057   8.031  13.228  0.00  0.00    +0.000 A 
ATOM      5  C   UNL     1      45.846   8.626  12.849  0.00  0.00    +0.000 A 
ATOM      6  C   UNL     1      44.978   7.974  11.969  0.00  0.00    +0.000 A 
ENDROOT
BRANCH   1   7
ATOM      7  C   UNL     1      44.355   5.979  10.539  0.00  0.00    +0.000 C 
BRANCH   7   9
ATOM      8  C   UNL     1      42.822   4.918  12.287  0.00  0.00    +0.000 C 
ATOM      9  N   UNL     1      43.674   4.811  11.111  0.00  0.00    +0.000 N 
ATOM     10  C   UNL     1      43.800   3.523  10.564  0.00  0.00    +0.000 C 
ATOM     11  O   UNL     1      43.160   2.572  11.018  0.00  0.00    +0.000 OA
BRANCH  10  12
ATOM     12  C   UNL     1      44.681   3.322   9.401  0.00  0.00    +0.000 A 
ATOM     13  C   UNL     1      45.366   2.152   9.122  0.00  0.00    +0.000 A 
ATOM     14  N   UNL     1      46.070   2.394   7.978  0.00  0.00    +0.000 N 
ATOM     15  C   UNL     1      45.828   3.686   7.612  0.00  0.00    +0.000 A 
ATOM     16  N   UNL     1      44.987   4.268   8.435  0.00  0.00    +0.000 NA
ATOM     17  H   UNL     1      46.670   1.741   7.492  0.00  0.00    +0.000 HD
ENDBRANCH  10  12
ENDBRANCH   7   9
ENDBRANCH   1   7
BRANCH   4  18
ATOM     18  C   UNL     1      47.979   8.733  14.190  0.00  0.00    +0.000 C 
BRANCH  18  19
ATOM     19  N   UNL     1      48.256   7.904  15.334  0.00  0.00    +0.000 N 
ATOM     20  C   UNL     1      49.449   7.242  15.465  0.00  0.00    +0.000 C 
ATOM     21  O   UNL     1      50.353   7.363  14.642  0.00  0.00    +0.000 OA
ATOM     22  H   UNL     1      47.459   7.611  15.889  0.00  0.00    +0.000 HD
BRANCH  20  23
ATOM     23  C   UNL     1      49.617   6.432  16.676  0.00  0.00    +0.000 A 
ATOM     24  C   UNL     1      50.589   6.777  17.607  0.00  0.00    +0.000 A 
ATOM     25  S   UNL     1      50.607   5.766  18.982  0.00  0.00    +0.000 S 
ATOM     26  C   UNL     1      49.351   4.804  18.359  0.00  0.00    +0.000 A 
ATOM     27  N   UNL     1      48.887   3.726  19.050  0.00  0.00    +0.000 NA
ATOM     28  C   UNL     1      47.951   3.073  18.454  0.00  0.00    +0.000 A 
ATOM     29  N   UNL     1      47.433   3.395  17.225  0.00  0.00    +0.000 N 
ATOM     30  C   UNL     1      47.854   4.484  16.498  0.00  0.00    +0.000 A 
ATOM     31  O   UNL     1      47.351   4.758  15.414  0.00  0.00    +0.000 OA
ATOM     32  C   UNL     1      48.912   5.254  17.129  0.00  0.00    +0.000 A 
ATOM     33  H   UNL     1      46.691   2.847  16.813  0.00  0.00    +0.000 HD
ENDBRANCH  20  23
ENDBRANCH  18  19
ENDBRANCH   4  18
TORSDOF 6
ENDMDL
MODEL 5
REMARK VINA RESULT:    -6.843      3.297      9.137
REMARK INTER + INTRA:         -10.230
REMARK INTER:                  -9.115
REMARK INTRA:                  -1.115
REMARK UNBOUND:                -0.986
REMARK  Name = 
REMARK  7 active torsions:
REMARK  status: ('A' for Active; 'I' for Inactive)
REMARK    1  A    between atoms: C_1  and  N_2
REMARK    2  A    between atoms: N_2  and  C_3
REMARK    3  A    between atoms: C_3  and  C_4
REMARK    4  A    between atoms: C_7  and  C_8
REMARK    5  A    between atoms: C_8  and  N_9
REMARK    6  A    between atoms: C_10  and  C_12
REMARK    7  A    between atoms: C_24  and  C_26
REMARK                            x       y       z     vdW  Elec       q    Type
REMARK                         _______ _______ _______ _____ _____    ______ ____
ROOT
ATOM      1  C   UNL     1      48.864   7.707  16.111  0.00  0.00    +0.000 A 
ATOM      2  C   UNL     1      48.517   8.920  15.499  0.00  0.00    +0.000 A 
ATOM      3  C   UNL     1      48.011   8.941  14.198  0.00  0.00    +0.000 A 
ATOM      4  C   UNL     1      47.837   7.747  13.484  0.00  0.00    +0.000 A 
ATOM      5  C   UNL     1      48.221   6.539  14.082  0.00  0.00    +0.000 A 
ATOM      6  C   UNL     1      48.723   6.517  15.385  0.00  0.00    +0.000 A 
ENDROOT
BRANCH   1   7
ATOM      7  C   UNL     1      49.344   7.688  17.542  0.00  0.00    +0.000 C 
BRANCH   7   9
ATOM      8  C   UNL     1      47.485   8.584  19.048  0.00  0.00    +0.000 C 
ATOM      9  N   UNL     1      48.327   7.492  18.583  0.00  0.00    +0.000 N 
ATOM     10  C   UNL     1      48.103   6.246  19.192  0.00  0.00    +0.000 C 
ATOM     11  O   UNL     1      47.194   6.091  20.010  0.00  0.00    +0.000 OA
BRANCH  10  12
ATOM     12  C   UNL     1      48.945   5.099  18.810  0.00  0.00    +0.000 A 
ATOM     13  C   UNL     1      50.209   4.847  19.313  0.00  0.00    +0.000 A 
ATOM     14  N   UNL     1      50.640   3.711  18.690  0.00  0.00    +0.000 N 
ATOM     15  C   UNL     1      49.663   3.325  17.819  0.00  0.00    +0.000 A 
ATOM     16  N   UNL     1      48.625   4.126  17.876  0.00  0.00    +0.000 NA
ATOM     17  H   UNL     1      51.524   3.243  18.836  0.00  0.00    +0.000 HD
ENDBRANCH  10  12
ENDBRANCH   7   9
ENDBRANCH   1   7
BRANCH   4  18
ATOM     18  C   UNL     1      47.281   7.760  12.084  0.00  0.00    +0.000 C 
BRANCH  18  19
ATOM     19  N   UNL     1      46.653   6.504  11.770  0.00  0.00    +0.000 N 
ATOM     20  C   UNL     1      45.288   6.377  11.733  0.00  0.00    +0.000 C 
ATOM     21  O   UNL     1      44.541   7.334  11.917  0.00  0.00    +0.000 OA
ATOM     22  H   UNL     1      47.230   5.672  11.846  0.00  0.00    +0.000 HD
BRANCH  20  23
ATOM     23  C   UNL     1      44.765   5.049  11.396  0.00  0.00    +0.000 A 
ATOM     24  C   UNL     1      44.012   4.347  12.329  0.00  0.00    +0.000 A 
ATOM     25  S   UNL     1      43.434   2.848  11.752  0.00  0.00    +0.000 S 
ATOM     26  C   UNL     1      44.209   3.063  10.254  0.00  0.00    +0.000 A 
ATOM     27  N   UNL     1      44.129   2.112   9.283  0.00  0.00    +0.000 NA
ATOM     28  C   UNL     1      44.781   2.392   8.208  0.00  0.00    +0.000 A 
ATOM     29  N   UNL     1      45.511   3.537   8.012  0.00  0.00    +0.000 N 
ATOM     30  C   UNL     1      45.605   4.535   8.953  0.00  0.00    +0.000 A 
ATOM     31  O   UNL     1      46.245   5.558   8.735  0.00  0.00    +0.000 OA
ATOM     32  C   UNL     1      44.887   4.265  10.187  0.00  0.00    +0.000 A 
ATOM     33  H   UNL     1      45.994   3.703   7.140  0.00  0.00    +0.000 HD
ENDBRANCH  20  23
ENDBRANCH  18  19
ENDBRANCH   4  18
TORSDOF 6
ENDMDL
MODEL 6
REMARK VINA RESULT:    -6.798      3.519      8.366
REMARK INTER + INTRA:         -10.169
REMARK INTER:                  -8.912
REMARK INTRA:                  -1.257
REMARK UNBOUND:                -0.986
REMARK  Name = 
REMARK  7 active torsions:
REMARK  status: ('A' for Active; 'I' for Inactive)
REMARK    1  A    between atoms: C_1  and  N_2
REMARK    2  A    between atoms: N_2  and  C_3
REMARK    3  A    between atoms: C_3  and  C_4
REMARK    4  A    between atoms: C_7  and  C_8
REMARK    5  A    between atoms: C_8  and  N_9
REMARK    6  A    between atoms: C_10  and  C_12
REMARK    7  A    between atoms: C_24  and  C_26
REMARK                            x       y       z     vdW  Elec       q    Type
REMARK                         _______ _______ _______ _____ _____    ______ ____
ROOT
ATOM      1  C   UNL     1      50.269   6.603  17.386  0.00  0.00    +0.000 A 
ATOM      2  C   UNL     1      49.074   7.278  17.672  0.00  0.00    +0.000 A 
ATOM      3  C   UNL     1      48.428   8.028  16.687  0.00  0.00    +0.000 A 
ATOM      4  C   UNL     1      48.961   8.111  15.394  0.00  0.00    +0.000 A 
ATOM      5  C   UNL     1      50.176   7.468  15.120  0.00  0.00    +0.000 A 
ATOM      6  C   UNL     1      50.820   6.715  16.103  0.00  0.00    +0.000 A 
ENDROOT
BRANCH   1   7
ATOM      7  C   UNL     1      50.923   5.738  18.437  0.00  0.00    +0.000 C 
BRANCH   7   9
ATOM      8  C   UNL     1      52.994   4.338  17.906  0.00  0.00    +0.000 C 
ATOM      9  N   UNL     1      51.548   4.491  17.979  0.00  0.00    +0.000 N 
ATOM     10  C   UNL     1      50.795   3.372  17.582  0.00  0.00    +0.000 C 
ATOM     11  O   UNL     1      51.344   2.313  17.271  0.00  0.00    +0.000 OA
BRANCH  10  12
ATOM     12  C   UNL     1      49.325   3.461  17.583  0.00  0.00    +0.000 A 
ATOM     13  C   UNL     1      48.521   3.234  18.686  0.00  0.00    +0.000 A 
ATOM     14  N   UNL     1      47.237   3.402  18.254  0.00  0.00    +0.000 N 
ATOM     15  C   UNL     1      47.286   3.689  16.921  0.00  0.00    +0.000 A 
ATOM     16  N   UNL     1      48.524   3.748  16.488  0.00  0.00    +0.000 NA
ATOM     17  H   UNL     1      46.398   3.319  18.813  0.00  0.00    +0.000 HD
ENDBRANCH  10  12
ENDBRANCH   7   9
ENDBRANCH   1   7
BRANCH   4  18
ATOM     18  C   UNL     1      48.265   8.909  14.323  0.00  0.00    +0.000 C 
BRANCH  18  19
ATOM     19  N   UNL     1      47.098   8.215  13.845  0.00  0.00    +0.000 N 
ATOM     20  C   UNL     1      47.139   7.444  12.711  0.00  0.00    +0.000 C 
ATOM     21  O   UNL     1      48.178   7.270  12.081  0.00  0.00    +0.000 OA
ATOM     22  H   UNL     1      46.201   8.526  14.205  0.00  0.00    +0.000 HD
BRANCH  20  23
ATOM     23  C   UNL     1      45.887   6.782  12.327  0.00  0.00    +0.000 A 
ATOM     24  C   UNL     1      44.855   7.529  11.774  0.00  0.00    +0.000 A 
ATOM     25  S   UNL     1      43.497   6.594  11.331  0.00  0.00    +0.000 S 
ATOM     26  C   UNL     1      44.223   5.168  11.906  0.00  0.00    +0.000 A 
ATOM     27  N   UNL     1      43.569   3.975  11.843  0.00  0.00    +0.000 NA
ATOM     28  C   UNL     1      44.223   2.981  12.334  0.00  0.00    +0.000 A 
ATOM     29  N   UNL     1      45.476   3.066  12.888  0.00  0.00    +0.000 N 
ATOM     30  C   UNL     1      46.184   4.242  12.957  0.00  0.00    +0.000 A 
ATOM     31  O   UNL     1      47.313   4.278  13.435  0.00  0.00    +0.000 OA
ATOM     32  C   UNL     1      45.486   5.396  12.415  0.00  0.00    +0.000 A 
ATOM     33  H   UNL     1      45.941   2.246  13.249  0.00  0.00    +0.000 HD
ENDBRANCH  20  23
ENDBRANCH  18  19
ENDBRANCH   4  18
TORSDOF 6
ENDMDL
MODEL 7
REMARK VINA RESULT:    -6.687      3.722      8.519
REMARK INTER + INTRA:         -10.019
REMARK INTER:                  -8.812
REMARK INTRA:                  -1.207
REMARK UNBOUND:                -0.986
REMARK  Name = 
REMARK  7 active torsions:
REMARK  status: ('A' for Active; 'I' for Inactive)
REMARK    1  A    between atoms: C_1  and  N_2
REMARK    2  A    between atoms: N_2  and  C_3
REMARK    3  A    between atoms: C_3  and  C_4
REMARK    4  A    between atoms: C_7  and  C_8
REMARK    5  A    between atoms: C_8  and  N_9
REMARK    6  A    between atoms: C_10  and  C_12
REMARK    7  A    between atoms: C_24  and  C_26
REMARK                            x       y       z     vdW  Elec       q    Type
REMARK                         _______ _______ _______ _____ _____    ______ ____
ROOT
ATOM      1  C   UNL     1      49.088   7.526  16.247  0.00  0.00    +0.000 A 
ATOM      2  C   UNL     1      48.304   8.645  15.937  0.00  0.00    +0.000 A 
ATOM      3  C   UNL     1      47.954   8.924  14.614  0.00  0.00    +0.000 A 
ATOM      4  C   UNL     1      48.376   8.082  13.575  0.00  0.00    +0.000 A 
ATOM      5  C   UNL     1      49.193   6.985  13.882  0.00  0.00    +0.000 A 
ATOM      6  C   UNL     1      49.539   6.704  15.206  0.00  0.00    +0.000 A 
ENDROOT
BRANCH   1   7
ATOM      7  C   UNL     1      49.403   7.194  17.686  0.00  0.00    +0.000 C 
BRANCH   7   9
ATOM      8  C   UNL     1      47.865   8.234  19.442  0.00  0.00    +0.000 C 
ATOM      9  N   UNL     1      48.268   7.107  18.613  0.00  0.00    +0.000 N 
ATOM     10  C   UNL     1      47.502   5.937  18.758  0.00  0.00    +0.000 C 
ATOM     11  O   UNL     1      46.509   5.913  19.489  0.00  0.00    +0.000 OA
BRANCH  10  12
ATOM     12  C   UNL     1      47.873   4.738  17.989  0.00  0.00    +0.000 A 
ATOM     13  C   UNL     1      48.847   3.830  18.363  0.00  0.00    +0.000 A 
ATOM     14  N   UNL     1      48.883   2.890  17.374  0.00  0.00    +0.000 N 
ATOM     15  C   UNL     1      47.973   3.256  16.426  0.00  0.00    +0.000 A 
ATOM     16  N   UNL     1      47.337   4.352  16.769  0.00  0.00    +0.000 NA
ATOM     17  H   UNL     1      49.481   2.075  17.340  0.00  0.00    +0.000 HD
ENDBRANCH  10  12
ENDBRANCH   7   9
ENDBRANCH   1   7
BRANCH   4  18
ATOM     18  C   UNL     1      47.993   8.369  12.147  0.00  0.00    +0.000 C 
BRANCH  18  19
ATOM     19  N   UNL     1      47.385   7.215  11.538  0.00  0.00    +0.000 N 
ATOM     20  C   UNL     1      46.023   7.064  11.497  0.00  0.00    +0.000 C 
ATOM     21  O   UNL     1      45.259   7.922  11.932  0.00  0.00    +0.000 OA
ATOM     22  H   UNL     1      47.982   6.408  11.389  0.00  0.00    +0.000 HD
BRANCH  20  23
ATOM     23  C   UNL     1      45.521   5.850  10.844  0.00  0.00    +0.000 A 
ATOM     24  C   UNL     1      45.793   5.626   9.501  0.00  0.00    +0.000 A 
ATOM     25  S   UNL     1      45.186   4.141   8.918  0.00  0.00    +0.000 S 
ATOM     26  C   UNL     1      44.497   3.768  10.427  0.00  0.00    +0.000 A 
ATOM     27  N   UNL     1      43.798   2.614  10.611  0.00  0.00    +0.000 NA
ATOM     28  C   UNL     1      43.311   2.468  11.794  0.00  0.00    +0.000 A 
ATOM     29  N   UNL     1      43.455   3.372  12.816  0.00  0.00    +0.000 N 
ATOM     30  C   UNL     1      44.168   4.540  12.687  0.00  0.00    +0.000 A 
ATOM     31  O   UNL     1      44.299   5.314  13.629  0.00  0.00    +0.000 OA
ATOM     32  C   UNL     1      44.737   4.752  11.366  0.00  0.00    +0.000 A 
ATOM     33  H   UNL     1      43.056   3.195  13.727  0.00  0.00    +0.000 HD
ENDBRANCH  20  23
ENDBRANCH  18  19
ENDBRANCH   4  18
TORSDOF 6
ENDMDL
MODEL 8
REMARK VINA RESULT:    -6.526      5.927      9.081
REMARK INTER + INTRA:          -9.802
REMARK INTER:                  -8.805
REMARK INTRA:                  -0.996
REMARK UNBOUND:                -0.986
REMARK  Name = 
REMARK  7 active torsions:
REMARK  status: ('A' for Active; 'I' for Inactive)
REMARK    1  A    between atoms: C_1  and  N_2
REMARK    2  A    between atoms: N_2  and  C_3
REMARK    3  A    between atoms: C_3  and  C_4
REMARK    4  A    between atoms: C_7  and  C_8
REMARK    5  A    between atoms: C_8  and  N_9
REMARK    6  A    between atoms: C_10  and  C_12
REMARK    7  A    between atoms: C_24  and  C_26
REMARK                            x       y       z     vdW  Elec       q    Type
REMARK                         _______ _______ _______ _____ _____    ______ ____
ROOT
ATOM      1  C   UNL     1      50.220   9.030  11.381  0.00  0.00    +0.000 A 
ATOM      2  C   UNL     1      49.341  10.070  11.713  0.00  0.00    +0.000 A 
ATOM      3  C   UNL     1      48.074   9.792  12.232  0.00  0.00    +0.000 A 
ATOM      4  C   UNL     1      47.665   8.467  12.436  0.00  0.00    +0.000 A 
ATOM      5  C   UNL     1      48.529   7.427  12.067  0.00  0.00    +0.000 A 
ATOM      6  C   UNL     1      49.798   7.705  11.552  0.00  0.00    +0.000 A 
ENDROOT
BRANCH   1   7
ATOM      7  C   UNL     1      51.612   9.340  10.887  0.00  0.00    +0.000 C 
BRANCH   7   9
ATOM      8  C   UNL     1      53.071   8.627  12.860  0.00  0.00    +0.000 C 
ATOM      9  N   UNL     1      52.711   8.548  11.451  0.00  0.00    +0.000 N 
ATOM     10  C   UNL     1      53.482   7.667  10.673  0.00  0.00    +0.000 C 
ATOM     11  O   UNL     1      54.351   6.958  11.186  0.00  0.00    +0.000 OA
BRANCH  10  12
ATOM     12  C   UNL     1      53.212   7.563   9.229  0.00  0.00    +0.000 A 
ATOM     13  C   UNL     1      53.684   8.445   8.273  0.00  0.00    +0.000 A 
ATOM     14  N   UNL     1      53.194   8.000   7.079  0.00  0.00    +0.000 N 
ATOM     15  C   UNL     1      52.426   6.901   7.334  0.00  0.00    +0.000 A 
ATOM     16  N   UNL     1      52.427   6.601   8.612  0.00  0.00    +0.000 NA
ATOM     17  H   UNL     1      53.358   8.412   6.170  0.00  0.00    +0.000 HD
ENDBRANCH  10  12
ENDBRANCH   7   9
ENDBRANCH   1   7
BRANCH   4  18
ATOM     18  C   UNL     1      46.305   8.160  13.005  0.00  0.00    +0.000 C 
BRANCH  18  19
ATOM     19  N   UNL     1      45.888   6.830  12.647  0.00  0.00    +0.000 N 
ATOM     20  C   UNL     1      44.804   6.617  11.834  0.00  0.00    +0.000 C 
ATOM     21  O   UNL     1      44.170   7.544  11.338  0.00  0.00    +0.000 OA
ATOM     22  H   UNL     1      46.241   6.070  13.218  0.00  0.00    +0.000 HD
BRANCH  20  23
ATOM     23  C   UNL     1      44.478   5.218  11.535  0.00  0.00    +0.000 A 
ATOM     24  C   UNL     1      43.752   4.467  12.450  0.00  0.00    +0.000 A 
ATOM     25  S   UNL     1      43.412   2.882  11.918  0.00  0.00    +0.000 S 
ATOM     26  C   UNL     1      44.264   3.127  10.467  0.00  0.00    +0.000 A 
ATOM     27  N   UNL     1      44.378   2.131   9.546  0.00  0.00    +0.000 NA
ATOM     28  C   UNL     1      45.069   2.444   8.505  0.00  0.00    +0.000 A 
ATOM     29  N   UNL     1      45.662   3.664   8.297  0.00  0.00    +0.000 N 
ATOM     30  C   UNL     1      45.559   4.707   9.187  0.00  0.00    +0.000 A 
ATOM     31  O   UNL     1      46.079   5.793   8.958  0.00  0.00    +0.000 OA
ATOM     32  C   UNL     1      44.789   4.402  10.381  0.00  0.00    +0.000 A 
ATOM     33  H   UNL     1      46.185   3.851   7.454  0.00  0.00    +0.000 HD
ENDBRANCH  20  23
ENDBRANCH  18  19
ENDBRANCH   4  18
TORSDOF 6
ENDMDL
MODEL 9
REMARK VINA RESULT:    -6.503      5.875      9.328
REMARK INTER + INTRA:          -9.769
REMARK INTER:                  -8.865
REMARK INTRA:                  -0.904
REMARK UNBOUND:                -0.986
REMARK  Name = 
REMARK  7 active torsions:
REMARK  status: ('A' for Active; 'I' for Inactive)
REMARK    1  A    between atoms: C_1  and  N_2
REMARK    2  A    between atoms: N_2  and  C_3
REMARK    3  A    between atoms: C_3  and  C_4
REMARK    4  A    between atoms: C_7  and  C_8
REMARK    5  A    between atoms: C_8  and  N_9
REMARK    6  A    between atoms: C_10  and  C_12
REMARK    7  A    between atoms: C_24  and  C_26
REMARK                            x       y       z     vdW  Elec       q    Type
REMARK                         _______ _______ _______ _____ _____    ______ ____
ROOT
ATOM      1  C   UNL     1      51.101   8.868  11.195  0.00  0.00    +0.000 A 
ATOM      2  C   UNL     1      50.326  10.029  11.324  0.00  0.00    +0.000 A 
ATOM      3  C   UNL     1      48.970   9.947  11.647  0.00  0.00    +0.000 A 
ATOM      4  C   UNL     1      48.364   8.700  11.855  0.00  0.00    +0.000 A 
ATOM      5  C   UNL     1      49.130   7.538  11.687  0.00  0.00    +0.000 A 
ATOM      6  C   UNL     1      50.487   7.621  11.367  0.00  0.00    +0.000 A 
ENDROOT
BRANCH   1   7
ATOM      7  C   UNL     1      52.581   8.970  10.914  0.00  0.00    +0.000 C 
BRANCH   7   9
ATOM      8  C   UNL     1      52.619   9.958   8.558  0.00  0.00    +0.000 C 
ATOM      9  N   UNL     1      52.996   8.920   9.506  0.00  0.00    +0.000 N 
ATOM     10  C   UNL     1      53.778   7.874   8.988  0.00  0.00    +0.000 C 
ATOM     11  O   UNL     1      54.174   7.893   7.820  0.00  0.00    +0.000 OA
BRANCH  10  12
ATOM     12  C   UNL     1      54.163   6.761   9.872  0.00  0.00    +0.000 A 
ATOM     13  C   UNL     1      53.566   5.513   9.875  0.00  0.00    +0.000 A 
ATOM     14  N   UNL     1      54.204   4.795  10.845  0.00  0.00    +0.000 N 
ATOM     15  C   UNL     1      55.131   5.614  11.419  0.00  0.00    +0.000 A 
ATOM     16  N   UNL     1      55.145   6.797  10.850  0.00  0.00    +0.000 NA
ATOM     17  H   UNL     1      54.019   3.835  11.102  0.00  0.00    +0.000 HD
ENDBRANCH  10  12
ENDBRANCH   7   9
ENDBRANCH   1   7
BRANCH   4  18
ATOM     18  C   UNL     1      46.905   8.603  12.215  0.00  0.00    +0.000 C 
BRANCH  18  19
ATOM     19  N   UNL     1      46.432   7.250  12.083  0.00  0.00    +0.000 N 
ATOM     20  C   UNL     1      45.186   6.974  11.581  0.00  0.00    +0.000 C 
ATOM     21  O   UNL     1      44.437   7.860  11.179  0.00  0.00    +0.000 OA
ATOM     22  H   UNL     1      46.926   6.539  12.612  0.00  0.00    +0.000 HD
BRANCH  20  23
ATOM     23  C   UNL     1      44.819   5.557  11.488  0.00  0.00    +0.000 A 
ATOM     24  C   UNL     1      44.183   4.938  12.557  0.00  0.00    +0.000 A 
ATOM     25  S   UNL     1      43.776   3.308  12.260  0.00  0.00    +0.000 S 
ATOM     26  C   UNL     1      44.478   3.358  10.711  0.00  0.00    +0.000 A 
ATOM     27  N   UNL     1      44.488   2.256   9.912  0.00  0.00    +0.000 NA
ATOM     28  C   UNL     1      45.071   2.425   8.777  0.00  0.00    +0.000 A 
ATOM     29  N   UNL     1      45.651   3.599   8.363  0.00  0.00    +0.000 N 
ATOM     30  C   UNL     1      45.649   4.743   9.125  0.00  0.00    +0.000 A 
ATOM     31  O   UNL     1      46.153   5.782   8.714  0.00  0.00    +0.000 OA
ATOM     32  C   UNL     1      45.002   4.602  10.418  0.00  0.00    +0.000 A 
ATOM     33  H   UNL     1      46.086   3.671   7.455  0.00  0.00    +0.000 HD
ENDBRANCH  20  23
ENDBRANCH  18  19
ENDBRANCH   4  18
TORSDOF 6
ENDMDL
