MODEL 1
REMARK VINA RESULT:    -8.281      0.000      0.000
REMARK INTER + INTRA:         -13.145
REMARK INTER:                 -11.912
REMARK INTRA:                  -1.233
REMARK UNBOUND:                -1.233
REMARK  Name = 
REMARK  8 active torsions:
REMARK  status: ('A' for Active; 'I' for Inactive)
REMARK    1  A    between atoms: N_1  and  C_2
REMARK    2  A    between atoms: C_2  and  C_3
REMARK    3  A    between atoms: C_3  and  N_4
REMARK    4  A    between atoms: C_3  and  C_13
REMARK    5  A    between atoms: C_5  and  C_7
REMARK    6  A    between atoms: C_16  and  C_17
REMARK    7  A    between atoms: C_17  and  N_18
REMARK    8  A    between atoms: C_19  and  C_21
REMARK                            x       y       z     vdW  Elec       q    Type
REMARK                         _______ _______ _______ _____ _____    ______ ____
ROOT
ATOM      1  C   UNL     1      45.451   5.096  11.827  0.00  0.00    +0.000 A 
ATOM      2  C   UNL     1      46.020   4.639  13.018  0.00  0.00    +0.000 A 
ATOM      3  C   UNL     1      46.987   5.415  13.660  0.00  0.00    +0.000 A 
ATOM      4  C   UNL     1      47.365   6.644  13.120  0.00  0.00    +0.000 A 
ATOM      5  C   UNL     1      46.767   7.012  11.920  0.00  0.00    +0.000 A 
ATOM      6  N   UNL     1      45.823   6.279  11.278  0.00  0.00    +0.000 NA
ENDROOT
BRANCH   1   7
ATOM      7  C   UNL     1      44.397   4.260  11.086  0.00  0.00    +0.000 C 
BRANCH   7   8
ATOM      8  N   UNL     1      44.909   3.844   9.770  0.00  0.00    +0.000 N 
ATOM      9  C   UNL     1      44.694   2.579   9.258  0.00  0.00    +0.000 C 
ATOM     10  O   UNL     1      43.992   1.743   9.816  0.00  0.00    +0.000 OA
ATOM     11  H   UNL     1      45.606   4.434   9.332  0.00  0.00    +0.000 HD
BRANCH   9  12
ATOM     12  C   UNL     1      45.395   2.314   7.929  0.00  0.00    +0.000 C 
ATOM     13  C   UNL     1      46.081   3.586   7.421  0.00  0.00    +0.000 C 
ATOM     14  C   UNL     1      46.872   3.305   6.146  0.00  0.00    +0.000 C 
ATOM     15  C   UNL     1      47.828   2.127   6.324  0.00  0.00    +0.000 C 
ATOM     16  N   UNL     1      47.120   0.934   6.787  0.00  0.00    +0.000 NA
ATOM     17  C   UNL     1      46.430   1.184   8.062  0.00  0.00    +0.000 C 
ATOM     18  H   UNL     1      47.793   0.178   6.919  0.00  0.00    +0.000 HD
ENDBRANCH   9  12
ENDBRANCH   7   8
BRANCH   7  19
ATOM     19  C   UNL     1      43.051   5.042  10.957  0.00  0.00    +0.000 C 
BRANCH  19  20
ATOM     20  N   UNL     1      42.711   5.917  12.087  0.00  0.00    +0.000 NA
ATOM     21  H   UNL     1      43.121   5.538  12.938  0.00  0.00    +0.000 HD
ATOM     22  H   UNL     1      41.700   5.943  12.226  0.00  0.00    +0.000 HD
ENDBRANCH  19  20
ENDBRANCH   7  19
ENDBRANCH   1   7
BRANCH   4  23
ATOM     23  C   UNL     1      48.383   7.529  13.783  0.00  0.00    +0.000 C 
BRANCH  23  24
ATOM     24  N   UNL     1      48.288   7.464  15.220  0.00  0.00    +0.000 N 
ATOM     25  C   UNL     1      49.329   7.005  15.988  0.00  0.00    +0.000 C 
ATOM     26  O   UNL     1      50.408   6.681  15.501  0.00  0.00    +0.000 OA
ATOM     27  H   UNL     1      47.355   7.468  15.619  0.00  0.00    +0.000 HD
BRANCH  25  28
ATOM     28  C   UNL     1      49.101   6.984  17.439  0.00  0.00    +0.000 A 
ATOM     29  C   UNL     1      48.960   8.175  18.138  0.00  0.00    +0.000 A 
ATOM     30  S   UNL     1      48.631   7.957  19.799  0.00  0.00    +0.000 S 
ATOM     31  C   UNL     1      48.729   6.265  19.652  0.00  0.00    +0.000 A 
ATOM     32  N   UNL     1      48.566   5.456  20.733  0.00  0.00    +0.000 NA
ATOM     33  C   UNL     1      48.698   4.196  20.483  0.00  0.00    +0.000 A 
ATOM     34  N   UNL     1      48.973   3.671  19.247  0.00  0.00    +0.000 N 
ATOM     35  C   UNL     1      49.112   4.446  18.121  0.00  0.00    +0.000 A 
ATOM     36  O   UNL     1      49.303   3.943  17.023  0.00  0.00    +0.000 OA
ATOM     37  C   UNL     1      48.986   5.872  18.352  0.00  0.00    +0.000 A 
ATOM     38  H   UNL     1      49.057   2.674  19.117  0.00  0.00    +0.000 HD
ENDBRANCH  25  28
ENDBRANCH  23  24
ENDBRANCH   4  23
TORSDOF 8
ENDMDL
MODEL 2
REMARK VINA RESULT:    -8.249      1.454      2.169
REMARK INTER + INTRA:         -13.099
REMARK INTER:                 -11.819
REMARK INTRA:                  -1.279
REMARK UNBOUND:                -1.233
REMARK  Name = 
REMARK  8 active torsions:
REMARK  status: ('A' for Active; 'I' for Inactive)
REMARK    1  A    between atoms: N_1  and  C_2
REMARK    2  A    between atoms: C_2  and  C_3
REMARK    3  A    between atoms: C_3  and  N_4
REMARK    4  A    between atoms: C_3  and  C_13
REMARK    5  A    between atoms: C_5  and  C_7
REMARK    6  A    between atoms: C_16  and  C_17
REMARK    7  A    between atoms: C_17  and  N_18
REMARK    8  A    between atoms: C_19  and  C_21
REMARK                            x       y       z     vdW  Elec       q    Type
REMARK                         _______ _______ _______ _____ _____    ______ ____
ROOT
ATOM      1  C   UNL     1      45.475   5.069  11.885  0.00  0.00    +0.000 A 
ATOM      2  C   UNL     1      46.163   6.146  11.320  0.00  0.00    +0.000 A 
ATOM      3  C   UNL     1      47.149   6.797  12.063  0.00  0.00    +0.000 A 
ATOM      4  C   UNL     1      47.453   6.359  13.352  0.00  0.00    +0.000 A 
ATOM      5  C   UNL     1      46.705   5.298  13.846  0.00  0.00    +0.000 A 
ATOM      6  N   UNL     1      45.743   4.645  13.145  0.00  0.00    +0.000 NA
ENDROOT
BRANCH   1   7
ATOM      7  C   UNL     1      44.372   4.341  11.102  0.00  0.00    +0.000 C 
BRANCH   7   8
ATOM      8  N   UNL     1      44.870   3.933   9.778  0.00  0.00    +0.000 N 
ATOM      9  C   UNL     1      44.689   2.658   9.279  0.00  0.00    +0.000 C 
ATOM     10  O   UNL     1      44.028   1.802   9.858  0.00  0.00    +0.000 OA
ATOM     11  H   UNL     1      45.536   4.544   9.322  0.00  0.00    +0.000 HD
BRANCH   9  12
ATOM     12  C   UNL     1      45.370   2.408   7.938  0.00  0.00    +0.000 C 
ATOM     13  C   UNL     1      46.123   3.660   7.476  0.00  0.00    +0.000 C 
ATOM     14  C   UNL     1      46.893   3.387   6.187  0.00  0.00    +0.000 C 
ATOM     15  C   UNL     1      47.784   2.153   6.314  0.00  0.00    +0.000 C 
ATOM     16  N   UNL     1      47.014   0.982   6.733  0.00  0.00    +0.000 NA
ATOM     17  C   UNL     1      46.342   1.219   8.021  0.00  0.00    +0.000 C 
ATOM     18  H   UNL     1      47.644   0.186   6.832  0.00  0.00    +0.000 HD
ENDBRANCH   9  12
ENDBRANCH   7   8
BRANCH   7  19
ATOM     19  C   UNL     1      43.090   5.225  10.986  0.00  0.00    +0.000 C 
BRANCH  19  20
ATOM     20  N   UNL     1      42.688   5.931  12.211  0.00  0.00    +0.000 NA
ATOM     21  H   UNL     1      43.361   6.670  12.405  0.00  0.00    +0.000 HD
ATOM     22  H   UNL     1      42.701   5.295  13.008  0.00  0.00    +0.000 HD
ENDBRANCH  19  20
ENDBRANCH   7  19
ENDBRANCH   1   7
BRANCH   4  23
ATOM     23  C   UNL     1      48.522   7.009  14.184  0.00  0.00    +0.000 C 
BRANCH  23  24
ATOM     24  N   UNL     1      48.299   6.803  15.594  0.00  0.00    +0.000 N 
ATOM     25  C   UNL     1      49.307   6.388  16.427  0.00  0.00    +0.000 C 
ATOM     26  O   UNL     1      50.458   6.225  16.031  0.00  0.00    +0.000 OA
ATOM     27  H   UNL     1      47.337   6.672  15.891  0.00  0.00    +0.000 HD
BRANCH  25  28
ATOM     28  C   UNL     1      48.946   6.209  17.839  0.00  0.00    +0.000 A 
ATOM     29  C   UNL     1      49.165   4.989  18.464  0.00  0.00    +0.000 A 
ATOM     30  S   UNL     1      48.752   4.985  20.120  0.00  0.00    +0.000 S 
ATOM     31  C   UNL     1      48.206   6.595  20.043  0.00  0.00    +0.000 A 
ATOM     32  N   UNL     1      47.689   7.213  21.138  0.00  0.00    +0.000 NA
ATOM     33  C   UNL     1      47.284   8.422  20.928  0.00  0.00    +0.000 A 
ATOM     34  N   UNL     1      47.356   9.070  19.723  0.00  0.00    +0.000 N 
ATOM     35  C   UNL     1      47.901   8.498  18.599  0.00  0.00    +0.000 A 
ATOM     36  O   UNL     1      48.000   9.122  17.552  0.00  0.00    +0.000 OA
ATOM     37  C   UNL     1      48.358   7.133  18.779  0.00  0.00    +0.000 A 
ATOM     38  H   UNL     1      47.028  10.019  19.627  0.00  0.00    +0.000 HD
ENDBRANCH  25  28
ENDBRANCH  23  24
ENDBRANCH   4  23
TORSDOF 8
ENDMDL
MODEL 3
REMARK VINA RESULT:    -8.017      2.041      2.297
REMARK INTER + INTRA:         -12.765
REMARK INTER:                 -11.599
REMARK INTRA:                  -1.166
REMARK UNBOUND:                -1.233
REMARK  Name = 
REMARK  8 active torsions:
REMARK  status: ('A' for Active; 'I' for Inactive)
REMARK    1  A    between atoms: N_1  and  C_2
REMARK    2  A    between atoms: C_2  and  C_3
REMARK    3  A    between atoms: C_3  and  N_4
REMARK    4  A    between atoms: C_3  and  C_13
REMARK    5  A    between atoms: C_5  and  C_7
REMARK    6  A    between atoms: C_16  and  C_17
REMARK    7  A    between atoms: C_17  and  N_18
REMARK    8  A    between atoms: C_19  and  C_21
REMARK                            x       y       z     vdW  Elec       q    Type
REMARK                         _______ _______ _______ _____ _____    ______ ____
ROOT
ATOM      1  C   UNL     1      45.524   4.667  12.351  0.00  0.00    +0.000 A 
ATOM      2  C   UNL     1      46.263   4.066  13.373  0.00  0.00    +0.000 A 
ATOM      3  C   UNL     1      47.164   4.833  14.113  0.00  0.00    +0.000 A 
ATOM      4  C   UNL     1      47.307   6.194  13.842  0.00  0.00    +0.000 A 
ATOM      5  C   UNL     1      46.552   6.707  12.793  0.00  0.00    +0.000 A 
ATOM      6  N   UNL     1      45.667   5.984  12.060  0.00  0.00    +0.000 NA
ENDROOT
BRANCH   1   7
ATOM      7  C   UNL     1      44.537   3.849  11.506  0.00  0.00    +0.000 C 
BRANCH   7   8
ATOM      8  N   UNL     1      45.085   3.621  10.159  0.00  0.00    +0.000 N 
ATOM      9  C   UNL     1      44.713   2.543   9.380  0.00  0.00    +0.000 C 
ATOM     10  O   UNL     1      43.839   1.750   9.712  0.00  0.00    +0.000 OA
ATOM     11  H   UNL     1      45.904   4.155   9.892  0.00  0.00    +0.000 HD
BRANCH   9  12
ATOM     12  C   UNL     1      45.473   2.430   8.062  0.00  0.00    +0.000 C 
ATOM     13  C   UNL     1      46.237   3.726   7.770  0.00  0.00    +0.000 C 
ATOM     14  C   UNL     1      47.082   3.585   6.507  0.00  0.00    +0.000 C 
ATOM     15  C   UNL     1      47.978   2.350   6.564  0.00  0.00    +0.000 C 
ATOM     16  N   UNL     1      47.198   1.139   6.821  0.00  0.00    +0.000 NA
ATOM     17  C   UNL     1      46.451   1.244   8.085  0.00  0.00    +0.000 C 
ATOM     18  H   UNL     1      47.831   0.341   6.878  0.00  0.00    +0.000 HD
ENDBRANCH   9  12
ENDBRANCH   7   8
BRANCH   7  19
ATOM     19  C   UNL     1      43.139   4.544  11.447  0.00  0.00    +0.000 C 
BRANCH  19  20
ATOM     20  N   UNL     1      43.058   5.743  10.601  0.00  0.00    +0.000 NA
ATOM     21  H   UNL     1      42.637   5.493   9.709  0.00  0.00    +0.000 HD
ATOM     22  H   UNL     1      43.992   6.103  10.404  0.00  0.00    +0.000 HD
ENDBRANCH  19  20
ENDBRANCH   7  19
ENDBRANCH   1   7
BRANCH   4  23
ATOM     23  C   UNL     1      48.244   7.070  14.625  0.00  0.00    +0.000 C 
BRANCH  23  24
ATOM     24  N   UNL     1      49.298   6.304  15.242  0.00  0.00    +0.000 N 
ATOM     25  C   UNL     1      49.327   6.085  16.596  0.00  0.00    +0.000 C 
ATOM     26  O   UNL     1      48.434   6.478  17.342  0.00  0.00    +0.000 OA
ATOM     27  H   UNL     1      50.159   6.200  14.714  0.00  0.00    +0.000 HD
BRANCH  25  28
ATOM     28  C   UNL     1      50.459   5.295  17.098  0.00  0.00    +0.000 A 
ATOM     29  C   UNL     1      51.599   5.934  17.567  0.00  0.00    +0.000 A 
ATOM     30  S   UNL     1      52.780   4.863  18.177  0.00  0.00    +0.000 S 
ATOM     31  C   UNL     1      51.835   3.506  17.777  0.00  0.00    +0.000 A 
ATOM     32  N   UNL     1      52.282   2.244  18.016  0.00  0.00    +0.000 NA
ATOM     33  C   UNL     1      51.476   1.310  17.633  0.00  0.00    +0.000 A 
ATOM     34  N   UNL     1      50.260   1.524  17.039  0.00  0.00    +0.000 N 
ATOM     35  C   UNL     1      49.752   2.780  16.809  0.00  0.00    +0.000 A 
ATOM     36  O   UNL     1      48.640   2.938  16.326  0.00  0.00    +0.000 OA
ATOM     37  C   UNL     1      50.627   3.866  17.208  0.00  0.00    +0.000 A 
ATOM     38  H   UNL     1      49.673   0.749  16.769  0.00  0.00    +0.000 HD
ENDBRANCH  25  28
ENDBRANCH  23  24
ENDBRANCH   4  23
TORSDOF 8
ENDMDL
MODEL 4
REMARK VINA RESULT:    -7.569      1.627      2.065
REMARK INTER + INTRA:         -12.121
REMARK INTER:                 -11.090
REMARK INTRA:                  -1.031
REMARK UNBOUND:                -1.233
REMARK  Name = 
REMARK  8 active torsions:
REMARK  status: ('A' for Active; 'I' for Inactive)
REMARK    1  A    between atoms: N_1  and  C_2
REMARK    2  A    between atoms: C_2  and  C_3
REMARK    3  A    between atoms: C_3  and  N_4
REMARK    4  A    between atoms: C_3  and  C_13
REMARK    5  A    between atoms: C_5  and  C_7
REMARK    6  A    between atoms: C_16  and  C_17
REMARK    7  A    between atoms: C_17  and  N_18
REMARK    8  A    between atoms: C_19  and  C_21
REMARK                            x       y       z     vdW  Elec       q    Type
REMARK                         _______ _______ _______ _____ _____    ______ ____
ROOT
ATOM      1  C   UNL     1      45.384   5.629  12.093  0.00  0.00    +0.000 A 
ATOM      2  C   UNL     1      45.375   6.986  11.758  0.00  0.00    +0.000 A 
ATOM      3  C   UNL     1      46.284   7.851  12.369  0.00  0.00    +0.000 A 
ATOM      4  C   UNL     1      47.205   7.356  13.292  0.00  0.00    +0.000 A 
ATOM      5  C   UNL     1      47.129   5.999  13.585  0.00  0.00    +0.000 A 
ATOM      6  N   UNL     1      46.258   5.136  13.005  0.00  0.00    +0.000 NA
ENDROOT
BRANCH   1   7
ATOM      7  C   UNL     1      44.386   4.652  11.454  0.00  0.00    +0.000 C 
BRANCH   7   8
ATOM      8  N   UNL     1      44.870   4.222  10.132  0.00  0.00    +0.000 N 
ATOM      9  C   UNL     1      44.570   2.982   9.601  0.00  0.00    +0.000 C 
ATOM     10  O   UNL     1      43.811   2.188  10.147  0.00  0.00    +0.000 OA
ATOM     11  H   UNL     1      45.606   4.769   9.703  0.00  0.00    +0.000 HD
BRANCH   9  12
ATOM     12  C   UNL     1      45.253   2.689   8.269  0.00  0.00    +0.000 C 
ATOM     13  C   UNL     1      46.083   3.894   7.815  0.00  0.00    +0.000 C 
ATOM     14  C   UNL     1      46.852   3.573   6.537  0.00  0.00    +0.000 C 
ATOM     15  C   UNL     1      47.668   2.290   6.677  0.00  0.00    +0.000 C 
ATOM     16  N   UNL     1      46.826   1.167   7.089  0.00  0.00    +0.000 NA
ATOM     17  C   UNL     1      46.152   1.446   8.367  0.00  0.00    +0.000 C 
ATOM     18  H   UNL     1      47.408   0.336   7.197  0.00  0.00    +0.000 HD
ENDBRANCH   9  12
ENDBRANCH   7   8
BRANCH   7  19
ATOM     19  C   UNL     1      42.961   5.284  11.365  0.00  0.00    +0.000 C 
BRANCH  19  20
ATOM     20  N   UNL     1      42.304   5.561  12.650  0.00  0.00    +0.000 NA
ATOM     21  H   UNL     1      42.414   4.754  13.261  0.00  0.00    +0.000 HD
ATOM     22  H   UNL     1      41.303   5.702  12.515  0.00  0.00    +0.000 HD
ENDBRANCH  19  20
ENDBRANCH   7  19
ENDBRANCH   1   7
BRANCH   4  23
ATOM     23  C   UNL     1      48.220   8.240  13.959  0.00  0.00    +0.000 C 
BRANCH  23  24
ATOM     24  N   UNL     1      47.884   8.489  15.339  0.00  0.00    +0.000 N 
ATOM     25  C   UNL     1      48.607   9.369  16.105  0.00  0.00    +0.000 C 
ATOM     26  O   UNL     1      49.535  10.028  15.645  0.00  0.00    +0.000 OA
ATOM     27  H   UNL     1      47.318   7.789  15.806  0.00  0.00    +0.000 HD
BRANCH  25  28
ATOM     28  C   UNL     1      48.165   9.527  17.496  0.00  0.00    +0.000 A 
ATOM     29  C   UNL     1      47.825  10.783  17.980  0.00  0.00    +0.000 A 
ATOM     30  S   UNL     1      47.268  10.766  19.593  0.00  0.00    +0.000 S 
ATOM     31  C   UNL     1      47.522   9.089  19.721  0.00  0.00    +0.000 A 
ATOM     32  N   UNL     1      47.264   8.426  20.880  0.00  0.00    +0.000 NA
ATOM     33  C   UNL     1      47.533   7.163  20.845  0.00  0.00    +0.000 A 
ATOM     34  N   UNL     1      48.032   6.502  19.754  0.00  0.00    +0.000 N 
ATOM     35  C   UNL     1      48.276   7.123  18.553  0.00  0.00    +0.000 A 
ATOM     36  O   UNL     1      48.671   6.494  17.581  0.00  0.00    +0.000 OA
ATOM     37  C   UNL     1      48.004   8.547  18.544  0.00  0.00    +0.000 A 
ATOM     38  H   UNL     1      48.214   5.511  19.790  0.00  0.00    +0.000 HD
ENDBRANCH  25  28
ENDBRANCH  23  24
ENDBRANCH   4  23
TORSDOF 8
ENDMDL
MODEL 5
REMARK VINA RESULT:    -7.551      3.294      4.913
REMARK INTER + INTRA:         -12.095
REMARK INTER:                 -10.818
REMARK INTRA:                  -1.278
REMARK UNBOUND:                -1.233
REMARK  Name = 
REMARK  8 active torsions:
REMARK  status: ('A' for Active; 'I' for Inactive)
REMARK    1  A    between atoms: N_1  and  C_2
REMARK    2  A    between atoms: C_2  and  C_3
REMARK    3  A    between atoms: C_3  and  N_4
REMARK    4  A    between atoms: C_3  and  C_13
REMARK    5  A    between atoms: C_5  and  C_7
REMARK    6  A    between atoms: C_16  and  C_17
REMARK    7  A    between atoms: C_17  and  N_18
REMARK    8  A    between atoms: C_19  and  C_21
REMARK                            x       y       z     vdW  Elec       q    Type
REMARK                         _______ _______ _______ _____ _____    ______ ____
ROOT
ATOM      1  C   UNL     1      47.289   5.779  14.066  0.00  0.00    +0.000 A 
ATOM      2  C   UNL     1      46.717   4.512  14.203  0.00  0.00    +0.000 A 
ATOM      3  C   UNL     1      46.944   3.777  15.368  0.00  0.00    +0.000 A 
ATOM      4  C   UNL     1      47.722   4.318  16.392  0.00  0.00    +0.000 A 
ATOM      5  C   UNL     1      48.272   5.574  16.164  0.00  0.00    +0.000 A 
ATOM      6  N   UNL     1      48.065   6.310  15.043  0.00  0.00    +0.000 NA
ENDROOT
BRANCH   1   7
ATOM      7  C   UNL     1      47.074   6.608  12.790  0.00  0.00    +0.000 C 
BRANCH   7   8
ATOM      8  N   UNL     1      46.503   5.766  11.726  0.00  0.00    +0.000 N 
ATOM      9  C   UNL     1      45.162   5.797  11.396  0.00  0.00    +0.000 C 
ATOM     10  O   UNL     1      44.368   6.585  11.900  0.00  0.00    +0.000 OA
ATOM     11  H   UNL     1      47.072   5.005  11.377  0.00  0.00    +0.000 HD
BRANCH   9  12
ATOM     12  C   UNL     1      44.753   4.775  10.340  0.00  0.00    +0.000 C 
ATOM     13  C   UNL     1      45.661   4.882   9.110  0.00  0.00    +0.000 C 
ATOM     14  C   UNL     1      45.326   3.795   8.092  0.00  0.00    +0.000 C 
ATOM     15  C   UNL     1      45.324   2.407   8.729  0.00  0.00    +0.000 C 
ATOM     16  N   UNL     1      44.425   2.353   9.882  0.00  0.00    +0.000 NA
ATOM     17  C   UNL     1      44.804   3.345  10.901  0.00  0.00    +0.000 C 
ATOM     18  H   UNL     1      44.469   1.421  10.295  0.00  0.00    +0.000 HD
ENDBRANCH   9  12
ENDBRANCH   7   8
BRANCH   7  19
ATOM     19  C   UNL     1      48.403   7.289  12.334  0.00  0.00    +0.000 C 
BRANCH  19  20
ATOM     20  N   UNL     1      49.634   6.538  12.614  0.00  0.00    +0.000 NA
ATOM     21  H   UNL     1      50.157   6.419  11.749  0.00  0.00    +0.000 HD
ATOM     22  H   UNL     1      49.411   5.606  12.962  0.00  0.00    +0.000 HD
ENDBRANCH  19  20
ENDBRANCH   7  19
ENDBRANCH   1   7
BRANCH   4  23
ATOM     23  C   UNL     1      47.977   3.580  17.675  0.00  0.00    +0.000 C 
BRANCH  23  24
ATOM     24  N   UNL     1      49.383   3.332  17.876  0.00  0.00    +0.000 N 
ATOM     25  C   UNL     1      50.051   2.369  17.163  0.00  0.00    +0.000 C 
ATOM     26  O   UNL     1      49.505   1.710  16.282  0.00  0.00    +0.000 OA
ATOM     27  H   UNL     1      49.786   3.656  18.750  0.00  0.00    +0.000 HD
BRANCH  25  28
ATOM     28  C   UNL     1      51.479   2.212  17.468  0.00  0.00    +0.000 A 
ATOM     29  C   UNL     1      52.019   0.944  17.640  0.00  0.00    +0.000 A 
ATOM     30  S   UNL     1      53.703   0.950  17.917  0.00  0.00    +0.000 S 
ATOM     31  C   UNL     1      53.757   2.651  17.881  0.00  0.00    +0.000 A 
ATOM     32  N   UNL     1      54.925   3.320  18.080  0.00  0.00    +0.000 NA
ATOM     33  C   UNL     1      54.814   4.606  18.058  0.00  0.00    +0.000 A 
ATOM     34  N   UNL     1      53.642   5.284  17.849  0.00  0.00    +0.000 N 
ATOM     35  C   UNL     1      52.446   4.652  17.610  0.00  0.00    +0.000 A 
ATOM     36  O   UNL     1      51.427   5.286  17.373  0.00  0.00    +0.000 OA
ATOM     37  C   UNL     1      52.514   3.203  17.639  0.00  0.00    +0.000 A 
ATOM     38  H   UNL     1      53.624   6.293  17.837  0.00  0.00    +0.000 HD
ENDBRANCH  25  28
ENDBRANCH  23  24
ENDBRANCH   4  23
TORSDOF 8
ENDMDL
MODEL 6
REMARK VINA RESULT:    -7.314      3.295      4.741
REMARK INTER + INTRA:         -11.755
REMARK INTER:                 -10.544
REMARK INTRA:                  -1.210
REMARK UNBOUND:                -1.233
REMARK  Name = 
REMARK  8 active torsions:
REMARK  status: ('A' for Active; 'I' for Inactive)
REMARK    1  A    between atoms: N_1  and  C_2
REMARK    2  A    between atoms: C_2  and  C_3
REMARK    3  A    between atoms: C_3  and  N_4
REMARK    4  A    between atoms: C_3  and  C_13
REMARK    5  A    between atoms: C_5  and  C_7
REMARK    6  A    between atoms: C_16  and  C_17
REMARK    7  A    between atoms: C_17  and  N_18
REMARK    8  A    between atoms: C_19  and  C_21
REMARK                            x       y       z     vdW  Elec       q    Type
REMARK                         _______ _______ _______ _____ _____    ______ ____
ROOT
ATOM      1  C   UNL     1      47.379   6.132  13.785  0.00  0.00    +0.000 A 
ATOM      2  C   UNL     1      46.853   4.868  14.065  0.00  0.00    +0.000 A 
ATOM      3  C   UNL     1      47.198   4.228  15.256  0.00  0.00    +0.000 A 
ATOM      4  C   UNL     1      48.048   4.859  16.164  0.00  0.00    +0.000 A 
ATOM      5  C   UNL     1      48.546   6.103  15.797  0.00  0.00    +0.000 A 
ATOM      6  N   UNL     1      48.224   6.749  14.648  0.00  0.00    +0.000 NA
ENDROOT
BRANCH   1   7
ATOM      7  C   UNL     1      47.034   6.858  12.476  0.00  0.00    +0.000 C 
BRANCH   7   8
ATOM      8  N   UNL     1      46.432   5.919  11.515  0.00  0.00    +0.000 N 
ATOM      9  C   UNL     1      45.070   5.857  11.294  0.00  0.00    +0.000 C 
ATOM     10  O   UNL     1      44.274   6.634  11.810  0.00  0.00    +0.000 OA
ATOM     11  H   UNL     1      47.016   5.167  11.170  0.00  0.00    +0.000 HD
BRANCH   9  12
ATOM     12  C   UNL     1      44.640   4.747  10.340  0.00  0.00    +0.000 C 
ATOM     13  C   UNL     1      45.531   4.736   9.093  0.00  0.00    +0.000 C 
ATOM     14  C   UNL     1      45.176   3.565   8.181  0.00  0.00    +0.000 C 
ATOM     15  C   UNL     1      45.175   2.240   8.941  0.00  0.00    +0.000 C 
ATOM     16  N   UNL     1      44.292   2.296  10.106  0.00  0.00    +0.000 NA
ATOM     17  C   UNL     1      44.691   3.373  11.026  0.00  0.00    +0.000 C 
ATOM     18  H   UNL     1      44.337   1.405  10.601  0.00  0.00    +0.000 HD
ENDBRANCH   9  12
ENDBRANCH   7   8
BRANCH   7  19
ATOM     19  C   UNL     1      48.292   7.564  11.878  0.00  0.00    +0.000 C 
BRANCH  19  20
ATOM     20  N   UNL     1      49.571   6.871  12.083  0.00  0.00    +0.000 NA
ATOM     21  H   UNL     1      49.542   6.373  12.970  0.00  0.00    +0.000 HD
ATOM     22  H   UNL     1      50.335   7.544  12.141  0.00  0.00    +0.000 HD
ENDBRANCH  19  20
ENDBRANCH   7  19
ENDBRANCH   1   7
BRANCH   4  23
ATOM     23  C   UNL     1      48.432   4.224  17.471  0.00  0.00    +0.000 C 
BRANCH  23  24
ATOM     24  N   UNL     1      49.825   3.853  17.494  0.00  0.00    +0.000 N 
ATOM     25  C   UNL     1      50.646   4.213  18.533  0.00  0.00    +0.000 C 
ATOM     26  O   UNL     1      50.229   4.816  19.518  0.00  0.00    +0.000 OA
ATOM     27  H   UNL     1      50.247   3.600  16.606  0.00  0.00    +0.000 HD
BRANCH  25  28
ATOM     28  C   UNL     1      52.045   3.779  18.431  0.00  0.00    +0.000 A 
ATOM     29  C   UNL     1      53.070   4.648  18.779  0.00  0.00    +0.000 A 
ATOM     30  S   UNL     1      54.624   3.951  18.667  0.00  0.00    +0.000 S 
ATOM     31  C   UNL     1      53.985   2.485  18.088  0.00  0.00    +0.000 A 
ATOM     32  N   UNL     1      54.798   1.444  17.762  0.00  0.00    +0.000 NA
ATOM     33  C   UNL     1      54.180   0.406  17.306  0.00  0.00    +0.000 A 
ATOM     34  N   UNL     1      52.823   0.312  17.151  0.00  0.00    +0.000 N 
ATOM     35  C   UNL     1      51.960   1.323  17.499  0.00  0.00    +0.000 A 
ATOM     36  O   UNL     1      50.748   1.188  17.399  0.00  0.00    +0.000 OA
ATOM     37  C   UNL     1      52.605   2.519  18.003  0.00  0.00    +0.000 A 
ATOM     38  H   UNL     1      52.401  -0.533  16.796  0.00  0.00    +0.000 HD
ENDBRANCH  25  28
ENDBRANCH  23  24
ENDBRANCH   4  23
TORSDOF 8
ENDMDL
MODEL 7
REMARK VINA RESULT:    -7.078      3.868      9.333
REMARK INTER + INTRA:         -11.415
REMARK INTER:                 -10.041
REMARK INTRA:                  -1.374
REMARK UNBOUND:                -1.233
REMARK  Name = 
REMARK  8 active torsions:
REMARK  status: ('A' for Active; 'I' for Inactive)
REMARK    1  A    between atoms: N_1  and  C_2
REMARK    2  A    between atoms: C_2  and  C_3
REMARK    3  A    between atoms: C_3  and  N_4
REMARK    4  A    between atoms: C_3  and  C_13
REMARK    5  A    between atoms: C_5  and  C_7
REMARK    6  A    between atoms: C_16  and  C_17
REMARK    7  A    between atoms: C_17  and  N_18
REMARK    8  A    between atoms: C_19  and  C_21
REMARK                            x       y       z     vdW  Elec       q    Type
REMARK                         _______ _______ _______ _____ _____    ______ ____
ROOT
ATOM      1  C   UNL     1      49.423   5.519  16.948  0.00  0.00    +0.000 A 
ATOM      2  C   UNL     1      50.145   6.586  16.408  0.00  0.00    +0.000 A 
ATOM      3  C   UNL     1      49.725   7.163  15.208  0.00  0.00    +0.000 A 
ATOM      4  C   UNL     1      48.581   6.686  14.569  0.00  0.00    +0.000 A 
ATOM      5  C   UNL     1      47.936   5.607  15.162  0.00  0.00    +0.000 A 
ATOM      6  N   UNL     1      48.321   5.030  16.328  0.00  0.00    +0.000 NA
ENDROOT
BRANCH   1   7
ATOM      7  C   UNL     1      49.867   4.849  18.257  0.00  0.00    +0.000 C 
BRANCH   7   8
ATOM      8  N   UNL     1      50.811   3.755  17.975  0.00  0.00    +0.000 N 
ATOM      9  C   UNL     1      52.106   3.752  18.456  0.00  0.00    +0.000 C 
ATOM     10  O   UNL     1      52.536   4.608  19.221  0.00  0.00    +0.000 OA
ATOM     11  H   UNL     1      50.562   3.101  17.244  0.00  0.00    +0.000 HD
BRANCH   9  12
ATOM     12  C   UNL     1      52.953   2.582  17.966  0.00  0.00    +0.000 C 
ATOM     13  C   UNL     1      53.993   2.193  19.022  0.00  0.00    +0.000 C 
ATOM     14  C   UNL     1      54.776   0.958  18.584  0.00  0.00    +0.000 C 
ATOM     15  C   UNL     1      53.847  -0.189  18.194  0.00  0.00    +0.000 C 
ATOM     16  N   UNL     1      52.891   0.228  17.167  0.00  0.00    +0.000 NA
ATOM     17  C   UNL     1      52.078   1.365  17.627  0.00  0.00    +0.000 C 
ATOM     18  H   UNL     1      52.273  -0.555  16.951  0.00  0.00    +0.000 HD
ENDBRANCH   9  12
ENDBRANCH   7   8
BRANCH   7  19
ATOM     19  C   UNL     1      48.636   4.349  19.077  0.00  0.00    +0.000 C 
BRANCH  19  20
ATOM     20  N   UNL     1      48.287   2.932  18.905  0.00  0.00    +0.000 NA
ATOM     21  H   UNL     1      48.638   2.403  19.701  0.00  0.00    +0.000 HD
ATOM     22  H   UNL     1      48.737   2.554  18.071  0.00  0.00    +0.000 HD
ENDBRANCH  19  20
ENDBRANCH   7  19
ENDBRANCH   1   7
BRANCH   4  23
ATOM     23  C   UNL     1      48.071   7.288  13.290  0.00  0.00    +0.000 C 
BRANCH  23  24
ATOM     24  N   UNL     1      47.357   6.321  12.494  0.00  0.00    +0.000 N 
ATOM     25  C   UNL     1      46.298   6.686  11.702  0.00  0.00    +0.000 C 
ATOM     26  O   UNL     1      45.941   7.855  11.585  0.00  0.00    +0.000 OA
ATOM     27  H   UNL     1      47.448   5.347  12.765  0.00  0.00    +0.000 HD
BRANCH  25  28
ATOM     28  C   UNL     1      45.652   5.604  10.948  0.00  0.00    +0.000 A 
ATOM     29  C   UNL     1      45.731   5.579   9.562  0.00  0.00    +0.000 A 
ATOM     30  S   UNL     1      44.985   4.213   8.860  0.00  0.00    +0.000 S 
ATOM     31  C   UNL     1      44.475   3.643  10.380  0.00  0.00    +0.000 A 
ATOM     32  N   UNL     1      43.747   2.500  10.492  0.00  0.00    +0.000 NA
ATOM     33  C   UNL     1      43.401   2.203  11.701  0.00  0.00    +0.000 A 
ATOM     34  N   UNL     1      43.724   2.943  12.808  0.00  0.00    +0.000 N 
ATOM     35  C   UNL     1      44.486   4.084  12.747  0.00  0.00    +0.000 A 
ATOM     36  O   UNL     1      44.802   4.693  13.760  0.00  0.00    +0.000 OA
ATOM     37  C   UNL     1      44.888   4.470  11.408  0.00  0.00    +0.000 A 
ATOM     38  H   UNL     1      43.428   2.651  13.728  0.00  0.00    +0.000 HD
ENDBRANCH  25  28
ENDBRANCH  23  24
ENDBRANCH   4  23
TORSDOF 8
ENDMDL
MODEL 8
REMARK VINA RESULT:    -6.961      3.560      5.154
REMARK INTER + INTRA:         -11.247
REMARK INTER:                  -9.994
REMARK INTRA:                  -1.253
REMARK UNBOUND:                -1.233
REMARK  Name = 
REMARK  8 active torsions:
REMARK  status: ('A' for Active; 'I' for Inactive)
REMARK    1  A    between atoms: N_1  and  C_2
REMARK    2  A    between atoms: C_2  and  C_3
REMARK    3  A    between atoms: C_3  and  N_4
REMARK    4  A    between atoms: C_3  and  C_13
REMARK    5  A    between atoms: C_5  and  C_7
REMARK    6  A    between atoms: C_16  and  C_17
REMARK    7  A    between atoms: C_17  and  N_18
REMARK    8  A    between atoms: C_19  and  C_21
REMARK                            x       y       z     vdW  Elec       q    Type
REMARK                         _______ _______ _______ _____ _____    ______ ____
ROOT
ATOM      1  C   UNL     1      45.403   5.509  12.386  0.00  0.00    +0.000 A 
ATOM      2  C   UNL     1      46.475   4.996  13.121  0.00  0.00    +0.000 A 
ATOM      3  C   UNL     1      47.390   5.873  13.706  0.00  0.00    +0.000 A 
ATOM      4  C   UNL     1      47.219   7.251  13.569  0.00  0.00    +0.000 A 
ATOM      5  C   UNL     1      46.141   7.676  12.802  0.00  0.00    +0.000 A 
ATOM      6  N   UNL     1      45.235   6.845  12.226  0.00  0.00    +0.000 NA
ENDROOT
BRANCH   1   7
ATOM      7  C   UNL     1      44.387   4.573  11.716  0.00  0.00    +0.000 C 
BRANCH   7   8
ATOM      8  N   UNL     1      44.842   4.212  10.363  0.00  0.00    +0.000 N 
ATOM      9  C   UNL     1      44.504   3.014   9.763  0.00  0.00    +0.000 C 
ATOM     10  O   UNL     1      43.733   2.207  10.271  0.00  0.00    +0.000 OA
ATOM     11  H   UNL     1      45.585   4.766   9.957  0.00  0.00    +0.000 HD
BRANCH   9  12
ATOM     12  C   UNL     1      45.160   2.786   8.405  0.00  0.00    +0.000 C 
ATOM     13  C   UNL     1      45.998   4.005   8.003  0.00  0.00    +0.000 C 
ATOM     14  C   UNL     1      46.741   3.745   6.696  0.00  0.00    +0.000 C 
ATOM     15  C   UNL     1      47.544   2.447   6.752  0.00  0.00    +0.000 C 
ATOM     16  N   UNL     1      46.695   1.313   7.117  0.00  0.00    +0.000 NA
ATOM     17  C   UNL     1      46.046   1.530   8.420  0.00  0.00    +0.000 C 
ATOM     18  H   UNL     1      47.268   0.471   7.169  0.00  0.00    +0.000 HD
ENDBRANCH   9  12
ENDBRANCH   7   8
BRANCH   7  19
ATOM     19  C   UNL     1      42.964   5.215  11.691  0.00  0.00    +0.000 C 
BRANCH  19  20
ATOM     20  N   UNL     1      42.788   6.343  10.765  0.00  0.00    +0.000 NA
ATOM     21  H   UNL     1      42.631   5.982   9.826  0.00  0.00    +0.000 HD
ATOM     22  H   UNL     1      43.636   6.910  10.731  0.00  0.00    +0.000 HD
ENDBRANCH  19  20
ENDBRANCH   7  19
ENDBRANCH   1   7
BRANCH   4  23
ATOM     23  C   UNL     1      48.162   8.238  14.198  0.00  0.00    +0.000 C 
BRANCH  23  24
ATOM     24  N   UNL     1      49.516   8.047  13.741  0.00  0.00    +0.000 N 
ATOM     25  C   UNL     1      50.558   8.770  14.265  0.00  0.00    +0.000 C 
ATOM     26  O   UNL     1      50.403   9.571  15.183  0.00  0.00    +0.000 OA
ATOM     27  H   UNL     1      49.636   7.608  12.835  0.00  0.00    +0.000 HD
BRANCH  25  28
ATOM     28  C   UNL     1      51.886   8.485  13.708  0.00  0.00    +0.000 A 
ATOM     29  C   UNL     1      52.915   8.067  14.542  0.00  0.00    +0.000 A 
ATOM     30  S   UNL     1      54.365   7.714  13.713  0.00  0.00    +0.000 S 
ATOM     31  C   UNL     1      53.687   8.168  12.220  0.00  0.00    +0.000 A 
ATOM     32  N   UNL     1      54.419   8.127  11.075  0.00  0.00    +0.000 NA
ATOM     33  C   UNL     1      53.788   8.529  10.023  0.00  0.00    +0.000 A 
ATOM     34  N   UNL     1      52.489   8.964  10.011  0.00  0.00    +0.000 N 
ATOM     35  C   UNL     1      51.700   8.991  11.136  0.00  0.00    +0.000 A 
ATOM     36  O   UNL     1      50.527   9.333  11.083  0.00  0.00    +0.000 OA
ATOM     37  C   UNL     1      52.368   8.561  12.350  0.00  0.00    +0.000 A 
ATOM     38  H   UNL     1      52.050   9.259   9.151  0.00  0.00    +0.000 HD
ENDBRANCH  25  28
ENDBRANCH  23  24
ENDBRANCH   4  23
TORSDOF 8
ENDMDL
MODEL 9
REMARK VINA RESULT:    -6.000      3.473      5.142
REMARK INTER + INTRA:          -9.864
REMARK INTER:                  -8.359
REMARK INTRA:                  -1.505
REMARK UNBOUND:                -1.233
REMARK  Name = 
REMARK  8 active torsions:
REMARK  status: ('A' for Active; 'I' for Inactive)
REMARK    1  A    between atoms: N_1  and  C_2
REMARK    2  A    between atoms: C_2  and  C_3
REMARK    3  A    between atoms: C_3  and  N_4
REMARK    4  A    between atoms: C_3  and  C_13
REMARK    5  A    between atoms: C_5  and  C_7
REMARK    6  A    between atoms: C_16  and  C_17
REMARK    7  A    between atoms: C_17  and  N_18
REMARK    8  A    between atoms: C_19  and  C_21
REMARK                            x       y       z     vdW  Elec       q    Type
REMARK                         _______ _______ _______ _____ _____    ______ ____
ROOT
ATOM      1  C   UNL     1      47.893   8.177  14.085  0.00  0.00    +0.000 A 
ATOM      2  C   UNL     1      48.374   6.922  14.468  0.00  0.00    +0.000 A 
ATOM      3  C   UNL     1      49.074   6.791  15.668  0.00  0.00    +0.000 A 
ATOM      4  C   UNL     1      49.273   7.905  16.484  0.00  0.00    +0.000 A 
ATOM      5  C   UNL     1      48.783   9.119  16.017  0.00  0.00    +0.000 A 
ATOM      6  N   UNL     1      48.096   9.274  14.857  0.00  0.00    +0.000 NA
ENDROOT
BRANCH   1   7
ATOM      7  C   UNL     1      47.133   8.361  12.763  0.00  0.00    +0.000 C 
BRANCH   7   8
ATOM      8  N   UNL     1      46.583   7.074  12.308  0.00  0.00    +0.000 N 
ATOM      9  C   UNL     1      45.323   6.962  11.753  0.00  0.00    +0.000 C 
ATOM     10  O   UNL     1      44.608   7.931  11.517  0.00  0.00    +0.000 OA
ATOM     11  H   UNL     1      47.061   6.232  12.602  0.00  0.00    +0.000 HD
BRANCH   9  12
ATOM     12  C   UNL     1      44.899   5.530  11.444  0.00  0.00    +0.000 C 
ATOM     13  C   UNL     1      45.618   4.545  12.372  0.00  0.00    +0.000 C 
ATOM     14  C   UNL     1      45.123   3.120  12.141  0.00  0.00    +0.000 C 
ATOM     15  C   UNL     1      43.600   3.032  12.222  0.00  0.00    +0.000 C 
ATOM     16  N   UNL     1      42.964   3.974  11.301  0.00  0.00    +0.000 NA
ATOM     17  C   UNL     1      43.377   5.358  11.583  0.00  0.00    +0.000 C 
ATOM     18  H   UNL     1      41.951   3.905  11.402  0.00  0.00    +0.000 HD
ENDBRANCH   9  12
ENDBRANCH   7   8
BRANCH   7  19
ATOM     19  C   UNL     1      48.048   9.011  11.676  0.00  0.00    +0.000 C 
BRANCH  19  20
ATOM     20  N   UNL     1      49.456   9.197  12.055  0.00  0.00    +0.000 NA
ATOM     21  H   UNL     1      49.923   8.293  12.057  0.00  0.00    +0.000 HD
ATOM     22  H   UNL     1      49.522   9.573  13.002  0.00  0.00    +0.000 HD
ENDBRANCH  19  20
ENDBRANCH   7  19
ENDBRANCH   1   7
BRANCH   4  23
ATOM     23  C   UNL     1      49.998   7.813  17.797  0.00  0.00    +0.000 C 
BRANCH  23  24
ATOM     24  N   UNL     1      50.810   6.624  17.874  0.00  0.00    +0.000 N 
ATOM     25  C   UNL     1      51.043   5.992  19.070  0.00  0.00    +0.000 C 
ATOM     26  O   UNL     1      50.532   6.369  20.120  0.00  0.00    +0.000 OA
ATOM     27  H   UNL     1      51.443   6.449  17.101  0.00  0.00    +0.000 HD
BRANCH  25  28
ATOM     28  C   UNL     1      51.892   4.795  19.013  0.00  0.00    +0.000 A 
ATOM     29  C   UNL     1      53.116   4.779  19.669  0.00  0.00    +0.000 A 
ATOM     30  S   UNL     1      53.933   3.284  19.554  0.00  0.00    +0.000 S 
ATOM     31  C   UNL     1      52.709   2.629  18.570  0.00  0.00    +0.000 A 
ATOM     32  N   UNL     1      52.800   1.361  18.087  0.00  0.00    +0.000 NA
ATOM     33  C   UNL     1      51.817   1.006  17.328  0.00  0.00    +0.000 A 
ATOM     34  N   UNL     1      50.749   1.803  17.013  0.00  0.00    +0.000 N 
ATOM     35  C   UNL     1      50.597   3.077  17.504  0.00  0.00    +0.000 A 
ATOM     36  O   UNL     1      49.604   3.744  17.247  0.00  0.00    +0.000 OA
ATOM     37  C   UNL     1      51.683   3.530  18.351  0.00  0.00    +0.000 A 
ATOM     38  H   UNL     1      50.008   1.462  16.418  0.00  0.00    +0.000 HD
ENDBRANCH  25  28
ENDBRANCH  23  24
ENDBRANCH   4  23
TORSDOF 8
ENDMDL
