MODEL 1
REMARK VINA RESULT:    -7.550      0.000      0.000
REMARK INTER + INTRA:         -13.341
REMARK INTER:                 -12.184
REMARK INTRA:                  -1.157
REMARK UNBOUND:                -1.157
REMARK  Name = 
REMARK  11 active torsions:
REMARK  status: ('A' for Active; 'I' for Inactive)
REMARK    1  A    between atoms: N_1  and  C_2
REMARK    2  A    between atoms: C_2  and  C_3
REMARK    3  A    between atoms: C_3  and  N_4
REMARK    4  A    between atoms: N_4  and  C_5
REMARK    5  A    between atoms: C_5  and  C_6
REMARK    6  A    between atoms: C_10  and  C_11
REMARK    7  A    between atoms: C_11  and  O_12
REMARK    8  A    between atoms: O_12  and  C_13
REMARK    9  A    between atoms: C_16  and  C_17
REMARK   10  A    between atoms: C_17  and  N_18
REMARK   11  A    between atoms: C_19  and  C_21
REMARK                            x       y       z     vdW  Elec       q    Type
REMARK                         _______ _______ _______ _____ _____    ______ ____
ROOT
ATOM      1  C   UNL     1      47.846   5.991  13.821  0.00  0.00    +0.000 A 
ATOM      2  C   UNL     1      48.592   7.082  14.231  0.00  0.00    +0.000 A 
ATOM      3  C   UNL     1      49.003   7.144  15.563  0.00  0.00    +0.000 A 
ATOM      4  C   UNL     1      48.618   6.138  16.455  0.00  0.00    +0.000 A 
ATOM      5  C   UNL     1      47.872   5.085  15.940  0.00  0.00    +0.000 A 
ATOM      6  N   UNL     1      47.482   4.987  14.648  0.00  0.00    +0.000 NA
ENDROOT
BRANCH   1   7
ATOM      7  O   UNL     1      47.433   5.969  12.502  0.00  0.00    +0.000 OA
BRANCH   7   8
ATOM      8  C   UNL     1      46.046   6.291  12.378  0.00  0.00    +0.000 C 
BRANCH   8  13
ATOM      9  C   UNL     1      44.740   3.893   9.686  0.00  0.00    +0.000 A 
ATOM     10  C   UNL     1      44.021   2.985  10.473  0.00  0.00    +0.000 A 
ATOM     11  C   UNL     1      43.931   3.161  11.852  0.00  0.00    +0.000 A 
ATOM     12  C   UNL     1      44.568   4.242  12.459  0.00  0.00    +0.000 A 
ATOM     13  C   UNL     1      45.295   5.167  11.695  0.00  0.00    +0.000 A 
ATOM     14  C   UNL     1      45.369   4.987  10.306  0.00  0.00    +0.000 A 
BRANCH   9  15
ATOM     15  C   UNL     1      44.843   3.684   8.192  0.00  0.00    +0.000 C 
BRANCH  15  16
ATOM     16  N   UNL     1      46.109   4.147   7.608  0.00  0.00    +0.000 NA
ATOM     17  H   UNL     1      45.919   5.062   7.190  0.00  0.00    +0.000 HD
BRANCH  16  18
ATOM     18  C   UNL     1      46.581   3.287   6.508  0.00  0.00    +0.000 C 
BRANCH  18  19
ATOM     19  C   UNL     1      47.854   2.486   6.844  0.00  0.00    +0.000 C 
BRANCH  19  20
ATOM     20  N   UNL     1      48.428   1.862   5.645  0.00  0.00    +0.000 NA
ATOM     21  H   UNL     1      49.442   1.837   5.741  0.00  0.00    +0.000 HD
ATOM     22  H   UNL     1      48.236   2.458   4.841  0.00  0.00    +0.000 HD
ENDBRANCH  19  20
ENDBRANCH  18  19
ENDBRANCH  16  18
ENDBRANCH  15  16
ENDBRANCH   9  15
ENDBRANCH   8  13
ENDBRANCH   7   8
ENDBRANCH   1   7
BRANCH   4  23
ATOM     23  C   UNL     1      49.025   6.157  17.899  0.00  0.00    +0.000 C 
BRANCH  23  24
ATOM     24  N   UNL     1      50.061   5.191  18.152  0.00  0.00    +0.000 N 
ATOM     25  C   UNL     1      51.388   5.493  17.985  0.00  0.00    +0.000 C 
ATOM     26  O   UNL     1      51.764   6.616  17.655  0.00  0.00    +0.000 OA
ATOM     27  H   UNL     1      49.782   4.215  18.173  0.00  0.00    +0.000 HD
BRANCH  25  28
ATOM     28  C   UNL     1      52.341   4.419  18.288  0.00  0.00    +0.000 A 
ATOM     29  C   UNL     1      53.537   4.713  18.936  0.00  0.00    +0.000 A 
ATOM     30  S   UNL     1      54.479   3.336  19.281  0.00  0.00    +0.000 S 
ATOM     31  C   UNL     1      53.356   2.306  18.526  0.00  0.00    +0.000 A 
ATOM     32  N   UNL     1      53.569   0.964  18.462  0.00  0.00    +0.000 NA
ATOM     33  C   UNL     1      52.649   0.306  17.836  0.00  0.00    +0.000 A 
ATOM     34  N   UNL     1      51.535   0.869  17.269  0.00  0.00    +0.000 N 
ATOM     35  C   UNL     1      51.269   2.214  17.329  0.00  0.00    +0.000 A 
ATOM     36  O   UNL     1      50.244   2.683  16.838  0.00  0.00    +0.000 OA
ATOM     37  C   UNL     1      52.271   3.000  18.021  0.00  0.00    +0.000 A 
ATOM     38  H   UNL     1      50.851   0.298  16.796  0.00  0.00    +0.000 HD
ENDBRANCH  25  28
ENDBRANCH  23  24
ENDBRANCH   4  23
TORSDOF 11
ENDMDL
MODEL 2
REMARK VINA RESULT:    -7.521      1.481      2.534
REMARK INTER + INTRA:         -13.294
REMARK INTER:                 -12.306
REMARK INTRA:                  -0.988
REMARK UNBOUND:                -1.157
REMARK  Name = 
REMARK  11 active torsions:
REMARK  status: ('A' for Active; 'I' for Inactive)
REMARK    1  A    between atoms: N_1  and  C_2
REMARK    2  A    between atoms: C_2  and  C_3
REMARK    3  A    between atoms: C_3  and  N_4
REMARK    4  A    between atoms: N_4  and  C_5
REMARK    5  A    between atoms: C_5  and  C_6
REMARK    6  A    between atoms: C_10  and  C_11
REMARK    7  A    between atoms: C_11  and  O_12
REMARK    8  A    between atoms: O_12  and  C_13
REMARK    9  A    between atoms: C_16  and  C_17
REMARK   10  A    between atoms: C_17  and  N_18
REMARK   11  A    between atoms: C_19  and  C_21
REMARK                            x       y       z     vdW  Elec       q    Type
REMARK                         _______ _______ _______ _____ _____    ______ ____
ROOT
ATOM      1  C   UNL     1      47.536   5.722  13.791  0.00  0.00    +0.000 A 
ATOM      2  C   UNL     1      46.925   4.480  13.806  0.00  0.00    +0.000 A 
ATOM      3  C   UNL     1      46.985   3.724  14.978  0.00  0.00    +0.000 A 
ATOM      4  C   UNL     1      47.691   4.211  16.082  0.00  0.00    +0.000 A 
ATOM      5  C   UNL     1      48.264   5.471  15.963  0.00  0.00    +0.000 A 
ATOM      6  N   UNL     1      48.200   6.236  14.849  0.00  0.00    +0.000 NA
ENDROOT
BRANCH   1   7
ATOM      7  O   UNL     1      47.480   6.437  12.609  0.00  0.00    +0.000 OA
BRANCH   7   8
ATOM      8  C   UNL     1      46.222   7.097  12.452  0.00  0.00    +0.000 C 
BRANCH   8  13
ATOM      9  C   UNL     1      44.725   4.620   9.936  0.00  0.00    +0.000 A 
ATOM     10  C   UNL     1      43.446   4.440  10.478  0.00  0.00    +0.000 A 
ATOM     11  C   UNL     1      43.059   5.133  11.623  0.00  0.00    +0.000 A 
ATOM     12  C   UNL     1      43.952   6.006  12.244  0.00  0.00    +0.000 A 
ATOM     13  C   UNL     1      45.238   6.206  11.722  0.00  0.00    +0.000 A 
ATOM     14  C   UNL     1      45.613   5.513  10.563  0.00  0.00    +0.000 A 
BRANCH   9  15
ATOM     15  C   UNL     1      45.139   3.853   8.701  0.00  0.00    +0.000 C 
BRANCH  15  16
ATOM     16  N   UNL     1      46.181   4.514   7.906  0.00  0.00    +0.000 NA
ATOM     17  H   UNL     1      45.718   5.262   7.383  0.00  0.00    +0.000 HD
BRANCH  16  18
ATOM     18  C   UNL     1      46.784   3.625   6.897  0.00  0.00    +0.000 C 
BRANCH  18  19
ATOM     19  C   UNL     1      46.818   2.141   7.313  0.00  0.00    +0.000 C 
BRANCH  19  20
ATOM     20  N   UNL     1      48.080   1.502   6.920  0.00  0.00    +0.000 NA
ATOM     21  H   UNL     1      47.913   0.917   6.104  0.00  0.00    +0.000 HD
ATOM     22  H   UNL     1      48.373   0.870   7.664  0.00  0.00    +0.000 HD
ENDBRANCH  19  20
ENDBRANCH  18  19
ENDBRANCH  16  18
ENDBRANCH  15  16
ENDBRANCH   9  15
ENDBRANCH   8  13
ENDBRANCH   7   8
ENDBRANCH   1   7
BRANCH   4  23
ATOM     23  C   UNL     1      47.794   3.438  17.364  0.00  0.00    +0.000 C 
BRANCH  23  24
ATOM     24  N   UNL     1      49.171   3.189  17.702  0.00  0.00    +0.000 N 
ATOM     25  C   UNL     1      49.932   2.284  17.009  0.00  0.00    +0.000 C 
ATOM     26  O   UNL     1      49.494   1.671  16.037  0.00  0.00    +0.000 OA
ATOM     27  H   UNL     1      49.474   3.476  18.627  0.00  0.00    +0.000 HD
BRANCH  25  28
ATOM     28  C   UNL     1      51.324   2.135  17.450  0.00  0.00    +0.000 A 
ATOM     29  C   UNL     1      51.854   0.866  17.664  0.00  0.00    +0.000 A 
ATOM     30  S   UNL     1      53.503   0.881  18.090  0.00  0.00    +0.000 S 
ATOM     31  C   UNL     1      53.556   2.580  18.062  0.00  0.00    +0.000 A 
ATOM     32  N   UNL     1      54.704   3.251  18.350  0.00  0.00    +0.000 NA
ATOM     33  C   UNL     1      54.593   4.538  18.318  0.00  0.00    +0.000 A 
ATOM     34  N   UNL     1      53.438   5.216  18.024  0.00  0.00    +0.000 N 
ATOM     35  C   UNL     1      52.264   4.581  17.705  0.00  0.00    +0.000 A 
ATOM     36  O   UNL     1      51.254   5.218  17.413  0.00  0.00    +0.000 OA
ATOM     37  C   UNL     1      52.333   3.133  17.726  0.00  0.00    +0.000 A 
ATOM     38  H   UNL     1      53.419   6.225  18.012  0.00  0.00    +0.000 HD
ENDBRANCH  25  28
ENDBRANCH  23  24
ENDBRANCH   4  23
TORSDOF 11
ENDMDL
MODEL 3
REMARK VINA RESULT:    -7.490      1.397      1.690
REMARK INTER + INTRA:         -13.244
REMARK INTER:                 -12.039
REMARK INTRA:                  -1.206
REMARK UNBOUND:                -1.157
REMARK  Name = 
REMARK  11 active torsions:
REMARK  status: ('A' for Active; 'I' for Inactive)
REMARK    1  A    between atoms: N_1  and  C_2
REMARK    2  A    between atoms: C_2  and  C_3
REMARK    3  A    between atoms: C_3  and  N_4
REMARK    4  A    between atoms: N_4  and  C_5
REMARK    5  A    between atoms: C_5  and  C_6
REMARK    6  A    between atoms: C_10  and  C_11
REMARK    7  A    between atoms: C_11  and  O_12
REMARK    8  A    between atoms: O_12  and  C_13
REMARK    9  A    between atoms: C_16  and  C_17
REMARK   10  A    between atoms: C_17  and  N_18
REMARK   11  A    between atoms: C_19  and  C_21
REMARK                            x       y       z     vdW  Elec       q    Type
REMARK                         _______ _______ _______ _____ _____    ______ ____
ROOT
ATOM      1  C   UNL     1      47.372   6.975  12.609  0.00  0.00    +0.000 A 
ATOM      2  C   UNL     1      47.630   5.884  13.422  0.00  0.00    +0.000 A 
ATOM      3  C   UNL     1      48.189   6.111  14.680  0.00  0.00    +0.000 A 
ATOM      4  C   UNL     1      48.515   7.413  15.070  0.00  0.00    +0.000 A 
ATOM      5  C   UNL     1      48.211   8.436  14.181  0.00  0.00    +0.000 A 
ATOM      6  N   UNL     1      47.646   8.248  12.966  0.00  0.00    +0.000 NA
ENDROOT
BRANCH   1   7
ATOM      7  O   UNL     1      46.840   6.718  11.360  0.00  0.00    +0.000 OA
BRANCH   7   8
ATOM      8  C   UNL     1      45.410   6.714  11.386  0.00  0.00    +0.000 C 
BRANCH   8  13
ATOM      9  C   UNL     1      44.829   3.385   9.574  0.00  0.00    +0.000 A 
ATOM     10  C   UNL     1      43.985   2.737  10.485  0.00  0.00    +0.000 A 
ATOM     11  C   UNL     1      43.582   3.378  11.655  0.00  0.00    +0.000 A 
ATOM     12  C   UNL     1      44.027   4.670  11.930  0.00  0.00    +0.000 A 
ATOM     13  C   UNL     1      44.873   5.343  11.035  0.00  0.00    +0.000 A 
ATOM     14  C   UNL     1      45.263   4.693   9.855  0.00  0.00    +0.000 A 
BRANCH   9  15
ATOM     15  C   UNL     1      45.271   2.675   8.315  0.00  0.00    +0.000 C 
BRANCH  15  16
ATOM     16  N   UNL     1      46.022   1.437   8.558  0.00  0.00    +0.000 NA
ATOM     17  H   UNL     1      46.640   1.622   9.352  0.00  0.00    +0.000 HD
BRANCH  16  18
ATOM     18  C   UNL     1      46.902   1.070   7.434  0.00  0.00    +0.000 C 
BRANCH  18  19
ATOM     19  C   UNL     1      47.553   2.277   6.730  0.00  0.00    +0.000 C 
BRANCH  19  20
ATOM     20  N   UNL     1      48.581   1.850   5.772  0.00  0.00    +0.000 NA
ATOM     21  H   UNL     1      48.135   1.653   4.878  0.00  0.00    +0.000 HD
ATOM     22  H   UNL     1      48.978   0.967   6.090  0.00  0.00    +0.000 HD
ENDBRANCH  19  20
ENDBRANCH  18  19
ENDBRANCH  16  18
ENDBRANCH  15  16
ENDBRANCH   9  15
ENDBRANCH   8  13
ENDBRANCH   7   8
ENDBRANCH   1   7
BRANCH   4  23
ATOM     23  C   UNL     1      49.125   7.714  16.408  0.00  0.00    +0.000 C 
BRANCH  23  24
ATOM     24  N   UNL     1      50.170   6.774  16.717  0.00  0.00    +0.000 N 
ATOM     25  C   UNL     1      50.076   5.911  17.778  0.00  0.00    +0.000 C 
ATOM     26  O   UNL     1      49.077   5.863  18.493  0.00  0.00    +0.000 OA
ATOM     27  H   UNL     1      51.086   6.960  16.318  0.00  0.00    +0.000 HD
BRANCH  25  28
ATOM     28  C   UNL     1      51.209   4.997  17.973  0.00  0.00    +0.000 A 
ATOM     29  C   UNL     1      52.414   5.480  18.473  0.00  0.00    +0.000 A 
ATOM     30  S   UNL     1      53.585   4.268  18.714  0.00  0.00    +0.000 S 
ATOM     31  C   UNL     1      52.550   3.064  18.105  0.00  0.00    +0.000 A 
ATOM     32  N   UNL     1      52.953   1.767  18.025  0.00  0.00    +0.000 NA
ATOM     33  C   UNL     1      52.075   0.965  17.517  0.00  0.00    +0.000 A 
ATOM     34  N   UNL     1      50.832   1.343  17.082  0.00  0.00    +0.000 N 
ATOM     35  C   UNL     1      50.375   2.634  17.163  0.00  0.00    +0.000 A 
ATOM     36  O   UNL     1      49.242   2.934  16.795  0.00  0.00    +0.000 OA
ATOM     37  C   UNL     1      51.322   3.577  17.727  0.00  0.00    +0.000 A 
ATOM     38  H   UNL     1      50.190   0.665  16.698  0.00  0.00    +0.000 HD
ENDBRANCH  25  28
ENDBRANCH  23  24
ENDBRANCH   4  23
TORSDOF 11
ENDMDL
MODEL 4
REMARK VINA RESULT:    -7.262      2.916      3.532
REMARK INTER + INTRA:         -12.877
REMARK INTER:                 -11.382
REMARK INTRA:                  -1.495
REMARK UNBOUND:                -1.157
REMARK  Name = 
REMARK  11 active torsions:
REMARK  status: ('A' for Active; 'I' for Inactive)
REMARK    1  A    between atoms: N_1  and  C_2
REMARK    2  A    between atoms: C_2  and  C_3
REMARK    3  A    between atoms: C_3  and  N_4
REMARK    4  A    between atoms: N_4  and  C_5
REMARK    5  A    between atoms: C_5  and  C_6
REMARK    6  A    between atoms: C_10  and  C_11
REMARK    7  A    between atoms: C_11  and  O_12
REMARK    8  A    between atoms: O_12  and  C_13
REMARK    9  A    between atoms: C_16  and  C_17
REMARK   10  A    between atoms: C_17  and  N_18
REMARK   11  A    between atoms: C_19  and  C_21
REMARK                            x       y       z     vdW  Elec       q    Type
REMARK                         _______ _______ _______ _____ _____    ______ ____
ROOT
ATOM      1  C   UNL     1      46.165   7.564  11.832  0.00  0.00    +0.000 A 
ATOM      2  C   UNL     1      47.432   7.037  11.646  0.00  0.00    +0.000 A 
ATOM      3  C   UNL     1      48.451   7.435  12.512  0.00  0.00    +0.000 A 
ATOM      4  C   UNL     1      48.185   8.380  13.508  0.00  0.00    +0.000 A 
ATOM      5  C   UNL     1      46.879   8.843  13.611  0.00  0.00    +0.000 A 
ATOM      6  N   UNL     1      45.867   8.455  12.801  0.00  0.00    +0.000 NA
ENDROOT
BRANCH   1   7
ATOM      7  O   UNL     1      45.182   7.169  10.944  0.00  0.00    +0.000 OA
BRANCH   7   8
ATOM      8  C   UNL     1      44.113   6.491  11.608  0.00  0.00    +0.000 C 
BRANCH   8  13
ATOM      9  C   UNL     1      44.701   3.248   9.649  0.00  0.00    +0.000 A 
ATOM     10  C   UNL     1      44.031   2.327  10.464  0.00  0.00    +0.000 A 
ATOM     11  C   UNL     1      43.370   2.750  11.615  0.00  0.00    +0.000 A 
ATOM     12  C   UNL     1      43.381   4.099  11.968  0.00  0.00    +0.000 A 
ATOM     13  C   UNL     1      44.044   5.043  11.170  0.00  0.00    +0.000 A 
ATOM     14  C   UNL     1      44.696   4.608  10.007  0.00  0.00    +0.000 A 
BRANCH   9  15
ATOM     15  C   UNL     1      45.427   2.775   8.410  0.00  0.00    +0.000 C 
BRANCH  15  16
ATOM     16  N   UNL     1      45.793   3.853   7.482  0.00  0.00    +0.000 NA
ATOM     17  H   UNL     1      44.943   4.092   6.965  0.00  0.00    +0.000 HD
BRANCH  16  18
ATOM     18  C   UNL     1      46.779   3.429   6.472  0.00  0.00    +0.000 C 
BRANCH  18  19
ATOM     19  C   UNL     1      47.657   2.243   6.915  0.00  0.00    +0.000 C 
BRANCH  19  20
ATOM     20  N   UNL     1      48.514   1.769   5.820  0.00  0.00    +0.000 NA
ATOM     21  H   UNL     1      49.174   2.505   5.576  0.00  0.00    +0.000 HD
ATOM     22  H   UNL     1      47.937   1.623   4.992  0.00  0.00    +0.000 HD
ENDBRANCH  19  20
ENDBRANCH  18  19
ENDBRANCH  16  18
ENDBRANCH  15  16
ENDBRANCH   9  15
ENDBRANCH   8  13
ENDBRANCH   7   8
ENDBRANCH   1   7
BRANCH   4  23
ATOM     23  C   UNL     1      49.244   8.850  14.462  0.00  0.00    +0.000 C 
BRANCH  23  24
ATOM     24  N   UNL     1      49.335   7.971  15.598  0.00  0.00    +0.000 N 
ATOM     25  C   UNL     1      48.699   8.249  16.780  0.00  0.00    +0.000 C 
ATOM     26  O   UNL     1      47.982   9.238  16.918  0.00  0.00    +0.000 OA
ATOM     27  H   UNL     1      50.101   7.304  15.601  0.00  0.00    +0.000 HD
BRANCH  25  28
ATOM     28  C   UNL     1      48.866   7.262  17.855  0.00  0.00    +0.000 A 
ATOM     29  C   UNL     1      49.245   7.678  19.127  0.00  0.00    +0.000 A 
ATOM     30  S   UNL     1      49.308   6.412  20.265  0.00  0.00    +0.000 S 
ATOM     31  C   UNL     1      48.890   5.256  19.090  0.00  0.00    +0.000 A 
ATOM     32  N   UNL     1      48.778   3.939  19.411  0.00  0.00    +0.000 NA
ATOM     33  C   UNL     1      48.483   3.169  18.416  0.00  0.00    +0.000 A 
ATOM     34  N   UNL     1      48.288   3.598  17.128  0.00  0.00    +0.000 N 
ATOM     35  C   UNL     1      48.368   4.918  16.764  0.00  0.00    +0.000 A 
ATOM     36  O   UNL     1      48.156   5.274  15.606  0.00  0.00    +0.000 OA
ATOM     37  C   UNL     1      48.698   5.827  17.845  0.00  0.00    +0.000 A 
ATOM     38  H   UNL     1      48.055   2.944  16.395  0.00  0.00    +0.000 HD
ENDBRANCH  25  28
ENDBRANCH  23  24
ENDBRANCH   4  23
TORSDOF 11
ENDMDL
MODEL 5
REMARK VINA RESULT:    -7.195      2.251      3.200
REMARK INTER + INTRA:         -12.769
REMARK INTER:                 -11.483
REMARK INTRA:                  -1.286
REMARK UNBOUND:                -1.157
REMARK  Name = 
REMARK  11 active torsions:
REMARK  status: ('A' for Active; 'I' for Inactive)
REMARK    1  A    between atoms: N_1  and  C_2
REMARK    2  A    between atoms: C_2  and  C_3
REMARK    3  A    between atoms: C_3  and  N_4
REMARK    4  A    between atoms: N_4  and  C_5
REMARK    5  A    between atoms: C_5  and  C_6
REMARK    6  A    between atoms: C_10  and  C_11
REMARK    7  A    between atoms: C_11  and  O_12
REMARK    8  A    between atoms: O_12  and  C_13
REMARK    9  A    between atoms: C_16  and  C_17
REMARK   10  A    between atoms: C_17  and  N_18
REMARK   11  A    between atoms: C_19  and  C_21
REMARK                            x       y       z     vdW  Elec       q    Type
REMARK                         _______ _______ _______ _____ _____    ______ ____
ROOT
ATOM      1  C   UNL     1      45.827   7.110  12.795  0.00  0.00    +0.000 A 
ATOM      2  C   UNL     1      46.839   6.174  12.672  0.00  0.00    +0.000 A 
ATOM      3  C   UNL     1      48.162   6.616  12.712  0.00  0.00    +0.000 A 
ATOM      4  C   UNL     1      48.433   7.982  12.828  0.00  0.00    +0.000 A 
ATOM      5  C   UNL     1      47.345   8.837  12.949  0.00  0.00    +0.000 A 
ATOM      6  N   UNL     1      46.053   8.434  12.939  0.00  0.00    +0.000 NA
ENDROOT
BRANCH   1   7
ATOM      7  O   UNL     1      44.527   6.645  12.728  0.00  0.00    +0.000 OA
BRANCH   7   8
ATOM      8  C   UNL     1      44.083   6.514  11.375  0.00  0.00    +0.000 C 
BRANCH   8  13
ATOM      9  C   UNL     1      44.840   3.242   9.524  0.00  0.00    +0.000 A 
ATOM     10  C   UNL     1      44.120   2.329  10.305  0.00  0.00    +0.000 A 
ATOM     11  C   UNL     1      43.373   2.767  11.397  0.00  0.00    +0.000 A 
ATOM     12  C   UNL     1      43.347   4.122  11.725  0.00  0.00    +0.000 A 
ATOM     13  C   UNL     1      44.058   5.058  10.960  0.00  0.00    +0.000 A 
ATOM     14  C   UNL     1      44.797   4.608   9.856  0.00  0.00    +0.000 A 
BRANCH   9  15
ATOM     15  C   UNL     1      45.658   2.754   8.350  0.00  0.00    +0.000 C 
BRANCH  15  16
ATOM     16  N   UNL     1      46.030   1.336   8.428  0.00  0.00    +0.000 NA
ATOM     17  H   UNL     1      46.470   1.200   9.342  0.00  0.00    +0.000 HD
BRANCH  16  18
ATOM     18  C   UNL     1      47.042   0.953   7.427  0.00  0.00    +0.000 C 
BRANCH  18  19
ATOM     19  C   UNL     1      47.914   2.126   6.940  0.00  0.00    +0.000 C 
BRANCH  19  20
ATOM     20  N   UNL     1      48.359   1.927   5.555  0.00  0.00    +0.000 NA
ATOM     21  H   UNL     1      47.836   2.556   4.948  0.00  0.00    +0.000 HD
ATOM     22  H   UNL     1      48.109   0.982   5.263  0.00  0.00    +0.000 HD
ENDBRANCH  19  20
ENDBRANCH  18  19
ENDBRANCH  16  18
ENDBRANCH  15  16
ENDBRANCH   9  15
ENDBRANCH   8  13
ENDBRANCH   7   8
ENDBRANCH   1   7
BRANCH   4  23
ATOM     23  C   UNL     1      49.836   8.514  12.869  0.00  0.00    +0.000 C 
BRANCH  23  24
ATOM     24  N   UNL     1      50.662   7.713  13.734  0.00  0.00    +0.000 N 
ATOM     25  C   UNL     1      50.862   8.042  15.050  0.00  0.00    +0.000 C 
ATOM     26  O   UNL     1      50.313   9.010  15.571  0.00  0.00    +0.000 OA
ATOM     27  H   UNL     1      51.314   7.077  13.284  0.00  0.00    +0.000 HD
BRANCH  25  28
ATOM     28  C   UNL     1      51.718   7.133  15.822  0.00  0.00    +0.000 A 
ATOM     29  C   UNL     1      53.102   7.267  15.768  0.00  0.00    +0.000 A 
ATOM     30  S   UNL     1      53.930   6.185  16.791  0.00  0.00    +0.000 S 
ATOM     31  C   UNL     1      52.478   5.460  17.297  0.00  0.00    +0.000 A 
ATOM     32  N   UNL     1      52.481   4.432  18.189  0.00  0.00    +0.000 NA
ATOM     33  C   UNL     1      51.310   3.959  18.463  0.00  0.00    +0.000 A 
ATOM     34  N   UNL     1      50.136   4.420  17.927  0.00  0.00    +0.000 N 
ATOM     35  C   UNL     1      50.083   5.468  17.043  0.00  0.00    +0.000 A 
ATOM     36  O   UNL     1      49.010   5.880  16.606  0.00  0.00    +0.000 OA
ATOM     37  C   UNL     1      51.372   6.038  16.700  0.00  0.00    +0.000 A 
ATOM     38  H   UNL     1      49.252   4.009  18.187  0.00  0.00    +0.000 HD
ENDBRANCH  25  28
ENDBRANCH  23  24
ENDBRANCH   4  23
TORSDOF 11
ENDMDL
MODEL 6
REMARK VINA RESULT:    -7.047      5.355      6.537
REMARK INTER + INTRA:         -12.530
REMARK INTER:                 -11.292
REMARK INTRA:                  -1.238
REMARK UNBOUND:                -1.157
REMARK  Name = 
REMARK  11 active torsions:
REMARK  status: ('A' for Active; 'I' for Inactive)
REMARK    1  A    between atoms: N_1  and  C_2
REMARK    2  A    between atoms: C_2  and  C_3
REMARK    3  A    between atoms: C_3  and  N_4
REMARK    4  A    between atoms: N_4  and  C_5
REMARK    5  A    between atoms: C_5  and  C_6
REMARK    6  A    between atoms: C_10  and  C_11
REMARK    7  A    between atoms: C_11  and  O_12
REMARK    8  A    between atoms: O_12  and  C_13
REMARK    9  A    between atoms: C_16  and  C_17
REMARK   10  A    between atoms: C_17  and  N_18
REMARK   11  A    between atoms: C_19  and  C_21
REMARK                            x       y       z     vdW  Elec       q    Type
REMARK                         _______ _______ _______ _____ _____    ______ ____
ROOT
ATOM      1  C   UNL     1      47.036   7.214  12.602  0.00  0.00    +0.000 A 
ATOM      2  C   UNL     1      48.150   6.403  12.728  0.00  0.00    +0.000 A 
ATOM      3  C   UNL     1      49.395   6.924  12.374  0.00  0.00    +0.000 A 
ATOM      4  C   UNL     1      49.483   8.222  11.863  0.00  0.00    +0.000 A 
ATOM      5  C   UNL     1      48.304   8.953  11.781  0.00  0.00    +0.000 A 
ATOM      6  N   UNL     1      47.088   8.482  12.141  0.00  0.00    +0.000 NA
ENDROOT
BRANCH   1   7
ATOM      7  O   UNL     1      45.814   6.662  12.938  0.00  0.00    +0.000 OA
BRANCH   7   8
ATOM      8  C   UNL     1      44.885   6.738  11.854  0.00  0.00    +0.000 C 
BRANCH   8  13
ATOM      9  C   UNL     1      44.704   3.613   9.640  0.00  0.00    +0.000 A 
ATOM     10  C   UNL     1      44.028   2.730  10.491  0.00  0.00    +0.000 A 
ATOM     11  C   UNL     1      43.607   3.146  11.752  0.00  0.00    +0.000 A 
ATOM     12  C   UNL     1      43.866   4.448  12.178  0.00  0.00    +0.000 A 
ATOM     13  C   UNL     1      44.542   5.354  11.346  0.00  0.00    +0.000 A 
ATOM     14  C   UNL     1      44.951   4.928  10.074  0.00  0.00    +0.000 A 
BRANCH   9  15
ATOM     15  C   UNL     1      45.170   3.146   8.279  0.00  0.00    +0.000 C 
BRANCH  15  16
ATOM     16  N   UNL     1      46.003   4.121   7.564  0.00  0.00    +0.000 NA
ATOM     17  H   UNL     1      45.362   4.790   7.130  0.00  0.00    +0.000 HD
BRANCH  16  18
ATOM     18  C   UNL     1      46.771   3.518   6.460  0.00  0.00    +0.000 C 
BRANCH  18  19
ATOM     19  C   UNL     1      47.789   2.454   6.914  0.00  0.00    +0.000 C 
BRANCH  19  20
ATOM     20  N   UNL     1      48.403   1.773   5.768  0.00  0.00    +0.000 NA
ATOM     21  H   UNL     1      48.377   0.768   5.929  0.00  0.00    +0.000 HD
ATOM     22  H   UNL     1      49.390   2.025   5.727  0.00  0.00    +0.000 HD
ENDBRANCH  19  20
ENDBRANCH  18  19
ENDBRANCH  16  18
ENDBRANCH  15  16
ENDBRANCH   9  15
ENDBRANCH   8  13
ENDBRANCH   7   8
ENDBRANCH   1   7
BRANCH   4  23
ATOM     23  C   UNL     1      50.795   8.831  11.459  0.00  0.00    +0.000 C 
BRANCH  23  24
ATOM     24  N   UNL     1      51.749   7.810  11.117  0.00  0.00    +0.000 N 
ATOM     25  C   UNL     1      52.595   7.941  10.046  0.00  0.00    +0.000 C 
ATOM     26  O   UNL     1      52.612   8.953   9.349  0.00  0.00    +0.000 OA
ATOM     27  H   UNL     1      51.587   6.885  11.502  0.00  0.00    +0.000 HD
BRANCH  25  28
ATOM     28  C   UNL     1      53.526   6.830   9.815  0.00  0.00    +0.000 A 
ATOM     29  C   UNL     1      54.468   6.500  10.785  0.00  0.00    +0.000 A 
ATOM     30  S   UNL     1      55.406   5.136  10.385  0.00  0.00    +0.000 S 
ATOM     31  C   UNL     1      54.632   4.972   8.880  0.00  0.00    +0.000 A 
ATOM     32  N   UNL     1      54.980   3.978   8.018  0.00  0.00    +0.000 NA
ATOM     33  C   UNL     1      54.331   3.989   6.901  0.00  0.00    +0.000 A 
ATOM     34  N   UNL     1      53.365   4.903   6.567  0.00  0.00    +0.000 N 
ATOM     35  C   UNL     1      52.967   5.907   7.414  0.00  0.00    +0.000 A 
ATOM     36  O   UNL     1      52.074   6.691   7.098  0.00  0.00    +0.000 OA
ATOM     37  C   UNL     1      53.665   5.941   8.684  0.00  0.00    +0.000 A 
ATOM     38  H   UNL     1      52.891   4.854   5.678  0.00  0.00    +0.000 HD
ENDBRANCH  25  28
ENDBRANCH  23  24
ENDBRANCH   4  23
TORSDOF 11
ENDMDL
MODEL 7
REMARK VINA RESULT:    -6.964      3.885      8.611
REMARK INTER + INTRA:         -12.396
REMARK INTER:                 -10.394
REMARK INTRA:                  -2.002
REMARK UNBOUND:                -1.157
REMARK  Name = 
REMARK  11 active torsions:
REMARK  status: ('A' for Active; 'I' for Inactive)
REMARK    1  A    between atoms: N_1  and  C_2
REMARK    2  A    between atoms: C_2  and  C_3
REMARK    3  A    between atoms: C_3  and  N_4
REMARK    4  A    between atoms: N_4  and  C_5
REMARK    5  A    between atoms: C_5  and  C_6
REMARK    6  A    between atoms: C_10  and  C_11
REMARK    7  A    between atoms: C_11  and  O_12
REMARK    8  A    between atoms: O_12  and  C_13
REMARK    9  A    between atoms: C_16  and  C_17
REMARK   10  A    between atoms: C_17  and  N_18
REMARK   11  A    between atoms: C_19  and  C_21
REMARK                            x       y       z     vdW  Elec       q    Type
REMARK                         _______ _______ _______ _____ _____    ______ ____
ROOT
ATOM      1  C   UNL     1      50.815   6.980  17.781  0.00  0.00    +0.000 A 
ATOM      2  C   UNL     1      49.801   7.694  18.395  0.00  0.00    +0.000 A 
ATOM      3  C   UNL     1      48.929   8.433  17.594  0.00  0.00    +0.000 A 
ATOM      4  C   UNL     1      49.124   8.472  16.210  0.00  0.00    +0.000 A 
ATOM      5  C   UNL     1      50.170   7.716  15.695  0.00  0.00    +0.000 A 
ATOM      6  N   UNL     1      51.014   6.971  16.445  0.00  0.00    +0.000 NA
ENDROOT
BRANCH   1   7
ATOM      7  O   UNL     1      51.677   6.276  18.602  0.00  0.00    +0.000 OA
BRANCH   7   8
ATOM      8  C   UNL     1      52.621   5.515  17.846  0.00  0.00    +0.000 C 
BRANCH   8  13
ATOM      9  C   UNL     1      50.514   2.365  17.264  0.00  0.00    +0.000 A 
ATOM     10  C   UNL     1      51.474   1.367  17.472  0.00  0.00    +0.000 A 
ATOM     11  C   UNL     1      52.779   1.704  17.827  0.00  0.00    +0.000 A 
ATOM     12  C   UNL     1      53.138   3.044  17.968  0.00  0.00    +0.000 A 
ATOM     13  C   UNL     1      52.196   4.064  17.766  0.00  0.00    +0.000 A 
ATOM     14  C   UNL     1      50.883   3.713  17.421  0.00  0.00    +0.000 A 
BRANCH   9  15
ATOM     15  C   UNL     1      49.105   1.988  16.866  0.00  0.00    +0.000 C 
BRANCH  15  16
ATOM     16  N   UNL     1      48.326   3.096  16.298  0.00  0.00    +0.000 NA
ATOM     17  H   UNL     1      48.967   3.889  16.214  0.00  0.00    +0.000 HD
BRANCH  16  18
ATOM     18  C   UNL     1      47.237   3.544  17.184  0.00  0.00    +0.000 C 
BRANCH  18  19
ATOM     19  C   UNL     1      47.617   4.730  18.091  0.00  0.00    +0.000 C 
BRANCH  19  20
ATOM     20  N   UNL     1      46.426   5.393  18.636  0.00  0.00    +0.000 NA
ATOM     21  H   UNL     1      45.618   4.791  18.491  0.00  0.00    +0.000 HD
ATOM     22  H   UNL     1      46.247   6.240  18.098  0.00  0.00    +0.000 HD
ENDBRANCH  19  20
ENDBRANCH  18  19
ENDBRANCH  16  18
ENDBRANCH  15  16
ENDBRANCH   9  15
ENDBRANCH   8  13
ENDBRANCH   7   8
ENDBRANCH   1   7
BRANCH   4  23
ATOM     23  C   UNL     1      48.223   9.256  15.301  0.00  0.00    +0.000 C 
BRANCH  23  24
ATOM     24  N   UNL     1      47.279   8.390  14.645  0.00  0.00    +0.000 N 
ATOM     25  C   UNL     1      47.277   8.222  13.284  0.00  0.00    +0.000 C 
ATOM     26  O   UNL     1      48.106   8.767  12.559  0.00  0.00    +0.000 OA
ATOM     27  H   UNL     1      46.447   8.138  15.170  0.00  0.00    +0.000 HD
BRANCH  25  28
ATOM     28  C   UNL     1      46.269   7.301  12.746  0.00  0.00    +0.000 A 
ATOM     29  C   UNL     1      45.211   7.794  11.988  0.00  0.00    +0.000 A 
ATOM     30  S   UNL     1      44.188   6.577  11.377  0.00  0.00    +0.000 S 
ATOM     31  C   UNL     1      45.084   5.354  12.148  0.00  0.00    +0.000 A 
ATOM     32  N   UNL     1      44.726   4.046  12.035  0.00  0.00    +0.000 NA
ATOM     33  C   UNL     1      45.478   3.228  12.695  0.00  0.00    +0.000 A 
ATOM     34  N   UNL     1      46.556   3.599  13.457  0.00  0.00    +0.000 N 
ATOM     35  C   UNL     1      46.965   4.903  13.581  0.00  0.00    +0.000 A 
ATOM     36  O   UNL     1      47.956   5.199  14.246  0.00  0.00    +0.000 OA
ATOM     37  C   UNL     1      46.154   5.864  12.860  0.00  0.00    +0.000 A 
ATOM     38  H   UNL     1      47.106   2.909  13.946  0.00  0.00    +0.000 HD
ENDBRANCH  25  28
ENDBRANCH  23  24
ENDBRANCH   4  23
TORSDOF 11
ENDMDL
MODEL 8
REMARK VINA RESULT:    -6.951      3.705      9.526
REMARK INTER + INTRA:         -12.376
REMARK INTER:                 -10.800
REMARK INTRA:                  -1.576
REMARK UNBOUND:                -1.157
REMARK  Name = 
REMARK  11 active torsions:
REMARK  status: ('A' for Active; 'I' for Inactive)
REMARK    1  A    between atoms: N_1  and  C_2
REMARK    2  A    between atoms: C_2  and  C_3
REMARK    3  A    between atoms: C_3  and  N_4
REMARK    4  A    between atoms: N_4  and  C_5
REMARK    5  A    between atoms: C_5  and  C_6
REMARK    6  A    between atoms: C_10  and  C_11
REMARK    7  A    between atoms: C_11  and  O_12
REMARK    8  A    between atoms: O_12  and  C_13
REMARK    9  A    between atoms: C_16  and  C_17
REMARK   10  A    between atoms: C_17  and  N_18
REMARK   11  A    between atoms: C_19  and  C_21
REMARK                            x       y       z     vdW  Elec       q    Type
REMARK                         _______ _______ _______ _____ _____    ______ ____
ROOT
ATOM      1  C   UNL     1      49.869   7.973  14.978  0.00  0.00    +0.000 A 
ATOM      2  C   UNL     1      49.433   9.218  14.559  0.00  0.00    +0.000 A 
ATOM      3  C   UNL     1      48.452   9.279  13.567  0.00  0.00    +0.000 A 
ATOM      4  C   UNL     1      47.971   8.099  12.995  0.00  0.00    +0.000 A 
ATOM      5  C   UNL     1      48.473   6.902  13.491  0.00  0.00    +0.000 A 
ATOM      6  N   UNL     1      49.405   6.813  14.468  0.00  0.00    +0.000 NA
ENDROOT
BRANCH   1   7
ATOM      7  O   UNL     1      50.858   7.945  15.944  0.00  0.00    +0.000 OA
BRANCH   7   8
ATOM      8  C   UNL     1      50.507   8.738  17.081  0.00  0.00    +0.000 C 
BRANCH   8  13
ATOM      9  C   UNL     1      48.965   6.126  19.426  0.00  0.00    +0.000 A 
ATOM     10  C   UNL     1      47.736   6.730  19.717  0.00  0.00    +0.000 A 
ATOM     11  C   UNL     1      47.394   7.951  19.139  0.00  0.00    +0.000 A 
ATOM     12  C   UNL     1      48.283   8.584  18.271  0.00  0.00    +0.000 A 
ATOM     13  C   UNL     1      49.521   8.001  17.963  0.00  0.00    +0.000 A 
ATOM     14  C   UNL     1      49.850   6.766  18.541  0.00  0.00    +0.000 A 
BRANCH   9  15
ATOM     15  C   UNL     1      49.331   4.808  20.070  0.00  0.00    +0.000 C 
BRANCH  15  16
ATOM     16  N   UNL     1      48.503   3.677  19.633  0.00  0.00    +0.000 NA
ATOM     17  H   UNL     1      48.686   2.911  20.287  0.00  0.00    +0.000 HD
BRANCH  16  18
ATOM     18  C   UNL     1      48.879   3.172  18.300  0.00  0.00    +0.000 C 
BRANCH  18  19
ATOM     19  C   UNL     1      47.831   3.452  17.206  0.00  0.00    +0.000 C 
BRANCH  19  20
ATOM     20  N   UNL     1      46.505   2.954  17.592  0.00  0.00    +0.000 NA
ATOM     21  H   UNL     1      45.957   2.790  16.750  0.00  0.00    +0.000 HD
ATOM     22  H   UNL     1      46.017   3.686  18.108  0.00  0.00    +0.000 HD
ENDBRANCH  19  20
ENDBRANCH  18  19
ENDBRANCH  16  18
ENDBRANCH  15  16
ENDBRANCH   9  15
ENDBRANCH   8  13
ENDBRANCH   7   8
ENDBRANCH   1   7
BRANCH   4  23
ATOM     23  C   UNL     1      46.923   8.105  11.920  0.00  0.00    +0.000 C 
BRANCH  23  24
ATOM     24  N   UNL     1      46.386   6.785  11.722  0.00  0.00    +0.000 N 
ATOM     25  C   UNL     1      45.044   6.570  11.542  0.00  0.00    +0.000 C 
ATOM     26  O   UNL     1      44.236   7.495  11.496  0.00  0.00    +0.000 OA
ATOM     27  H   UNL     1      46.972   6.005  12.004  0.00  0.00    +0.000 HD
BRANCH  25  28
ATOM     28  C   UNL     1      44.632   5.176  11.339  0.00  0.00    +0.000 A 
ATOM     29  C   UNL     1      43.886   4.522  12.315  0.00  0.00    +0.000 A 
ATOM     30  S   UNL     1      43.426   2.942  11.875  0.00  0.00    +0.000 S 
ATOM     31  C   UNL     1      44.254   3.051  10.393  0.00  0.00    +0.000 A 
ATOM     32  N   UNL     1      44.267   2.008   9.520  0.00  0.00    +0.000 NA
ATOM     33  C   UNL     1      44.956   2.218   8.447  0.00  0.00    +0.000 A 
ATOM     34  N   UNL     1      45.634   3.377   8.169  0.00  0.00    +0.000 N 
ATOM     35  C   UNL     1      45.630   4.461   9.010  0.00  0.00    +0.000 A 
ATOM     36  O   UNL     1      46.221   5.498   8.716  0.00  0.00    +0.000 OA
ATOM     37  C   UNL     1      44.870   4.278  10.231  0.00  0.00    +0.000 A 
ATOM     38  H   UNL     1      46.152   3.479   7.309  0.00  0.00    +0.000 HD
ENDBRANCH  25  28
ENDBRANCH  23  24
ENDBRANCH   4  23
TORSDOF 11
ENDMDL
MODEL 9
REMARK VINA RESULT:    -6.564      5.076      6.818
REMARK INTER + INTRA:         -11.750
REMARK INTER:                 -10.341
REMARK INTRA:                  -1.409
REMARK UNBOUND:                -1.157
REMARK  Name = 
REMARK  11 active torsions:
REMARK  status: ('A' for Active; 'I' for Inactive)
REMARK    1  A    between atoms: N_1  and  C_2
REMARK    2  A    between atoms: C_2  and  C_3
REMARK    3  A    between atoms: C_3  and  N_4
REMARK    4  A    between atoms: N_4  and  C_5
REMARK    5  A    between atoms: C_5  and  C_6
REMARK    6  A    between atoms: C_10  and  C_11
REMARK    7  A    between atoms: C_11  and  O_12
REMARK    8  A    between atoms: O_12  and  C_13
REMARK    9  A    between atoms: C_16  and  C_17
REMARK   10  A    between atoms: C_17  and  N_18
REMARK   11  A    between atoms: C_19  and  C_21
REMARK                            x       y       z     vdW  Elec       q    Type
REMARK                         _______ _______ _______ _____ _____    ______ ____
ROOT
ATOM      1  C   UNL     1      48.010   6.654  12.853  0.00  0.00    +0.000 A 
ATOM      2  C   UNL     1      47.945   7.517  11.772  0.00  0.00    +0.000 A 
ATOM      3  C   UNL     1      48.931   8.497  11.645  0.00  0.00    +0.000 A 
ATOM      4  C   UNL     1      49.922   8.614  12.623  0.00  0.00    +0.000 A 
ATOM      5  C   UNL     1      49.898   7.695  13.665  0.00  0.00    +0.000 A 
ATOM      6  N   UNL     1      48.970   6.720  13.799  0.00  0.00    +0.000 NA
ENDROOT
BRANCH   1   7
ATOM      7  O   UNL     1      47.007   5.709  12.965  0.00  0.00    +0.000 OA
BRANCH   7   8
ATOM      8  C   UNL     1      45.793   6.154  12.354  0.00  0.00    +0.000 C 
BRANCH   8  13
ATOM      9  C   UNL     1      44.700   3.713   9.607  0.00  0.00    +0.000 A 
ATOM     10  C   UNL     1      43.951   2.797  10.356  0.00  0.00    +0.000 A 
ATOM     11  C   UNL     1      43.772   2.981  11.725  0.00  0.00    +0.000 A 
ATOM     12  C   UNL     1      44.351   4.079  12.361  0.00  0.00    +0.000 A 
ATOM     13  C   UNL     1      45.107   5.011  11.635  0.00  0.00    +0.000 A 
ATOM     14  C   UNL     1      45.270   4.823  10.255  0.00  0.00    +0.000 A 
BRANCH   9  15
ATOM     15  C   UNL     1      44.899   3.495   8.124  0.00  0.00    +0.000 C 
BRANCH  15  16
ATOM     16  N   UNL     1      46.086   4.162   7.574  0.00  0.00    +0.000 NA
ATOM     17  H   UNL     1      45.801   4.577   6.684  0.00  0.00    +0.000 HD
BRANCH  16  18
ATOM     18  C   UNL     1      47.175   3.221   7.254  0.00  0.00    +0.000 C 
BRANCH  18  19
ATOM     19  C   UNL     1      47.163   2.723   5.796  0.00  0.00    +0.000 C 
BRANCH  19  20
ATOM     20  N   UNL     1      48.362   1.935   5.487  0.00  0.00    +0.000 NA
ATOM     21  H   UNL     1      48.076   1.025   5.131  0.00  0.00    +0.000 HD
ATOM     22  H   UNL     1      48.867   1.752   6.354  0.00  0.00    +0.000 HD
ENDBRANCH  19  20
ENDBRANCH  18  19
ENDBRANCH  16  18
ENDBRANCH  15  16
ENDBRANCH   9  15
ENDBRANCH   8  13
ENDBRANCH   7   8
ENDBRANCH   1   7
BRANCH   4  23
ATOM     23  C   UNL     1      51.002   9.654  12.541  0.00  0.00    +0.000 C 
BRANCH  23  24
ATOM     24  N   UNL     1      51.988   9.291  11.558  0.00  0.00    +0.000 N 
ATOM     25  C   UNL     1      52.071   9.928  10.347  0.00  0.00    +0.000 C 
ATOM     26  O   UNL     1      51.337  10.870  10.054  0.00  0.00    +0.000 OA
ATOM     27  H   UNL     1      52.423   8.379  11.661  0.00  0.00    +0.000 HD
BRANCH  25  28
ATOM     28  C   UNL     1      53.130   9.466   9.441  0.00  0.00    +0.000 A 
ATOM     29  C   UNL     1      53.956  10.389   8.809  0.00  0.00    +0.000 A 
ATOM     30  S   UNL     1      55.179   9.673   7.865  0.00  0.00    +0.000 S 
ATOM     31  C   UNL     1      54.616   8.107   8.217  0.00  0.00    +0.000 A 
ATOM     32  N   UNL     1      55.230   7.008   7.700  0.00  0.00    +0.000 NA
ATOM     33  C   UNL     1      54.679   5.886   8.027  0.00  0.00    +0.000 A 
ATOM     34  N   UNL     1      53.571   5.762   8.824  0.00  0.00    +0.000 N 
ATOM     35  C   UNL     1      52.933   6.840   9.385  0.00  0.00    +0.000 A 
ATOM     36  O   UNL     1      51.961   6.693  10.122  0.00  0.00    +0.000 OA
ATOM     37  C   UNL     1      53.511   8.127   9.049  0.00  0.00    +0.000 A 
ATOM     38  H   UNL     1      53.192   4.853   9.046  0.00  0.00    +0.000 HD
ENDBRANCH  25  28
ENDBRANCH  23  24
ENDBRANCH   4  23
TORSDOF 11
ENDMDL
