MODEL 1
REMARK VINA RESULT:    -7.307      0.000      0.000
REMARK INTER + INTRA:         -12.467
REMARK INTER:                 -11.364
REMARK INTRA:                  -1.102
REMARK UNBOUND:                -1.102
REMARK  Name = 
REMARK  10 active torsions:
REMARK  status: ('A' for Active; 'I' for Inactive)
REMARK    1  A    between atoms: N_1  and  C_2
REMARK    2  A    between atoms: C_2  and  C_3
REMARK    3  A    between atoms: C_3  and  N_4
REMARK    4  A    between atoms: N_4  and  C_5
REMARK    5  A    between atoms: C_5  and  C_6
REMARK    6  A    between atoms: C_9  and  C_10
REMARK    7  A    between atoms: C_10  and  C_11
REMARK    8  A    between atoms: C_14  and  C_15
REMARK    9  A    between atoms: C_15  and  N_16
REMARK   10  A    between atoms: C_17  and  C_19
REMARK                            x       y       z     vdW  Elec       q    Type
REMARK                         _______ _______ _______ _____ _____    ______ ____
ROOT
ATOM      1  C   UNL     1      45.220   6.749  12.473  0.00  0.00    +0.000 A 
ATOM      2  C   UNL     1      45.472   8.126  12.545  0.00  0.00    +0.000 A 
ATOM      3  C   UNL     1      46.634   8.608  13.156  0.00  0.00    +0.000 A 
ATOM      4  C   UNL     1      47.573   7.723  13.699  0.00  0.00    +0.000 A 
ATOM      5  C   UNL     1      47.296   6.350  13.674  0.00  0.00    +0.000 A 
ATOM      6  C   UNL     1      46.137   5.867  13.060  0.00  0.00    +0.000 A 
ENDROOT
BRANCH   1   7
ATOM      7  C   UNL     1      43.997   6.228  11.756  0.00  0.00    +0.000 C 
BRANCH   7  11
ATOM      8  C   UNL     1      44.650   2.778   9.328  0.00  0.00    +0.000 A 
ATOM      9  C   UNL     1      45.340   3.948   9.019  0.00  0.00    +0.000 A 
ATOM     10  C   UNL     1      45.142   5.078   9.811  0.00  0.00    +0.000 A 
ATOM     11  C   UNL     1      44.257   5.023  10.887  0.00  0.00    +0.000 A 
ATOM     12  C   UNL     1      43.626   3.808  11.131  0.00  0.00    +0.000 A 
ATOM     13  N   UNL     1      43.797   2.693  10.383  0.00  0.00    +0.000 NA
BRANCH   8  14
ATOM     14  C   UNL     1      44.904   1.519   8.520  0.00  0.00    +0.000 C 
BRANCH  14  15
ATOM     15  N   UNL     1      46.325   1.116   8.450  0.00  0.00    +0.000 NA
ATOM     16  H   UNL     1      46.857   1.854   8.922  0.00  0.00    +0.000 HD
BRANCH  15  17
ATOM     17  C   UNL     1      46.825   1.090   7.062  0.00  0.00    +0.000 C 
BRANCH  17  18
ATOM     18  C   UNL     1      47.942   2.114   6.788  0.00  0.00    +0.000 C 
BRANCH  18  19
ATOM     19  N   UNL     1      48.468   1.968   5.424  0.00  0.00    +0.000 NA
ATOM     20  H   UNL     1      48.718   0.992   5.273  0.00  0.00    +0.000 HD
ATOM     21  H   UNL     1      49.339   2.496   5.354  0.00  0.00    +0.000 HD
ENDBRANCH  18  19
ENDBRANCH  17  18
ENDBRANCH  15  17
ENDBRANCH  14  15
ENDBRANCH   8  14
ENDBRANCH   7  11
ENDBRANCH   1   7
BRANCH   4  22
ATOM     22  C   UNL     1      48.854   8.232  14.307  0.00  0.00    +0.000 C 
BRANCH  22  23
ATOM     23  N   UNL     1      48.844   8.110  15.741  0.00  0.00    +0.000 N 
ATOM     24  C   UNL     1      49.642   7.194  16.381  0.00  0.00    +0.000 C 
ATOM     25  O   UNL     1      50.441   6.490  15.774  0.00  0.00    +0.000 OA
ATOM     26  H   UNL     1      48.046   8.505  16.228  0.00  0.00    +0.000 HD
BRANCH  24  27
ATOM     27  C   UNL     1      49.532   7.141  17.844  0.00  0.00    +0.000 A 
ATOM     28  C   UNL     1      49.791   8.277  18.598  0.00  0.00    +0.000 A 
ATOM     29  S   UNL     1      49.579   8.051  20.274  0.00  0.00    +0.000 S 
ATOM     30  C   UNL     1      49.180   6.412  20.058  0.00  0.00    +0.000 A 
ATOM     31  N   UNL     1      48.903   5.613  21.123  0.00  0.00    +0.000 NA
ATOM     32  C   UNL     1      48.641   4.387  20.816  0.00  0.00    +0.000 A 
ATOM     33  N   UNL     1      48.626   3.887  19.542  0.00  0.00    +0.000 N 
ATOM     34  C   UNL     1      48.882   4.659  18.433  0.00  0.00    +0.000 A 
ATOM     35  O   UNL     1      48.828   4.185  17.303  0.00  0.00    +0.000 OA
ATOM     36  C   UNL     1      49.190   6.046  18.723  0.00  0.00    +0.000 A 
ATOM     37  H   UNL     1      48.405   2.918  19.369  0.00  0.00    +0.000 HD
ENDBRANCH  24  27
ENDBRANCH  22  23
ENDBRANCH   4  22
TORSDOF 10
ENDMDL
MODEL 2
REMARK VINA RESULT:    -7.058      2.148      2.626
REMARK INTER + INTRA:         -12.080
REMARK INTER:                 -10.818
REMARK INTRA:                  -1.262
REMARK UNBOUND:                -1.102
REMARK  Name = 
REMARK  10 active torsions:
REMARK  status: ('A' for Active; 'I' for Inactive)
REMARK    1  A    between atoms: N_1  and  C_2
REMARK    2  A    between atoms: C_2  and  C_3
REMARK    3  A    between atoms: C_3  and  N_4
REMARK    4  A    between atoms: N_4  and  C_5
REMARK    5  A    between atoms: C_5  and  C_6
REMARK    6  A    between atoms: C_9  and  C_10
REMARK    7  A    between atoms: C_10  and  C_11
REMARK    8  A    between atoms: C_14  and  C_15
REMARK    9  A    between atoms: C_15  and  N_16
REMARK   10  A    between atoms: C_17  and  C_19
REMARK                            x       y       z     vdW  Elec       q    Type
REMARK                         _______ _______ _______ _____ _____    ______ ____
ROOT
ATOM      1  C   UNL     1      45.832   6.618  12.934  0.00  0.00    +0.000 A 
ATOM      2  C   UNL     1      46.790   5.723  13.430  0.00  0.00    +0.000 A 
ATOM      3  C   UNL     1      47.937   6.193  14.078  0.00  0.00    +0.000 A 
ATOM      4  C   UNL     1      48.145   7.566  14.253  0.00  0.00    +0.000 A 
ATOM      5  C   UNL     1      47.213   8.462  13.711  0.00  0.00    +0.000 A 
ATOM      6  C   UNL     1      46.065   7.993  13.067  0.00  0.00    +0.000 A 
ENDROOT
BRANCH   1   7
ATOM      7  C   UNL     1      44.564   6.108  12.292  0.00  0.00    +0.000 C 
BRANCH   7  11
ATOM      8  C   UNL     1      45.284   3.581   8.927  0.00  0.00    +0.000 A 
ATOM      9  C   UNL     1      44.544   3.073   9.993  0.00  0.00    +0.000 A 
ATOM     10  C   UNL     1      44.294   3.893  11.092  0.00  0.00    +0.000 A 
ATOM     11  C   UNL     1      44.792   5.195  11.113  0.00  0.00    +0.000 A 
ATOM     12  C   UNL     1      45.505   5.621   9.998  0.00  0.00    +0.000 A 
ATOM     13  N   UNL     1      45.764   4.852   8.915  0.00  0.00    +0.000 NA
BRANCH   8  14
ATOM     14  C   UNL     1      45.508   2.727   7.692  0.00  0.00    +0.000 C 
BRANCH  14  15
ATOM     15  N   UNL     1      45.992   1.359   7.978  0.00  0.00    +0.000 NA
ATOM     16  H   UNL     1      46.085   1.294   8.997  0.00  0.00    +0.000 HD
BRANCH  15  17
ATOM     17  C   UNL     1      47.344   1.127   7.438  0.00  0.00    +0.000 C 
BRANCH  17  18
ATOM     18  C   UNL     1      47.929   2.341   6.690  0.00  0.00    +0.000 C 
BRANCH  18  19
ATOM     19  N   UNL     1      48.469   1.946   5.383  0.00  0.00    +0.000 NA
ATOM     20  H   UNL     1      47.730   1.488   4.850  0.00  0.00    +0.000 HD
ATOM     21  H   UNL     1      49.191   1.241   5.529  0.00  0.00    +0.000 HD
ENDBRANCH  18  19
ENDBRANCH  17  18
ENDBRANCH  15  17
ENDBRANCH  14  15
ENDBRANCH   8  14
ENDBRANCH   7  11
ENDBRANCH   1   7
BRANCH   4  22
ATOM     22  C   UNL     1      49.349   8.077  15.001  0.00  0.00    +0.000 C 
BRANCH  22  23
ATOM     23  N   UNL     1      50.163   6.997  15.494  0.00  0.00    +0.000 N 
ATOM     24  C   UNL     1      50.416   6.854  16.835  0.00  0.00    +0.000 C 
ATOM     25  O   UNL     1      49.914   7.593  17.675  0.00  0.00    +0.000 OA
ATOM     26  H   UNL     1      50.760   6.530  14.820  0.00  0.00    +0.000 HD
BRANCH  24  27
ATOM     27  C   UNL     1      51.278   5.730  17.222  0.00  0.00    +0.000 A 
ATOM     28  C   UNL     1      52.598   5.965  17.583  0.00  0.00    +0.000 A 
ATOM     29  S   UNL     1      53.444   4.557  18.040  0.00  0.00    +0.000 S 
ATOM     30  C   UNL     1      52.091   3.576  17.725  0.00  0.00    +0.000 A 
ATOM     31  N   UNL     1      52.151   2.227  17.893  0.00  0.00    +0.000 NA
ATOM     32  C   UNL     1      51.061   1.605  17.594  0.00  0.00    +0.000 A 
ATOM     33  N   UNL     1      49.915   2.205  17.148  0.00  0.00    +0.000 N 
ATOM     34  C   UNL     1      49.801   3.565  16.980  0.00  0.00    +0.000 A 
ATOM     35  O   UNL     1      48.747   4.073  16.608  0.00  0.00    +0.000 OA
ATOM     36  C   UNL     1      51.002   4.314  17.296  0.00  0.00    +0.000 A 
ATOM     37  H   UNL     1      49.092   1.659  16.939  0.00  0.00    +0.000 HD
ENDBRANCH  24  27
ENDBRANCH  22  23
ENDBRANCH   4  22
TORSDOF 10
ENDMDL
MODEL 3
REMARK VINA RESULT:    -6.873      5.456      7.818
REMARK INTER + INTRA:         -11.793
REMARK INTER:                 -10.196
REMARK INTRA:                  -1.597
REMARK UNBOUND:                -1.102
REMARK  Name = 
REMARK  10 active torsions:
REMARK  status: ('A' for Active; 'I' for Inactive)
REMARK    1  A    between atoms: N_1  and  C_2
REMARK    2  A    between atoms: C_2  and  C_3
REMARK    3  A    between atoms: C_3  and  N_4
REMARK    4  A    between atoms: N_4  and  C_5
REMARK    5  A    between atoms: C_5  and  C_6
REMARK    6  A    between atoms: C_9  and  C_10
REMARK    7  A    between atoms: C_10  and  C_11
REMARK    8  A    between atoms: C_14  and  C_15
REMARK    9  A    between atoms: C_15  and  N_16
REMARK   10  A    between atoms: C_17  and  C_19
REMARK                            x       y       z     vdW  Elec       q    Type
REMARK                         _______ _______ _______ _____ _____    ______ ____
ROOT
ATOM      1  C   UNL     1      47.440   7.685  12.588  0.00  0.00    +0.000 A 
ATOM      2  C   UNL     1      47.747   8.948  12.064  0.00  0.00    +0.000 A 
ATOM      3  C   UNL     1      49.069   9.296  11.765  0.00  0.00    +0.000 A 
ATOM      4  C   UNL     1      50.109   8.383  11.973  0.00  0.00    +0.000 A 
ATOM      5  C   UNL     1      49.810   7.139  12.546  0.00  0.00    +0.000 A 
ATOM      6  C   UNL     1      48.488   6.790  12.841  0.00  0.00    +0.000 A 
ENDROOT
BRANCH   1   7
ATOM      7  C   UNL     1      46.007   7.288  12.850  0.00  0.00    +0.000 C 
BRANCH   7  11
ATOM      8  C   UNL     1      44.793   3.826  10.667  0.00  0.00    +0.000 A 
ATOM      9  C   UNL     1      44.762   3.778  12.059  0.00  0.00    +0.000 A 
ATOM     10  C   UNL     1      45.147   4.906  12.782  0.00  0.00    +0.000 A 
ATOM     11  C   UNL     1      45.562   6.054  12.107  0.00  0.00    +0.000 A 
ATOM     12  C   UNL     1      45.543   6.015  10.717  0.00  0.00    +0.000 A 
ATOM     13  N   UNL     1      45.175   4.938   9.985  0.00  0.00    +0.000 NA
BRANCH   8  14
ATOM     14  C   UNL     1      44.313   2.632   9.862  0.00  0.00    +0.000 C 
BRANCH  14  15
ATOM     15  N   UNL     1      44.584   2.728   8.411  0.00  0.00    +0.000 NA
ATOM     16  H   UNL     1      43.902   2.118   7.950  0.00  0.00    +0.000 HD
BRANCH  15  17
ATOM     17  C   UNL     1      45.909   2.183   8.060  0.00  0.00    +0.000 C 
BRANCH  17  18
ATOM     18  C   UNL     1      46.626   2.970   6.946  0.00  0.00    +0.000 C 
BRANCH  18  19
ATOM     19  N   UNL     1      46.829   4.372   7.337  0.00  0.00    +0.000 NA
ATOM     20  H   UNL     1      47.065   4.403   8.328  0.00  0.00    +0.000 HD
ATOM     21  H   UNL     1      45.943   4.867   7.242  0.00  0.00    +0.000 HD
ENDBRANCH  18  19
ENDBRANCH  17  18
ENDBRANCH  15  17
ENDBRANCH  14  15
ENDBRANCH   8  14
ENDBRANCH   7  11
ENDBRANCH   1   7
BRANCH   4  22
ATOM     22  C   UNL     1      51.528   8.729  11.600  0.00  0.00    +0.000 C 
BRANCH  22  23
ATOM     23  N   UNL     1      51.866   8.232  10.292  0.00  0.00    +0.000 N 
ATOM     24  C   UNL     1      52.956   8.712   9.610  0.00  0.00    +0.000 C 
ATOM     25  O   UNL     1      53.723   9.532  10.103  0.00  0.00    +0.000 OA
ATOM     26  H   UNL     1      51.136   7.742   9.786  0.00  0.00    +0.000 HD
BRANCH  24  27
ATOM     27  C   UNL     1      53.192   8.150   8.274  0.00  0.00    +0.000 A 
ATOM     28  C   UNL     1      53.144   8.975   7.160  0.00  0.00    +0.000 A 
ATOM     29  S   UNL     1      53.479   8.170   5.695  0.00  0.00    +0.000 S 
ATOM     30  C   UNL     1      53.653   6.678   6.492  0.00  0.00    +0.000 A 
ATOM     31  N   UNL     1      53.927   5.541   5.797  0.00  0.00    +0.000 NA
ATOM     32  C   UNL     1      54.007   4.478   6.525  0.00  0.00    +0.000 A 
ATOM     33  N   UNL     1      53.844   4.446   7.884  0.00  0.00    +0.000 N 
ATOM     34  C   UNL     1      53.584   5.571   8.631  0.00  0.00    +0.000 A 
ATOM     35  O   UNL     1      53.476   5.512   9.852  0.00  0.00    +0.000 OA
ATOM     36  C   UNL     1      53.477   6.795   7.860  0.00  0.00    +0.000 A 
ATOM     37  H   UNL     1      53.929   3.581   8.396  0.00  0.00    +0.000 HD
ENDBRANCH  24  27
ENDBRANCH  22  23
ENDBRANCH   4  22
TORSDOF 10
ENDMDL
MODEL 4
REMARK VINA RESULT:    -6.755      5.129     10.561
REMARK INTER + INTRA:         -11.608
REMARK INTER:                 -10.692
REMARK INTRA:                  -0.916
REMARK UNBOUND:                -1.102
REMARK  Name = 
REMARK  10 active torsions:
REMARK  status: ('A' for Active; 'I' for Inactive)
REMARK    1  A    between atoms: N_1  and  C_2
REMARK    2  A    between atoms: C_2  and  C_3
REMARK    3  A    between atoms: C_3  and  N_4
REMARK    4  A    between atoms: N_4  and  C_5
REMARK    5  A    between atoms: C_5  and  C_6
REMARK    6  A    between atoms: C_9  and  C_10
REMARK    7  A    between atoms: C_10  and  C_11
REMARK    8  A    between atoms: C_14  and  C_15
REMARK    9  A    between atoms: C_15  and  N_16
REMARK   10  A    between atoms: C_17  and  C_19
REMARK                            x       y       z     vdW  Elec       q    Type
REMARK                         _______ _______ _______ _____ _____    ______ ____
ROOT
ATOM      1  C   UNL     1      51.439   4.123  17.580  0.00  0.00    +0.000 A 
ATOM      2  C   UNL     1      50.912   2.825  17.541  0.00  0.00    +0.000 A 
ATOM      3  C   UNL     1      49.551   2.614  17.298  0.00  0.00    +0.000 A 
ATOM      4  C   UNL     1      48.691   3.697  17.079  0.00  0.00    +0.000 A 
ATOM      5  C   UNL     1      49.207   4.997  17.170  0.00  0.00    +0.000 A 
ATOM      6  C   UNL     1      50.569   5.207  17.409  0.00  0.00    +0.000 A 
ENDROOT
BRANCH   1   7
ATOM      7  C   UNL     1      52.920   4.345  17.779  0.00  0.00    +0.000 C 
BRANCH   7  11
ATOM      8  C   UNL     1      54.946   1.020  19.528  0.00  0.00    +0.000 A 
ATOM      9  C   UNL     1      54.772   1.040  18.146  0.00  0.00    +0.000 A 
ATOM     10  C   UNL     1      54.120   2.125  17.563  0.00  0.00    +0.000 A 
ATOM     11  C   UNL     1      53.649   3.163  18.366  0.00  0.00    +0.000 A 
ATOM     12  C   UNL     1      53.884   3.066  19.733  0.00  0.00    +0.000 A 
ATOM     13  N   UNL     1      54.513   2.028  20.330  0.00  0.00    +0.000 NA
BRANCH   8  14
ATOM     14  C   UNL     1      55.713  -0.119  20.174  0.00  0.00    +0.000 C 
BRANCH  14  15
ATOM     15  N   UNL     1      54.869  -1.066  20.936  0.00  0.00    +0.000 NA
ATOM     16  H   UNL     1      55.130  -0.956  21.921  0.00  0.00    +0.000 HD
BRANCH  15  17
ATOM     17  C   UNL     1      55.168  -2.469  20.597  0.00  0.00    +0.000 C 
BRANCH  17  18
ATOM     18  C   UNL     1      53.981  -3.221  19.967  0.00  0.00    +0.000 C 
BRANCH  18  19
ATOM     19  N   UNL     1      52.704  -2.592  20.331  0.00  0.00    +0.000 NA
ATOM     20  H   UNL     1      52.034  -3.324  20.562  0.00  0.00    +0.000 HD
ATOM     21  H   UNL     1      52.331  -2.116  19.510  0.00  0.00    +0.000 HD
ENDBRANCH  18  19
ENDBRANCH  17  18
ENDBRANCH  15  17
ENDBRANCH  14  15
ENDBRANCH   8  14
ENDBRANCH   7  11
ENDBRANCH   1   7
BRANCH   4  22
ATOM     22  C   UNL     1      47.235   3.476  16.759  0.00  0.00    +0.000 C 
BRANCH  22  23
ATOM     23  N   UNL     1      46.754   4.432  15.797  0.00  0.00    +0.000 N 
ATOM     24  C   UNL     1      46.816   4.177  14.450  0.00  0.00    +0.000 C 
ATOM     25  O   UNL     1      47.220   3.107  14.008  0.00  0.00    +0.000 OA
ATOM     26  H   UNL     1      46.637   5.387  16.120  0.00  0.00    +0.000 HD
BRANCH  24  27
ATOM     27  C   UNL     1      46.317   5.234  13.560  0.00  0.00    +0.000 A 
ATOM     28  C   UNL     1      47.108   6.343  13.296  0.00  0.00    +0.000 A 
ATOM     29  S   UNL     1      46.395   7.451  12.215  0.00  0.00    +0.000 S 
ATOM     30  C   UNL     1      44.983   6.512  12.098  0.00  0.00    +0.000 A 
ATOM     31  N   UNL     1      43.935   6.917  11.331  0.00  0.00    +0.000 NA
ATOM     32  C   UNL     1      42.919   6.120  11.354  0.00  0.00    +0.000 A 
ATOM     33  N   UNL     1      42.855   4.955  12.068  0.00  0.00    +0.000 N 
ATOM     34  C   UNL     1      43.895   4.496  12.843  0.00  0.00    +0.000 A 
ATOM     35  O   UNL     1      43.816   3.430  13.445  0.00  0.00    +0.000 OA
ATOM     36  C   UNL     1      45.061   5.358  12.859  0.00  0.00    +0.000 A 
ATOM     37  H   UNL     1      42.032   4.372  12.035  0.00  0.00    +0.000 HD
ENDBRANCH  24  27
ENDBRANCH  22  23
ENDBRANCH   4  22
TORSDOF 10
ENDMDL
MODEL 5
REMARK VINA RESULT:    -6.733      4.618      9.492
REMARK INTER + INTRA:         -11.575
REMARK INTER:                 -10.439
REMARK INTRA:                  -1.136
REMARK UNBOUND:                -1.102
REMARK  Name = 
REMARK  10 active torsions:
REMARK  status: ('A' for Active; 'I' for Inactive)
REMARK    1  A    between atoms: N_1  and  C_2
REMARK    2  A    between atoms: C_2  and  C_3
REMARK    3  A    between atoms: C_3  and  N_4
REMARK    4  A    between atoms: N_4  and  C_5
REMARK    5  A    between atoms: C_5  and  C_6
REMARK    6  A    between atoms: C_9  and  C_10
REMARK    7  A    between atoms: C_10  and  C_11
REMARK    8  A    between atoms: C_14  and  C_15
REMARK    9  A    between atoms: C_15  and  N_16
REMARK   10  A    between atoms: C_17  and  C_19
REMARK                            x       y       z     vdW  Elec       q    Type
REMARK                         _______ _______ _______ _____ _____    ______ ____
ROOT
ATOM      1  C   UNL     1      49.378   5.522  17.008  0.00  0.00    +0.000 A 
ATOM      2  C   UNL     1      48.204   5.099  16.369  0.00  0.00    +0.000 A 
ATOM      3  C   UNL     1      47.807   5.669  15.155  0.00  0.00    +0.000 A 
ATOM      4  C   UNL     1      48.583   6.664  14.548  0.00  0.00    +0.000 A 
ATOM      5  C   UNL     1      49.728   7.123  15.211  0.00  0.00    +0.000 A 
ATOM      6  C   UNL     1      50.127   6.551  16.423  0.00  0.00    +0.000 A 
ENDROOT
BRANCH   1   7
ATOM      7  C   UNL     1      49.839   4.861  18.286  0.00  0.00    +0.000 C 
BRANCH   7  11
ATOM      8  C   UNL     1      52.425   1.530  17.629  0.00  0.00    +0.000 A 
ATOM      9  C   UNL     1      52.948   2.664  18.245  0.00  0.00    +0.000 A 
ATOM     10  C   UNL     1      52.110   3.754  18.473  0.00  0.00    +0.000 A 
ATOM     11  C   UNL     1      50.774   3.697  18.077  0.00  0.00    +0.000 A 
ATOM     12  C   UNL     1      50.337   2.517  17.485  0.00  0.00    +0.000 A 
ATOM     13  N   UNL     1      51.123   1.441  17.250  0.00  0.00    +0.000 NA
BRANCH   8  14
ATOM     14  C   UNL     1      53.304   0.307  17.433  0.00  0.00    +0.000 C 
BRANCH  14  15
ATOM     15  N   UNL     1      53.170  -0.715  18.493  0.00  0.00    +0.000 NA
ATOM     16  H   UNL     1      52.802  -0.228  19.317  0.00  0.00    +0.000 HD
BRANCH  15  17
ATOM     17  C   UNL     1      54.477  -1.262  18.902  0.00  0.00    +0.000 C 
BRANCH  17  18
ATOM     18  C   UNL     1      54.507  -2.800  18.982  0.00  0.00    +0.000 C 
BRANCH  18  19
ATOM     19  N   UNL     1      53.217  -3.375  18.579  0.00  0.00    +0.000 NA
ATOM     20  H   UNL     1      52.506  -2.646  18.626  0.00  0.00    +0.000 HD
ATOM     21  H   UNL     1      52.946  -4.078  19.266  0.00  0.00    +0.000 HD
ENDBRANCH  18  19
ENDBRANCH  17  18
ENDBRANCH  15  17
ENDBRANCH  14  15
ENDBRANCH   8  14
ENDBRANCH   7  11
ENDBRANCH   1   7
BRANCH   4  22
ATOM     22  C   UNL     1      48.193   7.240  13.211  0.00  0.00    +0.000 C 
BRANCH  22  23
ATOM     23  N   UNL     1      47.466   6.287  12.416  0.00  0.00    +0.000 N 
ATOM     24  C   UNL     1      46.375   6.666  11.675  0.00  0.00    +0.000 C 
ATOM     25  O   UNL     1      46.009   7.834  11.604  0.00  0.00    +0.000 OA
ATOM     26  H   UNL     1      47.603   5.307  12.638  0.00  0.00    +0.000 HD
BRANCH  24  27
ATOM     27  C   UNL     1      45.696   5.604  10.920  0.00  0.00    +0.000 A 
ATOM     28  C   UNL     1      45.763   5.592   9.533  0.00  0.00    +0.000 A 
ATOM     29  S   UNL     1      44.955   4.272   8.820  0.00  0.00    +0.000 S 
ATOM     30  C   UNL     1      44.445   3.695  10.335  0.00  0.00    +0.000 A 
ATOM     31  N   UNL     1      43.673   2.579  10.435  0.00  0.00    +0.000 NA
ATOM     32  C   UNL     1      43.338   2.269  11.643  0.00  0.00    +0.000 A 
ATOM     33  N   UNL     1      43.707   2.968  12.760  0.00  0.00    +0.000 N 
ATOM     34  C   UNL     1      44.501   4.090  12.711  0.00  0.00    +0.000 A 
ATOM     35  O   UNL     1      44.840   4.674  13.736  0.00  0.00    +0.000 OA
ATOM     36  C   UNL     1      44.900   4.487  11.374  0.00  0.00    +0.000 A 
ATOM     37  H   UNL     1      43.418   2.666  13.679  0.00  0.00    +0.000 HD
ENDBRANCH  24  27
ENDBRANCH  22  23
ENDBRANCH   4  22
TORSDOF 10
ENDMDL
MODEL 6
REMARK VINA RESULT:    -6.621      5.179      7.327
REMARK INTER + INTRA:         -11.400
REMARK INTER:                  -9.872
REMARK INTRA:                  -1.528
REMARK UNBOUND:                -1.102
REMARK  Name = 
REMARK  10 active torsions:
REMARK  status: ('A' for Active; 'I' for Inactive)
REMARK    1  A    between atoms: N_1  and  C_2
REMARK    2  A    between atoms: C_2  and  C_3
REMARK    3  A    between atoms: C_3  and  N_4
REMARK    4  A    between atoms: N_4  and  C_5
REMARK    5  A    between atoms: C_5  and  C_6
REMARK    6  A    between atoms: C_9  and  C_10
REMARK    7  A    between atoms: C_10  and  C_11
REMARK    8  A    between atoms: C_14  and  C_15
REMARK    9  A    between atoms: C_15  and  N_16
REMARK   10  A    between atoms: C_17  and  C_19
REMARK                            x       y       z     vdW  Elec       q    Type
REMARK                         _______ _______ _______ _____ _____    ______ ____
ROOT
ATOM      1  C   UNL     1      47.234   7.455  12.550  0.00  0.00    +0.000 A 
ATOM      2  C   UNL     1      47.413   8.731  11.996  0.00  0.00    +0.000 A 
ATOM      3  C   UNL     1      48.694   9.206  11.697  0.00  0.00    +0.000 A 
ATOM      4  C   UNL     1      49.822   8.411  11.935  0.00  0.00    +0.000 A 
ATOM      5  C   UNL     1      49.647   7.157  12.536  0.00  0.00    +0.000 A 
ATOM      6  C   UNL     1      48.366   6.681  12.832  0.00  0.00    +0.000 A 
ENDROOT
BRANCH   1   7
ATOM      7  C   UNL     1      45.846   6.919  12.813  0.00  0.00    +0.000 C 
BRANCH   7  11
ATOM      8  C   UNL     1      44.869   3.530  10.409  0.00  0.00    +0.000 A 
ATOM      9  C   UNL     1      44.892   3.378  11.793  0.00  0.00    +0.000 A 
ATOM     10  C   UNL     1      45.200   4.480  12.588  0.00  0.00    +0.000 A 
ATOM     11  C   UNL     1      45.487   5.707  11.991  0.00  0.00    +0.000 A 
ATOM     12  C   UNL     1      45.423   5.769  10.604  0.00  0.00    +0.000 A 
ATOM     13  N   UNL     1      45.126   4.719   9.803  0.00  0.00    +0.000 NA
BRANCH   8  14
ATOM     14  C   UNL     1      44.469   2.359   9.529  0.00  0.00    +0.000 C 
BRANCH  14  15
ATOM     15  N   UNL     1      44.939   2.460   8.131  0.00  0.00    +0.000 NA
ATOM     16  H   UNL     1      44.328   1.852   7.577  0.00  0.00    +0.000 HD
BRANCH  15  17
ATOM     17  C   UNL     1      46.300   1.918   7.965  0.00  0.00    +0.000 C 
BRANCH  17  18
ATOM     18  C   UNL     1      47.202   2.776   7.057  0.00  0.00    +0.000 C 
BRANCH  18  19
ATOM     19  N   UNL     1      46.870   4.201   7.178  0.00  0.00    +0.000 NA
ATOM     20  H   UNL     1      45.947   4.357   6.776  0.00  0.00    +0.000 HD
ATOM     21  H   UNL     1      47.521   4.737   6.604  0.00  0.00    +0.000 HD
ENDBRANCH  18  19
ENDBRANCH  17  18
ENDBRANCH  15  17
ENDBRANCH  14  15
ENDBRANCH   8  14
ENDBRANCH   7  11
ENDBRANCH   1   7
BRANCH   4  22
ATOM     22  C   UNL     1      51.199   8.893  11.561  0.00  0.00    +0.000 C 
BRANCH  22  23
ATOM     23  N   UNL     1      52.057   7.800  11.184  0.00  0.00    +0.000 N 
ATOM     24  C   UNL     1      53.129   7.995  10.348  0.00  0.00    +0.000 C 
ATOM     25  O   UNL     1      53.442   9.108   9.940  0.00  0.00    +0.000 OA
ATOM     26  H   UNL     1      51.690   6.864  11.317  0.00  0.00    +0.000 HD
BRANCH  24  27
ATOM     27  C   UNL     1      53.920   6.805  10.012  0.00  0.00    +0.000 A 
ATOM     28  C   UNL     1      54.869   6.331  10.908  0.00  0.00    +0.000 A 
ATOM     29  S   UNL     1      55.668   4.922  10.379  0.00  0.00    +0.000 S 
ATOM     30  C   UNL     1      54.810   4.921   8.911  0.00  0.00    +0.000 A 
ATOM     31  N   UNL     1      55.040   3.969   7.967  0.00  0.00    +0.000 NA
ATOM     32  C   UNL     1      54.337   4.103   6.893  0.00  0.00    +0.000 A 
ATOM     33  N   UNL     1      53.422   5.097   6.676  0.00  0.00    +0.000 N 
ATOM     34  C   UNL     1      53.142   6.070   7.607  0.00  0.00    +0.000 A 
ATOM     35  O   UNL     1      52.292   6.929   7.393  0.00  0.00    +0.000 OA
ATOM     36  C   UNL     1      53.911   5.970   8.833  0.00  0.00    +0.000 A 
ATOM     37  H   UNL     1      52.897   5.140   5.816  0.00  0.00    +0.000 HD
ENDBRANCH  24  27
ENDBRANCH  22  23
ENDBRANCH   4  22
TORSDOF 10
ENDMDL
MODEL 7
REMARK VINA RESULT:    -6.574      5.285      8.555
REMARK INTER + INTRA:         -11.328
REMARK INTER:                  -9.902
REMARK INTRA:                  -1.427
REMARK UNBOUND:                -1.102
REMARK  Name = 
REMARK  10 active torsions:
REMARK  status: ('A' for Active; 'I' for Inactive)
REMARK    1  A    between atoms: N_1  and  C_2
REMARK    2  A    between atoms: C_2  and  C_3
REMARK    3  A    between atoms: C_3  and  N_4
REMARK    4  A    between atoms: N_4  and  C_5
REMARK    5  A    between atoms: C_5  and  C_6
REMARK    6  A    between atoms: C_9  and  C_10
REMARK    7  A    between atoms: C_10  and  C_11
REMARK    8  A    between atoms: C_14  and  C_15
REMARK    9  A    between atoms: C_15  and  N_16
REMARK   10  A    between atoms: C_17  and  C_19
REMARK                            x       y       z     vdW  Elec       q    Type
REMARK                         _______ _______ _______ _____ _____    ______ ____
ROOT
ATOM      1  C   UNL     1      51.023   8.698  11.127  0.00  0.00    +0.000 A 
ATOM      2  C   UNL     1      50.440   7.475  11.486  0.00  0.00    +0.000 A 
ATOM      3  C   UNL     1      49.111   7.417  11.917  0.00  0.00    +0.000 A 
ATOM      4  C   UNL     1      48.334   8.579  11.988  0.00  0.00    +0.000 A 
ATOM      5  C   UNL     1      48.932   9.808  11.679  0.00  0.00    +0.000 A 
ATOM      6  C   UNL     1      50.259   9.866  11.244  0.00  0.00    +0.000 A 
ENDROOT
BRANCH   1   7
ATOM      7  C   UNL     1      52.438   8.750  10.600  0.00  0.00    +0.000 C 
BRANCH   7  11
ATOM      8  C   UNL     1      53.490   5.485   8.060  0.00  0.00    +0.000 A 
ATOM      9  C   UNL     1      53.953   5.480   9.373  0.00  0.00    +0.000 A 
ATOM     10  C   UNL     1      53.608   6.536  10.215  0.00  0.00    +0.000 A 
ATOM     11  C   UNL     1      52.817   7.578   9.730  0.00  0.00    +0.000 A 
ATOM     12  C   UNL     1      52.387   7.489   8.411  0.00  0.00    +0.000 A 
ATOM     13  N   UNL     1      52.703   6.478   7.569  0.00  0.00    +0.000 NA
BRANCH   8  14
ATOM     14  C   UNL     1      53.799   4.311   7.148  0.00  0.00    +0.000 C 
BRANCH  14  15
ATOM     15  N   UNL     1      53.534   4.567   5.716  0.00  0.00    +0.000 NA
ATOM     16  H   UNL     1      53.174   3.689   5.329  0.00  0.00    +0.000 HD
BRANCH  15  17
ATOM     17  C   UNL     1      54.772   4.855   4.968  0.00  0.00    +0.000 C 
BRANCH  17  18
ATOM     18  C   UNL     1      54.687   6.120   4.093  0.00  0.00    +0.000 C 
BRANCH  18  19
ATOM     19  N   UNL     1      53.977   7.199   4.794  0.00  0.00    +0.000 NA
ATOM     20  H   UNL     1      53.660   6.849   5.696  0.00  0.00    +0.000 HD
ATOM     21  H   UNL     1      53.134   7.428   4.268  0.00  0.00    +0.000 HD
ENDBRANCH  18  19
ENDBRANCH  17  18
ENDBRANCH  15  17
ENDBRANCH  14  15
ENDBRANCH   8  14
ENDBRANCH   7  11
ENDBRANCH   1   7
BRANCH   4  22
ATOM     22  C   UNL     1      46.885   8.517  12.396  0.00  0.00    +0.000 C 
BRANCH  22  23
ATOM     23  N   UNL     1      46.340   7.197  12.213  0.00  0.00    +0.000 N 
ATOM     24  C   UNL     1      45.112   7.010  11.630  0.00  0.00    +0.000 C 
ATOM     25  O   UNL     1      44.455   7.944  11.182  0.00  0.00    +0.000 OA
ATOM     26  H   UNL     1      46.748   6.453  12.770  0.00  0.00    +0.000 HD
BRANCH  24  27
ATOM     27  C   UNL     1      44.646   5.623  11.516  0.00  0.00    +0.000 A 
ATOM     28  C   UNL     1      43.922   5.050  12.553  0.00  0.00    +0.000 A 
ATOM     29  S   UNL     1      43.427   3.450  12.240  0.00  0.00    +0.000 S 
ATOM     30  C   UNL     1      44.203   3.446  10.728  0.00  0.00    +0.000 A 
ATOM     31  N   UNL     1      44.186   2.341   9.935  0.00  0.00    +0.000 NA
ATOM     32  C   UNL     1      44.835   2.470   8.827  0.00  0.00    +0.000 A 
ATOM     33  N   UNL     1      45.496   3.603   8.435  0.00  0.00    +0.000 N 
ATOM     34  C   UNL     1      45.526   4.750   9.194  0.00  0.00    +0.000 A 
ATOM     35  O   UNL     1      46.102   5.759   8.797  0.00  0.00    +0.000 OA
ATOM     36  C   UNL     1      44.816   4.656  10.455  0.00  0.00    +0.000 A 
ATOM     37  H   UNL     1      45.979   3.641   7.550  0.00  0.00    +0.000 HD
ENDBRANCH  24  27
ENDBRANCH  22  23
ENDBRANCH   4  22
TORSDOF 10
ENDMDL
MODEL 8
REMARK VINA RESULT:    -6.438      1.888      2.323
REMARK INTER + INTRA:         -11.116
REMARK INTER:                 -10.042
REMARK INTRA:                  -1.073
REMARK UNBOUND:                -1.102
REMARK  Name = 
REMARK  10 active torsions:
REMARK  status: ('A' for Active; 'I' for Inactive)
REMARK    1  A    between atoms: N_1  and  C_2
REMARK    2  A    between atoms: C_2  and  C_3
REMARK    3  A    between atoms: C_3  and  N_4
REMARK    4  A    between atoms: N_4  and  C_5
REMARK    5  A    between atoms: C_5  and  C_6
REMARK    6  A    between atoms: C_9  and  C_10
REMARK    7  A    between atoms: C_10  and  C_11
REMARK    8  A    between atoms: C_14  and  C_15
REMARK    9  A    between atoms: C_15  and  N_16
REMARK   10  A    between atoms: C_17  and  C_19
REMARK                            x       y       z     vdW  Elec       q    Type
REMARK                         _______ _______ _______ _____ _____    ______ ____
ROOT
ATOM      1  C   UNL     1      45.597   6.951  12.266  0.00  0.00    +0.000 A 
ATOM      2  C   UNL     1      45.702   8.238  12.812  0.00  0.00    +0.000 A 
ATOM      3  C   UNL     1      46.841   8.618  13.530  0.00  0.00    +0.000 A 
ATOM      4  C   UNL     1      47.902   7.723  13.708  0.00  0.00    +0.000 A 
ATOM      5  C   UNL     1      47.775   6.420  13.207  0.00  0.00    +0.000 A 
ATOM      6  C   UNL     1      46.639   6.041  12.486  0.00  0.00    +0.000 A 
ENDROOT
BRANCH   1   7
ATOM      7  C   UNL     1      44.396   6.564  11.436  0.00  0.00    +0.000 C 
BRANCH   7  11
ATOM      8  C   UNL     1      44.833   2.810   9.451  0.00  0.00    +0.000 A 
ATOM      9  C   UNL     1      44.091   2.856  10.628  0.00  0.00    +0.000 A 
ATOM     10  C   UNL     1      43.933   4.078  11.280  0.00  0.00    +0.000 A 
ATOM     11  C   UNL     1      44.523   5.226  10.752  0.00  0.00    +0.000 A 
ATOM     12  C   UNL     1      45.231   5.088   9.564  0.00  0.00    +0.000 A 
ATOM     13  N   UNL     1      45.402   3.918   8.906  0.00  0.00    +0.000 NA
BRANCH   8  14
ATOM     14  C   UNL     1      44.960   1.503   8.690  0.00  0.00    +0.000 C 
BRANCH  14  15
ATOM     15  N   UNL     1      46.350   1.120   8.365  0.00  0.00    +0.000 NA
ATOM     16  H   UNL     1      46.948   1.866   8.733  0.00  0.00    +0.000 HD
BRANCH  15  17
ATOM     17  C   UNL     1      46.591   1.098   6.910  0.00  0.00    +0.000 C 
BRANCH  17  18
ATOM     18  C   UNL     1      47.418   2.294   6.401  0.00  0.00    +0.000 C 
BRANCH  18  19
ATOM     19  N   UNL     1      48.609   1.840   5.671  0.00  0.00    +0.000 NA
ATOM     20  H   UNL     1      48.322   1.160   4.968  0.00  0.00    +0.000 HD
ATOM     21  H   UNL     1      49.215   1.337   6.319  0.00  0.00    +0.000 HD
ENDBRANCH  18  19
ENDBRANCH  17  18
ENDBRANCH  15  17
ENDBRANCH  14  15
ENDBRANCH   8  14
ENDBRANCH   7  11
ENDBRANCH   1   7
BRANCH   4  22
ATOM     22  C   UNL     1      49.156   8.144  14.430  0.00  0.00    +0.000 C 
BRANCH  22  23
ATOM     23  N   UNL     1      49.543   7.178  15.424  0.00  0.00    +0.000 N 
ATOM     24  C   UNL     1      49.278   7.383  16.755  0.00  0.00    +0.000 C 
ATOM     25  O   UNL     1      48.648   8.359  17.150  0.00  0.00    +0.000 OA
ATOM     26  H   UNL     1      50.248   6.501  15.153  0.00  0.00    +0.000 HD
BRANCH  24  27
ATOM     27  C   UNL     1      49.740   6.342  17.682  0.00  0.00    +0.000 A 
ATOM     28  C   UNL     1      48.889   5.876  18.675  0.00  0.00    +0.000 A 
ATOM     29  S   UNL     1      49.568   4.644  19.636  0.00  0.00    +0.000 S 
ATOM     30  C   UNL     1      51.042   4.721  18.791  0.00  0.00    +0.000 A 
ATOM     31  N   UNL     1      52.088   3.924  19.136  0.00  0.00    +0.000 NA
ATOM     32  C   UNL     1      53.152   4.105  18.427  0.00  0.00    +0.000 A 
ATOM     33  N   UNL     1      53.265   5.006  17.403  0.00  0.00    +0.000 N 
ATOM     34  C   UNL     1      52.230   5.820  17.007  0.00  0.00    +0.000 A 
ATOM     35  O   UNL     1      52.355   6.594  16.063  0.00  0.00    +0.000 OA
ATOM     36  C   UNL     1      51.010   5.662  17.776  0.00  0.00    +0.000 A 
ATOM     37  H   UNL     1      54.124   5.093  16.882  0.00  0.00    +0.000 HD
ENDBRANCH  24  27
ENDBRANCH  22  23
ENDBRANCH   4  22
TORSDOF 10
ENDMDL
MODEL 9
REMARK VINA RESULT:    -6.159      4.610      9.892
REMARK INTER + INTRA:         -10.681
REMARK INTER:                  -9.431
REMARK INTRA:                  -1.250
REMARK UNBOUND:                -1.102
REMARK  Name = 
REMARK  10 active torsions:
REMARK  status: ('A' for Active; 'I' for Inactive)
REMARK    1  A    between atoms: N_1  and  C_2
REMARK    2  A    between atoms: C_2  and  C_3
REMARK    3  A    between atoms: C_3  and  N_4
REMARK    4  A    between atoms: N_4  and  C_5
REMARK    5  A    between atoms: C_5  and  C_6
REMARK    6  A    between atoms: C_9  and  C_10
REMARK    7  A    between atoms: C_10  and  C_11
REMARK    8  A    between atoms: C_14  and  C_15
REMARK    9  A    between atoms: C_15  and  N_16
REMARK   10  A    between atoms: C_17  and  C_19
REMARK                            x       y       z     vdW  Elec       q    Type
REMARK                         _______ _______ _______ _____ _____    ______ ____
ROOT
ATOM      1  C   UNL     1      49.101   5.051  17.261  0.00  0.00    +0.000 A 
ATOM      2  C   UNL     1      48.017   4.429  16.626  0.00  0.00    +0.000 A 
ATOM      3  C   UNL     1      47.475   4.963  15.452  0.00  0.00    +0.000 A 
ATOM      4  C   UNL     1      48.014   6.124  14.883  0.00  0.00    +0.000 A 
ATOM      5  C   UNL     1      49.063   6.774  15.545  0.00  0.00    +0.000 A 
ATOM      6  C   UNL     1      49.607   6.239  16.716  0.00  0.00    +0.000 A 
ENDROOT
BRANCH   1   7
ATOM      7  C   UNL     1      49.726   4.439  18.492  0.00  0.00    +0.000 C 
BRANCH   7  11
ATOM      8  C   UNL     1      53.085   1.912  17.745  0.00  0.00    +0.000 A 
ATOM      9  C   UNL     1      51.825   1.478  17.340  0.00  0.00    +0.000 A 
ATOM     10  C   UNL     1      50.722   2.299  17.570  0.00  0.00    +0.000 A 
ATOM     11  C   UNL     1      50.894   3.529  18.204  0.00  0.00    +0.000 A 
ATOM     12  C   UNL     1      52.191   3.887  18.557  0.00  0.00    +0.000 A 
ATOM     13  N   UNL     1      53.282   3.115  18.348  0.00  0.00    +0.000 NA
BRANCH   8  14
ATOM     14  C   UNL     1      54.307   1.063  17.443  0.00  0.00    +0.000 C 
BRANCH  14  15
ATOM     15  N   UNL     1      54.020  -0.158  16.659  0.00  0.00    +0.000 NA
ATOM     16  H   UNL     1      53.000  -0.251  16.635  0.00  0.00    +0.000 HD
BRANCH  15  17
ATOM     17  C   UNL     1      54.518  -1.374  17.329  0.00  0.00    +0.000 C 
BRANCH  17  18
ATOM     18  C   UNL     1      54.304  -1.371  18.855  0.00  0.00    +0.000 C 
BRANCH  18  19
ATOM     19  N   UNL     1      52.994  -1.934  19.206  0.00  0.00    +0.000 NA
ATOM     20  H   UNL     1      52.851  -2.788  18.669  0.00  0.00    +0.000 HD
ATOM     21  H   UNL     1      52.269  -1.285  18.901  0.00  0.00    +0.000 HD
ENDBRANCH  18  19
ENDBRANCH  17  18
ENDBRANCH  15  17
ENDBRANCH  14  15
ENDBRANCH   8  14
ENDBRANCH   7  11
ENDBRANCH   1   7
BRANCH   4  22
ATOM     22  C   UNL     1      47.473   6.672  13.587  0.00  0.00    +0.000 C 
BRANCH  22  23
ATOM     23  N   UNL     1      46.796   5.656  12.825  0.00  0.00    +0.000 N 
ATOM     24  C   UNL     1      45.435   5.688  12.651  0.00  0.00    +0.000 C 
ATOM     25  O   UNL     1      44.745   6.609  13.077  0.00  0.00    +0.000 OA
ATOM     26  H   UNL     1      47.299   4.789  12.669  0.00  0.00    +0.000 HD
BRANCH  24  27
ATOM     27  C   UNL     1      44.848   4.588  11.875  0.00  0.00    +0.000 A 
ATOM     28  C   UNL     1      44.047   3.648  12.508  0.00  0.00    +0.000 A 
ATOM     29  S   UNL     1      43.417   2.465  11.455  0.00  0.00    +0.000 S 
ATOM     30  C   UNL     1      44.232   3.137  10.123  0.00  0.00    +0.000 A 
ATOM     31  N   UNL     1      44.137   2.575   8.888  0.00  0.00    +0.000 NA
ATOM     32  C   UNL     1      44.826   3.174   7.976  0.00  0.00    +0.000 A 
ATOM     33  N   UNL     1      45.598   4.285   8.182  0.00  0.00    +0.000 N 
ATOM     34  C   UNL     1      45.710   4.899   9.408  0.00  0.00    +0.000 A 
ATOM     35  O   UNL     1      46.386   5.914   9.550  0.00  0.00    +0.000 OA
ATOM     36  C   UNL     1      44.960   4.261  10.472  0.00  0.00    +0.000 A 
ATOM     37  H   UNL     1      46.106   4.711   7.422  0.00  0.00    +0.000 HD
ENDBRANCH  24  27
ENDBRANCH  22  23
ENDBRANCH   4  22
TORSDOF 10
ENDMDL
