MODEL 1
REMARK VINA RESULT:    -9.291      0.000      0.000
REMARK INTER + INTRA:         -14.006
REMARK INTER:                 -13.093
REMARK INTRA:                  -0.914
REMARK UNBOUND:                -0.914
REMARK  Name = 
REMARK  7 active torsions:
REMARK  status: ('A' for Active; 'I' for Inactive)
REMARK    1  A    between atoms: C_2  and  C_4
REMARK    2  A    between atoms: C_7  and  N_8
REMARK    3  A    between atoms: N_8  and  C_9
REMARK    4  A    between atoms: C_9  and  C_10
REMARK    5  A    between atoms: C_10  and  C_13
REMARK    6  A    between atoms: C_17  and  N_18
REMARK    7  A    between atoms: N_18  and  C_19
REMARK                            x       y       z     vdW  Elec       q    Type
REMARK                         _______ _______ _______ _____ _____    ______ ____
ROOT
ATOM      1  C   UNL     1      43.490   5.582  12.195  0.00  0.00    +0.000 C 
ATOM      2  F   UNL     1      43.109   6.758  11.615  0.00  0.00    +0.000 F 
ATOM      3  F   UNL     1      42.619   5.394  13.234  0.00  0.00    +0.000 F 
ENDROOT
BRANCH   1   4
ATOM      4  C   UNL     1      44.935   5.624  12.660  0.00  0.00    +0.000 A 
ATOM      5  C   UNL     1      45.871   6.454  12.029  0.00  0.00    +0.000 A 
ATOM      6  C   UNL     1      47.204   6.448  12.440  0.00  0.00    +0.000 A 
ATOM      7  C   UNL     1      47.615   5.616  13.484  0.00  0.00    +0.000 A 
ATOM      8  C   UNL     1      46.697   4.802  14.154  0.00  0.00    +0.000 A 
ATOM      9  C   UNL     1      45.365   4.801  13.715  0.00  0.00    +0.000 A 
BRANCH   8  10
ATOM     10  N   UNL     1      47.070   3.892  15.157  0.00  0.00    +0.000 N 
ATOM     11  H   UNL     1      46.824   2.928  14.954  0.00  0.00    +0.000 HD
BRANCH  10  12
ATOM     12  C   UNL     1      47.187   4.133  16.550  0.00  0.00    +0.000 C 
ATOM     13  C   UNL     1      48.604   3.841  17.060  0.00  0.00    +0.000 C 
ATOM     14  C   UNL     1      47.878   3.076  18.163  0.00  0.00    +0.000 C 
ATOM     15  O   UNL     1      46.655   3.068  17.380  0.00  0.00    +0.000 OA
ENDBRANCH  10  12
ENDBRANCH   8  10
ENDBRANCH   1   4
BRANCH   1  16
ATOM     16  C   UNL     1      43.285   4.427  11.182  0.00  0.00    +0.000 C 
BRANCH  16  17
ATOM     17  N   UNL     1      43.694   4.749   9.799  0.00  0.00    +0.000 N 
ATOM     18  H   UNL     1      42.929   5.038   9.189  0.00  0.00    +0.000 HD
BRANCH  17  22
ATOM     19  C   UNL     1      46.443   2.274   7.755  0.00  0.00    +0.000 A 
ATOM     20  C   UNL     1      46.442   3.648   7.521  0.00  0.00    +0.000 A 
ATOM     21  C   UNL     1      45.548   4.477   8.208  0.00  0.00    +0.000 A 
ATOM     22  C   UNL     1      44.657   3.967   9.160  0.00  0.00    +0.000 A 
ATOM     23  C   UNL     1      44.654   2.579   9.366  0.00  0.00    +0.000 A 
ATOM     24  C   UNL     1      45.533   1.737   8.670  0.00  0.00    +0.000 A 
BRANCH  19  26
ATOM     25  N   UNL     1      48.489   1.934   6.489  0.00  0.00    +0.000 N 
ATOM     26  C   UNL     1      47.363   1.367   7.022  0.00  0.00    +0.000 C 
ATOM     27  O   UNL     1      47.146   0.169   6.919  0.00  0.00    +0.000 OA
ATOM     28  H   UNL     1      49.156   1.300   6.064  0.00  0.00    +0.000 HD
ATOM     29  H   UNL     1      48.817   2.853   6.756  0.00  0.00    +0.000 HD
ENDBRANCH  19  26
ENDBRANCH  17  22
ENDBRANCH  16  17
ENDBRANCH   1  16
TORSDOF 7
ENDMDL
MODEL 2
REMARK VINA RESULT:    -8.360      3.326      4.716
REMARK INTER + INTRA:         -12.695
REMARK INTER:                 -11.576
REMARK INTRA:                  -1.118
REMARK UNBOUND:                -0.914
REMARK  Name = 
REMARK  7 active torsions:
REMARK  status: ('A' for Active; 'I' for Inactive)
REMARK    1  A    between atoms: C_2  and  C_4
REMARK    2  A    between atoms: C_7  and  N_8
REMARK    3  A    between atoms: N_8  and  C_9
REMARK    4  A    between atoms: C_9  and  C_10
REMARK    5  A    between atoms: C_10  and  C_13
REMARK    6  A    between atoms: C_17  and  N_18
REMARK    7  A    between atoms: N_18  and  C_19
REMARK                            x       y       z     vdW  Elec       q    Type
REMARK                         _______ _______ _______ _____ _____    ______ ____
ROOT
ATOM      1  C   UNL     1      44.516   4.488  12.408  0.00  0.00    +0.000 C 
ATOM      2  F   UNL     1      43.951   4.336  13.642  0.00  0.00    +0.000 F 
ATOM      3  F   UNL     1      45.302   3.381  12.234  0.00  0.00    +0.000 F 
ENDROOT
BRANCH   1   4
ATOM      4  C   UNL     1      45.312   5.777  12.307  0.00  0.00    +0.000 A 
ATOM      5  C   UNL     1      46.696   5.753  12.085  0.00  0.00    +0.000 A 
ATOM      6  C   UNL     1      47.420   6.943  12.039  0.00  0.00    +0.000 A 
ATOM      7  C   UNL     1      46.772   8.169  12.212  0.00  0.00    +0.000 A 
ATOM      8  C   UNL     1      45.387   8.225  12.402  0.00  0.00    +0.000 A 
ATOM      9  C   UNL     1      44.676   7.019  12.469  0.00  0.00    +0.000 A 
BRANCH   8  10
ATOM     10  N   UNL     1      44.697   9.422  12.656  0.00  0.00    +0.000 N 
ATOM     11  H   UNL     1      44.540   9.608  13.642  0.00  0.00    +0.000 HD
BRANCH  10  12
ATOM     12  C   UNL     1      43.742  10.068  11.830  0.00  0.00    +0.000 C 
ATOM     13  C   UNL     1      44.151  10.031  10.352  0.00  0.00    +0.000 C 
ATOM     14  C   UNL     1      43.802  11.516  10.383  0.00  0.00    +0.000 C 
ATOM     15  O   UNL     1      43.840  11.515  11.835  0.00  0.00    +0.000 OA
ENDBRANCH  10  12
ENDBRANCH   8  10
ENDBRANCH   1   4
BRANCH   1  16
ATOM     16  C   UNL     1      43.401   4.458  11.332  0.00  0.00    +0.000 C 
BRANCH  16  17
ATOM     17  N   UNL     1      43.845   4.867   9.983  0.00  0.00    +0.000 N 
ATOM     18  H   UNL     1      43.148   5.382   9.447  0.00  0.00    +0.000 HD
BRANCH  17  22
ATOM     19  C   UNL     1      46.356   2.294   7.760  0.00  0.00    +0.000 A 
ATOM     20  C   UNL     1      45.394   1.756   8.614  0.00  0.00    +0.000 A 
ATOM     21  C   UNL     1      44.546   2.600   9.339  0.00  0.00    +0.000 A 
ATOM     22  C   UNL     1      44.614   3.993   9.212  0.00  0.00    +0.000 A 
ATOM     23  C   UNL     1      45.603   4.520   8.368  0.00  0.00    +0.000 A 
ATOM     24  C   UNL     1      46.471   3.682   7.651  0.00  0.00    +0.000 A 
BRANCH  19  26
ATOM     25  N   UNL     1      48.393   2.025   6.464  0.00  0.00    +0.000 N 
ATOM     26  C   UNL     1      47.287   1.422   6.999  0.00  0.00    +0.000 C 
ATOM     27  O   UNL     1      47.096   0.222   6.876  0.00  0.00    +0.000 OA
ATOM     28  H   UNL     1      49.070   1.414   6.019  0.00  0.00    +0.000 HD
ATOM     29  H   UNL     1      48.704   2.945   6.745  0.00  0.00    +0.000 HD
ENDBRANCH  19  26
ENDBRANCH  17  22
ENDBRANCH  16  17
ENDBRANCH   1  16
TORSDOF 7
ENDMDL
MODEL 3
REMARK VINA RESULT:    -7.993      2.490      3.706
REMARK INTER + INTRA:         -12.177
REMARK INTER:                 -11.133
REMARK INTRA:                  -1.045
REMARK UNBOUND:                -0.914
REMARK  Name = 
REMARK  7 active torsions:
REMARK  status: ('A' for Active; 'I' for Inactive)
REMARK    1  A    between atoms: C_2  and  C_4
REMARK    2  A    between atoms: C_7  and  N_8
REMARK    3  A    between atoms: N_8  and  C_9
REMARK    4  A    between atoms: C_9  and  C_10
REMARK    5  A    between atoms: C_10  and  C_13
REMARK    6  A    between atoms: C_17  and  N_18
REMARK    7  A    between atoms: N_18  and  C_19
REMARK                            x       y       z     vdW  Elec       q    Type
REMARK                         _______ _______ _______ _____ _____    ______ ____
ROOT
ATOM      1  C   UNL     1      43.943   4.792  12.441  0.00  0.00    +0.000 C 
ATOM      2  F   UNL     1      42.970   5.278  13.267  0.00  0.00    +0.000 F 
ATOM      3  F   UNL     1      43.829   3.430  12.513  0.00  0.00    +0.000 F 
ENDROOT
BRANCH   1   4
ATOM      4  C   UNL     1      45.324   5.272  12.852  0.00  0.00    +0.000 A 
ATOM      5  C   UNL     1      46.020   4.654  13.899  0.00  0.00    +0.000 A 
ATOM      6  C   UNL     1      47.268   5.134  14.293  0.00  0.00    +0.000 A 
ATOM      7  C   UNL     1      47.834   6.236  13.646  0.00  0.00    +0.000 A 
ATOM      8  C   UNL     1      47.179   6.852  12.576  0.00  0.00    +0.000 A 
ATOM      9  C   UNL     1      45.914   6.372  12.207  0.00  0.00    +0.000 A 
BRANCH   8  10
ATOM     10  N   UNL     1      47.667   8.006  11.941  0.00  0.00    +0.000 N 
ATOM     11  H   UNL     1      47.529   8.015  10.936  0.00  0.00    +0.000 HD
BRANCH  10  12
ATOM     12  C   UNL     1      48.754   8.825  12.340  0.00  0.00    +0.000 C 
ATOM     13  C   UNL     1      48.939  10.023  11.399  0.00  0.00    +0.000 C 
ATOM     14  C   UNL     1      50.408   9.609  11.420  0.00  0.00    +0.000 C 
ATOM     15  O   UNL     1      50.054   8.307  11.957  0.00  0.00    +0.000 OA
ENDBRANCH  10  12
ENDBRANCH   8  10
ENDBRANCH   1   4
BRANCH   1  16
ATOM     16  C   UNL     1      43.635   5.223  10.985  0.00  0.00    +0.000 C 
BRANCH  16  17
ATOM     17  N   UNL     1      43.449   4.098  10.044  0.00  0.00    +0.000 N 
ATOM     18  H   UNL     1      42.825   3.365  10.380  0.00  0.00    +0.000 HD
BRANCH  17  22
ATOM     19  C   UNL     1      46.596   2.526   7.702  0.00  0.00    +0.000 A 
ATOM     20  C   UNL     1      46.332   3.894   7.677  0.00  0.00    +0.000 A 
ATOM     21  C   UNL     1      45.304   4.426   8.465  0.00  0.00    +0.000 A 
ATOM     22  C   UNL     1      44.537   3.618   9.312  0.00  0.00    +0.000 A 
ATOM     23  C   UNL     1      44.798   2.240   9.306  0.00  0.00    +0.000 A 
ATOM     24  C   UNL     1      45.814   1.694   8.507  0.00  0.00    +0.000 A 
BRANCH  19  26
ATOM     25  N   UNL     1      48.633   2.784   6.403  0.00  0.00    +0.000 N 
ATOM     26  C   UNL     1      47.663   1.931   6.857  0.00  0.00    +0.000 C 
ATOM     27  O   UNL     1      47.696   0.738   6.599  0.00  0.00    +0.000 OA
ATOM     28  H   UNL     1      49.406   2.362   5.899  0.00  0.00    +0.000 HD
ATOM     29  H   UNL     1      48.772   3.709   6.787  0.00  0.00    +0.000 HD
ENDBRANCH  19  26
ENDBRANCH  17  22
ENDBRANCH  16  17
ENDBRANCH   1  16
TORSDOF 7
ENDMDL
MODEL 4
REMARK VINA RESULT:    -7.811      2.092      2.612
REMARK INTER + INTRA:         -11.921
REMARK INTER:                 -11.083
REMARK INTRA:                  -0.838
REMARK UNBOUND:                -0.914
REMARK  Name = 
REMARK  7 active torsions:
REMARK  status: ('A' for Active; 'I' for Inactive)
REMARK    1  A    between atoms: C_2  and  C_4
REMARK    2  A    between atoms: C_7  and  N_8
REMARK    3  A    between atoms: N_8  and  C_9
REMARK    4  A    between atoms: C_9  and  C_10
REMARK    5  A    between atoms: C_10  and  C_13
REMARK    6  A    between atoms: C_17  and  N_18
REMARK    7  A    between atoms: N_18  and  C_19
REMARK                            x       y       z     vdW  Elec       q    Type
REMARK                         _______ _______ _______ _____ _____    ______ ____
ROOT
ATOM      1  C   UNL     1      44.790   4.981  12.368  0.00  0.00    +0.000 C 
ATOM      2  F   UNL     1      43.951   4.756  13.422  0.00  0.00    +0.000 F 
ATOM      3  F   UNL     1      45.557   3.851  12.271  0.00  0.00    +0.000 F 
ENDROOT
BRANCH   1   4
ATOM      4  C   UNL     1      45.632   6.228  12.572  0.00  0.00    +0.000 A 
ATOM      5  C   UNL     1      45.218   7.467  12.066  0.00  0.00    +0.000 A 
ATOM      6  C   UNL     1      46.023   8.595  12.224  0.00  0.00    +0.000 A 
ATOM      7  C   UNL     1      47.248   8.497  12.888  0.00  0.00    +0.000 A 
ATOM      8  C   UNL     1      47.672   7.281  13.433  0.00  0.00    +0.000 A 
ATOM      9  C   UNL     1      46.862   6.151  13.246  0.00  0.00    +0.000 A 
BRANCH   8  10
ATOM     10  N   UNL     1      48.925   7.110  14.044  0.00  0.00    +0.000 N 
ATOM     11  H   UNL     1      49.582   6.564  13.495  0.00  0.00    +0.000 HD
BRANCH  10  12
ATOM     12  C   UNL     1      49.218   7.065  15.431  0.00  0.00    +0.000 C 
ATOM     13  C   UNL     1      50.667   7.484  15.719  0.00  0.00    +0.000 C 
ATOM     14  C   UNL     1      50.688   6.229  16.587  0.00  0.00    +0.000 C 
ATOM     15  O   UNL     1      49.491   5.732  15.933  0.00  0.00    +0.000 OA
ENDBRANCH  10  12
ENDBRANCH   8  10
ENDBRANCH   1   4
BRANCH   1  16
ATOM     16  C   UNL     1      43.952   5.104  11.070  0.00  0.00    +0.000 C 
BRANCH  16  17
ATOM     17  N   UNL     1      43.719   3.823  10.372  0.00  0.00    +0.000 N 
ATOM     18  H   UNL     1      43.395   3.067  10.974  0.00  0.00    +0.000 HD
BRANCH  17  22
ATOM     19  C   UNL     1      46.554   2.678   7.455  0.00  0.00    +0.000 A 
ATOM     20  C   UNL     1      45.968   1.709   8.268  0.00  0.00    +0.000 A 
ATOM     21  C   UNL     1      45.014   2.077   9.223  0.00  0.00    +0.000 A 
ATOM     22  C   UNL     1      44.601   3.407   9.373  0.00  0.00    +0.000 A 
ATOM     23  C   UNL     1      45.218   4.373   8.564  0.00  0.00    +0.000 A 
ATOM     24  C   UNL     1      46.189   4.017   7.616  0.00  0.00    +0.000 A 
BRANCH  19  26
ATOM     25  N   UNL     1      47.550   2.995   5.261  0.00  0.00    +0.000 N 
ATOM     26  C   UNL     1      47.589   2.319   6.450  0.00  0.00    +0.000 C 
ATOM     27  O   UNL     1      48.451   1.484   6.679  0.00  0.00    +0.000 OA
ATOM     28  H   UNL     1      48.307   2.811   4.612  0.00  0.00    +0.000 HD
ATOM     29  H   UNL     1      47.016   3.845   5.132  0.00  0.00    +0.000 HD
ENDBRANCH  19  26
ENDBRANCH  17  22
ENDBRANCH  16  17
ENDBRANCH   1  16
TORSDOF 7
ENDMDL
MODEL 5
REMARK VINA RESULT:    -7.185      1.819      7.726
REMARK INTER + INTRA:         -11.039
REMARK INTER:                 -10.088
REMARK INTRA:                  -0.952
REMARK UNBOUND:                -0.914
REMARK  Name = 
REMARK  7 active torsions:
REMARK  status: ('A' for Active; 'I' for Inactive)
REMARK    1  A    between atoms: C_2  and  C_4
REMARK    2  A    between atoms: C_7  and  N_8
REMARK    3  A    between atoms: N_8  and  C_9
REMARK    4  A    between atoms: C_9  and  C_10
REMARK    5  A    between atoms: C_10  and  C_13
REMARK    6  A    between atoms: C_17  and  N_18
REMARK    7  A    between atoms: N_18  and  C_19
REMARK                            x       y       z     vdW  Elec       q    Type
REMARK                         _______ _______ _______ _____ _____    ______ ____
ROOT
ATOM      1  C   UNL     1      45.325   6.478  11.819  0.00  0.00    +0.000 C 
ATOM      2  F   UNL     1      44.574   6.674  12.943  0.00  0.00    +0.000 F 
ATOM      3  F   UNL     1      45.099   7.580  11.039  0.00  0.00    +0.000 F 
ENDROOT
BRANCH   1   4
ATOM      4  C   UNL     1      44.954   5.188  11.109  0.00  0.00    +0.000 A 
ATOM      5  C   UNL     1      44.305   4.151  11.792  0.00  0.00    +0.000 A 
ATOM      6  C   UNL     1      44.010   2.956  11.138  0.00  0.00    +0.000 A 
ATOM      7  C   UNL     1      44.358   2.784   9.796  0.00  0.00    +0.000 A 
ATOM      8  C   UNL     1      44.976   3.814   9.079  0.00  0.00    +0.000 A 
ATOM      9  C   UNL     1      45.287   5.001   9.757  0.00  0.00    +0.000 A 
BRANCH   8  10
ATOM     10  N   UNL     1      45.414   3.667   7.753  0.00  0.00    +0.000 N 
ATOM     11  H   UNL     1      44.698   3.334   7.115  0.00  0.00    +0.000 HD
BRANCH  10  12
ATOM     12  C   UNL     1      46.722   3.361   7.298  0.00  0.00    +0.000 C 
ATOM     13  C   UNL     1      46.735   3.000   5.806  0.00  0.00    +0.000 C 
ATOM     14  C   UNL     1      47.586   1.819   6.263  0.00  0.00    +0.000 C 
ATOM     15  O   UNL     1      47.167   2.023   7.638  0.00  0.00    +0.000 OA
ENDBRANCH  10  12
ENDBRANCH   8  10
ENDBRANCH   1   4
BRANCH   1  16
ATOM     16  C   UNL     1      46.826   6.465  12.207  0.00  0.00    +0.000 C 
BRANCH  16  17
ATOM     17  N   UNL     1      47.100   6.896  13.594  0.00  0.00    +0.000 N 
ATOM     18  H   UNL     1      47.573   7.796  13.671  0.00  0.00    +0.000 HD
BRANCH  17  22
ATOM     19  C   UNL     1      48.271   4.194  16.625  0.00  0.00    +0.000 A 
ATOM     20  C   UNL     1      47.340   3.798  15.667  0.00  0.00    +0.000 A 
ATOM     21  C   UNL     1      46.961   4.680  14.649  0.00  0.00    +0.000 A 
ATOM     22  C   UNL     1      47.517   5.960  14.542  0.00  0.00    +0.000 A 
ATOM     23  C   UNL     1      48.435   6.353  15.529  0.00  0.00    +0.000 A 
ATOM     24  C   UNL     1      48.808   5.483  16.564  0.00  0.00    +0.000 A 
BRANCH  19  26
ATOM     25  N   UNL     1      47.900   3.321  18.863  0.00  0.00    +0.000 N 
ATOM     26  C   UNL     1      48.672   3.288  17.733  0.00  0.00    +0.000 C 
ATOM     27  O   UNL     1      49.624   2.529  17.636  0.00  0.00    +0.000 OA
ATOM     28  H   UNL     1      48.123   2.642  19.582  0.00  0.00    +0.000 HD
ATOM     29  H   UNL     1      46.983   3.747  18.886  0.00  0.00    +0.000 HD
ENDBRANCH  19  26
ENDBRANCH  17  22
ENDBRANCH  16  17
ENDBRANCH   1  16
TORSDOF 7
ENDMDL
MODEL 6
REMARK VINA RESULT:    -7.010      2.049      7.211
REMARK INTER + INTRA:         -10.793
REMARK INTER:                 -10.188
REMARK INTRA:                  -0.605
REMARK UNBOUND:                -0.914
REMARK  Name = 
REMARK  7 active torsions:
REMARK  status: ('A' for Active; 'I' for Inactive)
REMARK    1  A    between atoms: C_2  and  C_4
REMARK    2  A    between atoms: C_7  and  N_8
REMARK    3  A    between atoms: N_8  and  C_9
REMARK    4  A    between atoms: C_9  and  C_10
REMARK    5  A    between atoms: C_10  and  C_13
REMARK    6  A    between atoms: C_17  and  N_18
REMARK    7  A    between atoms: N_18  and  C_19
REMARK                            x       y       z     vdW  Elec       q    Type
REMARK                         _______ _______ _______ _____ _____    ______ ____
ROOT
ATOM      1  C   UNL     1      45.673   7.306  12.047  0.00  0.00    +0.000 C 
ATOM      2  F   UNL     1      45.483   7.904  13.261  0.00  0.00    +0.000 F 
ATOM      3  F   UNL     1      45.339   8.257  11.122  0.00  0.00    +0.000 F 
ENDROOT
BRANCH   1   4
ATOM      4  C   UNL     1      44.836   6.047  11.901  0.00  0.00    +0.000 A 
ATOM      5  C   UNL     1      43.755   5.797  12.758  0.00  0.00    +0.000 A 
ATOM      6  C   UNL     1      43.024   4.616  12.640  0.00  0.00    +0.000 A 
ATOM      7  C   UNL     1      43.362   3.673  11.666  0.00  0.00    +0.000 A 
ATOM      8  C   UNL     1      44.414   3.910  10.775  0.00  0.00    +0.000 A 
ATOM      9  C   UNL     1      45.155   5.092  10.922  0.00  0.00    +0.000 A 
BRANCH   8  10
ATOM     10  N   UNL     1      44.844   2.966   9.829  0.00  0.00    +0.000 N 
ATOM     11  H   UNL     1      45.509   2.290  10.191  0.00  0.00    +0.000 HD
BRANCH  10  12
ATOM     12  C   UNL     1      44.959   3.131   8.425  0.00  0.00    +0.000 C 
ATOM     13  C   UNL     1      46.132   2.324   7.852  0.00  0.00    +0.000 C 
ATOM     14  C   UNL     1      46.468   3.626   7.131  0.00  0.00    +0.000 C 
ATOM     15  O   UNL     1      45.601   4.370   8.028  0.00  0.00    +0.000 OA
ENDBRANCH  10  12
ENDBRANCH   8  10
ENDBRANCH   1   4
BRANCH   1  16
ATOM     16  C   UNL     1      47.177   6.975  11.873  0.00  0.00    +0.000 C 
BRANCH  16  17
ATOM     17  N   UNL     1      47.989   7.172  13.092  0.00  0.00    +0.000 N 
ATOM     18  H   UNL     1      48.951   7.462  12.916  0.00  0.00    +0.000 HD
BRANCH  17  22
ATOM     19  C   UNL     1      47.710   4.351  16.226  0.00  0.00    +0.000 A 
ATOM     20  C   UNL     1      48.375   5.558  16.438  0.00  0.00    +0.000 A 
ATOM     21  C   UNL     1      48.455   6.506  15.412  0.00  0.00    +0.000 A 
ATOM     22  C   UNL     1      47.855   6.290  14.166  0.00  0.00    +0.000 A 
ATOM     23  C   UNL     1      47.211   5.060  13.960  0.00  0.00    +0.000 A 
ATOM     24  C   UNL     1      47.141   4.096  14.976  0.00  0.00    +0.000 A 
BRANCH  19  26
ATOM     25  N   UNL     1      48.804   2.994  17.919  0.00  0.00    +0.000 N 
ATOM     26  C   UNL     1      47.632   3.316  17.289  0.00  0.00    +0.000 C 
ATOM     27  O   UNL     1      46.575   2.795  17.609  0.00  0.00    +0.000 OA
ATOM     28  H   UNL     1      48.735   2.351  18.701  0.00  0.00    +0.000 HD
ATOM     29  H   UNL     1      49.636   3.565  17.853  0.00  0.00    +0.000 HD
ENDBRANCH  19  26
ENDBRANCH  17  22
ENDBRANCH  16  17
ENDBRANCH   1  16
TORSDOF 7
ENDMDL
MODEL 7
REMARK VINA RESULT:    -6.546      2.856      6.922
REMARK INTER + INTRA:         -10.138
REMARK INTER:                  -9.710
REMARK INTRA:                  -0.428
REMARK UNBOUND:                -0.914
REMARK  Name = 
REMARK  7 active torsions:
REMARK  status: ('A' for Active; 'I' for Inactive)
REMARK    1  A    between atoms: C_2  and  C_4
REMARK    2  A    between atoms: C_7  and  N_8
REMARK    3  A    between atoms: N_8  and  C_9
REMARK    4  A    between atoms: C_9  and  C_10
REMARK    5  A    between atoms: C_10  and  C_13
REMARK    6  A    between atoms: C_17  and  N_18
REMARK    7  A    between atoms: N_18  and  C_19
REMARK                            x       y       z     vdW  Elec       q    Type
REMARK                         _______ _______ _______ _____ _____    ______ ____
ROOT
ATOM      1  C   UNL     1      43.532   3.626  11.584  0.00  0.00    +0.000 C 
ATOM      2  F   UNL     1      42.975   2.383  11.679  0.00  0.00    +0.000 F 
ATOM      3  F   UNL     1      42.472   4.487  11.479  0.00  0.00    +0.000 F 
ENDROOT
BRANCH   1   4
ATOM      4  C   UNL     1      44.475   3.733  10.399  0.00  0.00    +0.000 A 
ATOM      5  C   UNL     1      44.850   4.982   9.886  0.00  0.00    +0.000 A 
ATOM      6  C   UNL     1      45.682   5.063   8.770  0.00  0.00    +0.000 A 
ATOM      7  C   UNL     1      46.149   3.898   8.155  0.00  0.00    +0.000 A 
ATOM      8  C   UNL     1      45.819   2.638   8.664  0.00  0.00    +0.000 A 
ATOM      9  C   UNL     1      44.963   2.573   9.773  0.00  0.00    +0.000 A 
BRANCH   8  10
ATOM     10  N   UNL     1      46.198   1.438   8.042  0.00  0.00    +0.000 N 
ATOM     11  H   UNL     1      46.412   0.686   8.689  0.00  0.00    +0.000 HD
BRANCH  10  12
ATOM     12  C   UNL     1      46.852   1.274   6.794  0.00  0.00    +0.000 C 
ATOM     13  C   UNL     1      48.234   1.940   6.785  0.00  0.00    +0.000 C 
ATOM     14  C   UNL     1      47.771   2.518   5.451  0.00  0.00    +0.000 C 
ATOM     15  O   UNL     1      46.392   2.185   5.763  0.00  0.00    +0.000 OA
ENDBRANCH  10  12
ENDBRANCH   8  10
ENDBRANCH   1   4
BRANCH   1  16
ATOM     16  C   UNL     1      44.283   3.949  12.900  0.00  0.00    +0.000 C 
BRANCH  16  17
ATOM     17  N   UNL     1      44.322   5.387  13.243  0.00  0.00    +0.000 N 
ATOM     18  H   UNL     1      43.466   5.896  13.025  0.00  0.00    +0.000 HD
BRANCH  17  22
ATOM     19  C   UNL     1      47.894   7.474  12.381  0.00  0.00    +0.000 A 
ATOM     20  C   UNL     1      46.665   8.115  12.234  0.00  0.00    +0.000 A 
ATOM     21  C   UNL     1      45.478   7.437  12.536  0.00  0.00    +0.000 A 
ATOM     22  C   UNL     1      45.486   6.122  13.015  0.00  0.00    +0.000 A 
ATOM     23  C   UNL     1      46.730   5.483  13.135  0.00  0.00    +0.000 A 
ATOM     24  C   UNL     1      47.924   6.148  12.818  0.00  0.00    +0.000 A 
BRANCH  19  26
ATOM     25  N   UNL     1      49.386   9.375  12.637  0.00  0.00    +0.000 N 
ATOM     26  C   UNL     1      49.167   8.161  12.043  0.00  0.00    +0.000 C 
ATOM     27  O   UNL     1      49.995   7.661  11.297  0.00  0.00    +0.000 OA
ATOM     28  H   UNL     1      50.292   9.801  12.473  0.00  0.00    +0.000 HD
ATOM     29  H   UNL     1      48.850   9.701  13.430  0.00  0.00    +0.000 HD
ENDBRANCH  19  26
ENDBRANCH  17  22
ENDBRANCH  16  17
ENDBRANCH   1  16
TORSDOF 7
ENDMDL
MODEL 8
REMARK VINA RESULT:    -6.504      3.029      4.778
REMARK INTER + INTRA:         -10.079
REMARK INTER:                  -8.990
REMARK INTRA:                  -1.089
REMARK UNBOUND:                -0.914
REMARK  Name = 
REMARK  7 active torsions:
REMARK  status: ('A' for Active; 'I' for Inactive)
REMARK    1  A    between atoms: C_2  and  C_4
REMARK    2  A    between atoms: C_7  and  N_8
REMARK    3  A    between atoms: N_8  and  C_9
REMARK    4  A    between atoms: C_9  and  C_10
REMARK    5  A    between atoms: C_10  and  C_13
REMARK    6  A    between atoms: C_17  and  N_18
REMARK    7  A    between atoms: N_18  and  C_19
REMARK                            x       y       z     vdW  Elec       q    Type
REMARK                         _______ _______ _______ _____ _____    ______ ____
ROOT
ATOM      1  C   UNL     1      48.923   7.271  13.819  0.00  0.00    +0.000 C 
ATOM      2  F   UNL     1      49.046   6.256  12.914  0.00  0.00    +0.000 F 
ATOM      3  F   UNL     1      50.106   7.957  13.754  0.00  0.00    +0.000 F 
ENDROOT
BRANCH   1   4
ATOM      4  C   UNL     1      48.641   6.749  15.217  0.00  0.00    +0.000 A 
ATOM      5  C   UNL     1      48.843   7.559  16.343  0.00  0.00    +0.000 A 
ATOM      6  C   UNL     1      48.621   7.051  17.622  0.00  0.00    +0.000 A 
ATOM      7  C   UNL     1      48.196   5.731  17.791  0.00  0.00    +0.000 A 
ATOM      8  C   UNL     1      47.953   4.910  16.686  0.00  0.00    +0.000 A 
ATOM      9  C   UNL     1      48.203   5.427  15.407  0.00  0.00    +0.000 A 
BRANCH   8  10
ATOM     10  N   UNL     1      47.598   3.556  16.801  0.00  0.00    +0.000 N 
ATOM     11  H   UNL     1      46.641   3.404  17.101  0.00  0.00    +0.000 HD
BRANCH  10  12
ATOM     12  C   UNL     1      48.440   2.460  17.118  0.00  0.00    +0.000 C 
ATOM     13  C   UNL     1      49.730   2.917  17.814  0.00  0.00    +0.000 C 
ATOM     14  C   UNL     1      50.411   1.993  16.808  0.00  0.00    +0.000 C 
ATOM     15  O   UNL     1      49.209   1.961  15.993  0.00  0.00    +0.000 OA
ENDBRANCH  10  12
ENDBRANCH   8  10
ENDBRANCH   1   4
BRANCH   1  16
ATOM     16  C   UNL     1      47.790   8.224  13.362  0.00  0.00    +0.000 C 
BRANCH  16  17
ATOM     17  N   UNL     1      46.426   7.716  13.618  0.00  0.00    +0.000 N 
ATOM     18  H   UNL     1      46.223   7.528  14.599  0.00  0.00    +0.000 HD
BRANCH  17  22
ATOM     19  C   UNL     1      44.901   4.854  10.908  0.00  0.00    +0.000 A 
ATOM     20  C   UNL     1      44.598   4.753  12.265  0.00  0.00    +0.000 A 
ATOM     21  C   UNL     1      45.083   5.707  13.166  0.00  0.00    +0.000 A 
ATOM     22  C   UNL     1      45.853   6.795  12.738  0.00  0.00    +0.000 A 
ATOM     23  C   UNL     1      46.169   6.869  11.373  0.00  0.00    +0.000 A 
ATOM     24  C   UNL     1      45.703   5.908  10.464  0.00  0.00    +0.000 A 
BRANCH  19  26
ATOM     25  N   UNL     1      44.054   4.303   8.698  0.00  0.00    +0.000 N 
ATOM     26  C   UNL     1      44.421   3.840   9.933  0.00  0.00    +0.000 C 
ATOM     27  O   UNL     1      44.381   2.650  10.203  0.00  0.00    +0.000 OA
ATOM     28  H   UNL     1      43.809   3.602   8.007  0.00  0.00    +0.000 HD
ATOM     29  H   UNL     1      44.298   5.226   8.364  0.00  0.00    +0.000 HD
ENDBRANCH  19  26
ENDBRANCH  17  22
ENDBRANCH  16  17
ENDBRANCH   1  16
TORSDOF 7
ENDMDL
MODEL 9
REMARK VINA RESULT:    -6.426      2.696      8.189
REMARK INTER + INTRA:          -9.969
REMARK INTER:                  -9.267
REMARK INTRA:                  -0.703
REMARK UNBOUND:                -0.914
REMARK  Name = 
REMARK  7 active torsions:
REMARK  status: ('A' for Active; 'I' for Inactive)
REMARK    1  A    between atoms: C_2  and  C_4
REMARK    2  A    between atoms: C_7  and  N_8
REMARK    3  A    between atoms: N_8  and  C_9
REMARK    4  A    between atoms: C_9  and  C_10
REMARK    5  A    between atoms: C_10  and  C_13
REMARK    6  A    between atoms: C_17  and  N_18
REMARK    7  A    between atoms: N_18  and  C_19
REMARK                            x       y       z     vdW  Elec       q    Type
REMARK                         _______ _______ _______ _____ _____    ______ ____
ROOT
ATOM      1  C   UNL     1      46.762   4.672  13.498  0.00  0.00    +0.000 C 
ATOM      2  F   UNL     1      47.688   5.619  13.163  0.00  0.00    +0.000 F 
ATOM      3  F   UNL     1      47.389   3.471  13.305  0.00  0.00    +0.000 F 
ENDROOT
BRANCH   1   4
ATOM      4  C   UNL     1      45.499   4.799  12.664  0.00  0.00    +0.000 A 
ATOM      5  C   UNL     1      44.246   4.955  13.273  0.00  0.00    +0.000 A 
ATOM      6  C   UNL     1      43.092   5.026  12.495  0.00  0.00    +0.000 A 
ATOM      7  C   UNL     1      43.175   4.942  11.103  0.00  0.00    +0.000 A 
ATOM      8  C   UNL     1      44.414   4.819  10.466  0.00  0.00    +0.000 A 
ATOM      9  C   UNL     1      45.564   4.726  11.262  0.00  0.00    +0.000 A 
BRANCH   8  10
ATOM     10  N   UNL     1      44.548   4.655   9.077  0.00  0.00    +0.000 N 
ATOM     11  H   UNL     1      44.117   5.393   8.530  0.00  0.00    +0.000 HD
BRANCH  10  12
ATOM     12  C   UNL     1      44.653   3.441   8.351  0.00  0.00    +0.000 C 
ATOM     13  C   UNL     1      45.047   2.268   9.259  0.00  0.00    +0.000 C 
ATOM     14  C   UNL     1      46.065   1.969   8.162  0.00  0.00    +0.000 C 
ATOM     15  O   UNL     1      45.894   3.302   7.611  0.00  0.00    +0.000 OA
ENDBRANCH  10  12
ENDBRANCH   8  10
ENDBRANCH   1   4
BRANCH   1  16
ATOM     16  C   UNL     1      46.426   4.801  15.006  0.00  0.00    +0.000 C 
BRANCH  16  17
ATOM     17  N   UNL     1      46.881   3.662  15.830  0.00  0.00    +0.000 N 
ATOM     18  H   UNL     1      46.137   3.182  16.335  0.00  0.00    +0.000 HD
BRANCH  17  22
ATOM     19  C   UNL     1      50.601   3.859  17.827  0.00  0.00    +0.000 A 
ATOM     20  C   UNL     1      49.944   5.035  17.470  0.00  0.00    +0.000 A 
ATOM     21  C   UNL     1      48.703   4.979  16.827  0.00  0.00    +0.000 A 
ATOM     22  C   UNL     1      48.075   3.759  16.548  0.00  0.00    +0.000 A 
ATOM     23  C   UNL     1      48.761   2.584  16.890  0.00  0.00    +0.000 A 
ATOM     24  C   UNL     1      50.014   2.629  17.520  0.00  0.00    +0.000 A 
BRANCH  19  26
ATOM     25  N   UNL     1      53.013   3.592  17.702  0.00  0.00    +0.000 N 
ATOM     26  C   UNL     1      51.932   3.888  18.487  0.00  0.00    +0.000 C 
ATOM     27  O   UNL     1      52.064   4.187  19.664  0.00  0.00    +0.000 OA
ATOM     28  H   UNL     1      53.926   3.696  18.133  0.00  0.00    +0.000 HD
ATOM     29  H   UNL     1      52.969   3.579  16.692  0.00  0.00    +0.000 HD
ENDBRANCH  19  26
ENDBRANCH  17  22
ENDBRANCH  16  17
ENDBRANCH   1  16
TORSDOF 7
ENDMDL
