MODEL 1
REMARK VINA RESULT:    -8.817      0.000      0.000
REMARK INTER + INTRA:         -12.223
REMARK INTER:                 -11.394
REMARK INTRA:                  -0.829
REMARK UNBOUND:                -0.829
REMARK  Name = 
REMARK  5 active torsions:
REMARK  status: ('A' for Active; 'I' for Inactive)
REMARK    1  A    between atoms: C_2  and  C_4
REMARK    2  A    between atoms: N_8  and  C_9
REMARK    3  A    between atoms: C_9  and  C_10
REMARK    4  A    between atoms: C_10  and  C_11
REMARK    5  A    between atoms: C_15  and  C_16
REMARK                            x       y       z     vdW  Elec       q    Type
REMARK                         _______ _______ _______ _____ _____    ______ ____
ROOT
ATOM      1  C   UNL     1      43.334   4.505  11.185  0.00  0.00    +0.000 C 
ENDROOT
BRANCH   1   6
ATOM      2  C   UNL     1      46.470   2.535   7.718  0.00  0.00    +0.000 A 
ATOM      3  C   UNL     1      45.634   1.880   8.614  0.00  0.00    +0.000 A 
ATOM      4  C   UNL     1      44.705   2.622   9.346  0.00  0.00    +0.000 A 
ATOM      5  C   UNL     1      44.644   4.003   9.182  0.00  0.00    +0.000 A 
ATOM      6  N   UNL     1      43.700   4.802   9.809  0.00  0.00    +0.000 N 
ATOM      7  N   UNL     1      45.470   4.652   8.338  0.00  0.00    +0.000 NA
ATOM      8  C   UNL     1      46.366   3.915   7.632  0.00  0.00    +0.000 A 
ATOM      9  H   UNL     1      43.976   5.765   9.617  0.00  0.00    +0.000 HD
BRANCH   2  11
ATOM     10  N   UNL     1      48.539   2.541   6.447  0.00  0.00    +0.000 N 
ATOM     11  C   UNL     1      47.451   1.829   6.870  0.00  0.00    +0.000 C 
ATOM     12  O   UNL     1      47.319   0.646   6.585  0.00  0.00    +0.000 OA
ATOM     13  H   UNL     1      49.258   2.019   5.962  0.00  0.00    +0.000 HD
ATOM     14  H   UNL     1      48.810   3.423   6.863  0.00  0.00    +0.000 HD
ENDBRANCH   2  11
ENDBRANCH   1   6
BRANCH   1  15
ATOM     15  C   UNL     1      43.589   5.730  12.071  0.00  0.00    +0.000 C 
BRANCH  15  16
ATOM     16  C   UNL     1      45.018   5.793  12.539  0.00  0.00    +0.000 A 
ATOM     17  C   UNL     1      45.544   4.811  13.368  0.00  0.00    +0.000 A 
ATOM     18  N   UNL     1      46.818   4.804  13.805  0.00  0.00    +0.000 NA
ATOM     19  C   UNL     1      47.610   5.827  13.398  0.00  0.00    +0.000 A 
ATOM     20  C   UNL     1      47.215   6.865  12.551  0.00  0.00    +0.000 A 
ATOM     21  C   UNL     1      45.877   6.819  12.124  0.00  0.00    +0.000 A 
BRANCH  20  22
ATOM     22  C   UNL     1      48.139   7.936  12.124  0.00  0.00    +0.000 A 
ATOM     23  C   UNL     1      47.734   9.274  12.007  0.00  0.00    +0.000 A 
ATOM     24  C   UNL     1      48.627  10.258  11.582  0.00  0.00    +0.000 A 
ATOM     25  C   UNL     1      49.925   9.883  11.289  0.00  0.00    +0.000 A 
ATOM     26  N   UNL     1      50.372   8.617  11.389  0.00  0.00    +0.000 NA
ATOM     27  C   UNL     1      49.475   7.684  11.796  0.00  0.00    +0.000 A 
ENDBRANCH  20  22
ENDBRANCH  15  16
ENDBRANCH   1  15
TORSDOF 5
ENDMDL
MODEL 2
REMARK VINA RESULT:    -8.018      2.234      3.823
REMARK INTER + INTRA:         -11.191
REMARK INTER:                 -10.454
REMARK INTRA:                  -0.737
REMARK UNBOUND:                -0.829
REMARK  Name = 
REMARK  5 active torsions:
REMARK  status: ('A' for Active; 'I' for Inactive)
REMARK    1  A    between atoms: C_2  and  C_4
REMARK    2  A    between atoms: N_8  and  C_9
REMARK    3  A    between atoms: C_9  and  C_10
REMARK    4  A    between atoms: C_10  and  C_11
REMARK    5  A    between atoms: C_15  and  C_16
REMARK                            x       y       z     vdW  Elec       q    Type
REMARK                         _______ _______ _______ _____ _____    ______ ____
ROOT
ATOM      1  C   UNL     1      43.250   4.145  10.945  0.00  0.00    +0.000 C 
ENDROOT
BRANCH   1   6
ATOM      2  C   UNL     1      46.557   2.635   7.406  0.00  0.00    +0.000 A 
ATOM      3  C   UNL     1      46.215   3.926   7.790  0.00  0.00    +0.000 A 
ATOM      4  C   UNL     1      45.426   4.111   8.926  0.00  0.00    +0.000 A 
ATOM      5  C   UNL     1      44.980   3.006   9.644  0.00  0.00    +0.000 A 
ATOM      6  N   UNL     1      44.261   3.105  10.826  0.00  0.00    +0.000 N 
ATOM      7  N   UNL     1      45.280   1.748   9.263  0.00  0.00    +0.000 NA
ATOM      8  C   UNL     1      46.051   1.585   8.157  0.00  0.00    +0.000 A 
ATOM      9  H   UNL     1      43.957   2.158  11.049  0.00  0.00    +0.000 HD
BRANCH   2  11
ATOM     10  N   UNL     1      47.239   3.102   5.123  0.00  0.00    +0.000 N 
ATOM     11  C   UNL     1      47.422   2.343   6.246  0.00  0.00    +0.000 C 
ATOM     12  O   UNL     1      48.292   1.484   6.294  0.00  0.00    +0.000 OA
ATOM     13  H   UNL     1      47.910   2.970   4.376  0.00  0.00    +0.000 HD
ATOM     14  H   UNL     1      46.721   3.972   5.130  0.00  0.00    +0.000 HD
ENDBRANCH   2  11
ENDBRANCH   1   6
BRANCH   1  15
ATOM     15  C   UNL     1      43.343   4.809  12.324  0.00  0.00    +0.000 C 
BRANCH  15  16
ATOM     16  C   UNL     1      44.742   5.272  12.627  0.00  0.00    +0.000 A 
ATOM     17  C   UNL     1      45.369   6.224  11.835  0.00  0.00    +0.000 A 
ATOM     18  N   UNL     1      46.611   6.690  12.067  0.00  0.00    +0.000 NA
ATOM     19  C   UNL     1      47.264   6.182  13.141  0.00  0.00    +0.000 A 
ATOM     20  C   UNL     1      46.744   5.239  14.030  0.00  0.00    +0.000 A 
ATOM     21  C   UNL     1      45.444   4.792  13.741  0.00  0.00    +0.000 A 
BRANCH  20  22
ATOM     22  C   UNL     1      47.501   4.747  15.198  0.00  0.00    +0.000 A 
ATOM     23  C   UNL     1      47.489   3.399  15.589  0.00  0.00    +0.000 A 
ATOM     24  C   UNL     1      48.200   2.972  16.710  0.00  0.00    +0.000 A 
ATOM     25  C   UNL     1      48.927   3.908  17.422  0.00  0.00    +0.000 A 
ATOM     26  N   UNL     1      48.981   5.212  17.092  0.00  0.00    +0.000 NA
ATOM     27  C   UNL     1      48.271   5.596  16.001  0.00  0.00    +0.000 A 
ENDBRANCH  20  22
ENDBRANCH  15  16
ENDBRANCH   1  15
TORSDOF 5
ENDMDL
MODEL 3
REMARK VINA RESULT:    -7.928      2.040      2.697
REMARK INTER + INTRA:         -11.074
REMARK INTER:                 -10.509
REMARK INTRA:                  -0.565
REMARK UNBOUND:                -0.829
REMARK  Name = 
REMARK  5 active torsions:
REMARK  status: ('A' for Active; 'I' for Inactive)
REMARK    1  A    between atoms: C_2  and  C_4
REMARK    2  A    between atoms: N_8  and  C_9
REMARK    3  A    between atoms: C_9  and  C_10
REMARK    4  A    between atoms: C_10  and  C_11
REMARK    5  A    between atoms: C_15  and  C_16
REMARK                            x       y       z     vdW  Elec       q    Type
REMARK                         _______ _______ _______ _____ _____    ______ ____
ROOT
ATOM      1  C   UNL     1      43.431   3.216  11.783  0.00  0.00    +0.000 C 
ENDROOT
BRANCH   1   6
ATOM      2  C   UNL     1      46.362   2.713   7.673  0.00  0.00    +0.000 A 
ATOM      3  C   UNL     1      45.731   1.727   8.424  0.00  0.00    +0.000 A 
ATOM      4  C   UNL     1      44.807   2.104   9.400  0.00  0.00    +0.000 A 
ATOM      5  C   UNL     1      44.547   3.453   9.620  0.00  0.00    +0.000 A 
ATOM      6  N   UNL     1      43.588   3.908  10.512  0.00  0.00    +0.000 N 
ATOM      7  N   UNL     1      45.175   4.417   8.919  0.00  0.00    +0.000 NA
ATOM      8  C   UNL     1      46.069   4.035   7.970  0.00  0.00    +0.000 A 
ATOM      9  H   UNL     1      43.712   4.918  10.565  0.00  0.00    +0.000 HD
BRANCH   2  11
ATOM     10  N   UNL     1      47.258   3.186   5.466  0.00  0.00    +0.000 N 
ATOM     11  C   UNL     1      47.319   2.409   6.590  0.00  0.00    +0.000 C 
ATOM     12  O   UNL     1      48.157   1.524   6.704  0.00  0.00    +0.000 OA
ATOM     13  H   UNL     1      47.989   3.042   4.781  0.00  0.00    +0.000 HD
ATOM     14  H   UNL     1      46.767   4.070   5.439  0.00  0.00    +0.000 HD
ENDBRANCH   2  11
ENDBRANCH   1   6
BRANCH   1  15
ATOM     15  C   UNL     1      43.560   4.213  12.941  0.00  0.00    +0.000 C 
BRANCH  15  16
ATOM     16  C   UNL     1      44.627   5.240  12.677  0.00  0.00    +0.000 A 
ATOM     17  C   UNL     1      45.973   4.909  12.751  0.00  0.00    +0.000 A 
ATOM     18  N   UNL     1      46.973   5.779  12.510  0.00  0.00    +0.000 NA
ATOM     19  C   UNL     1      46.615   7.044  12.177  0.00  0.00    +0.000 A 
ATOM     20  C   UNL     1      45.302   7.503  12.046  0.00  0.00    +0.000 A 
ATOM     21  C   UNL     1      44.302   6.551  12.307  0.00  0.00    +0.000 A 
BRANCH  20  22
ATOM     22  C   UNL     1      44.982   8.890  11.653  0.00  0.00    +0.000 A 
ATOM     23  C   UNL     1      45.773   9.982  12.041  0.00  0.00    +0.000 A 
ATOM     24  C   UNL     1      45.431  11.283  11.669  0.00  0.00    +0.000 A 
ATOM     25  C   UNL     1      44.299  11.468  10.899  0.00  0.00    +0.000 A 
ATOM     26  N   UNL     1      43.505  10.459  10.491  0.00  0.00    +0.000 NA
ATOM     27  C   UNL     1      43.862   9.208  10.878  0.00  0.00    +0.000 A 
ENDBRANCH  20  22
ENDBRANCH  15  16
ENDBRANCH   1  15
TORSDOF 5
ENDMDL
MODEL 4
REMARK VINA RESULT:    -7.887      2.008      2.492
REMARK INTER + INTRA:         -11.021
REMARK INTER:                 -10.170
REMARK INTRA:                  -0.850
REMARK UNBOUND:                -0.829
REMARK  Name = 
REMARK  5 active torsions:
REMARK  status: ('A' for Active; 'I' for Inactive)
REMARK    1  A    between atoms: C_2  and  C_4
REMARK    2  A    between atoms: N_8  and  C_9
REMARK    3  A    between atoms: C_9  and  C_10
REMARK    4  A    between atoms: C_10  and  C_11
REMARK    5  A    between atoms: C_15  and  C_16
REMARK                            x       y       z     vdW  Elec       q    Type
REMARK                         _______ _______ _______ _____ _____    ______ ____
ROOT
ATOM      1  C   UNL     1      43.287   3.281  11.240  0.00  0.00    +0.000 C 
ENDROOT
BRANCH   1   6
ATOM      2  C   UNL     1      46.501   2.812   7.344  0.00  0.00    +0.000 A 
ATOM      3  C   UNL     1      45.952   3.966   7.891  0.00  0.00    +0.000 A 
ATOM      4  C   UNL     1      45.244   3.879   9.091  0.00  0.00    +0.000 A 
ATOM      5  C   UNL     1      45.083   2.642   9.708  0.00  0.00    +0.000 A 
ATOM      6  N   UNL     1      44.464   2.482  10.939  0.00  0.00    +0.000 N 
ATOM      7  N   UNL     1      45.585   1.513   9.171  0.00  0.00    +0.000 NA
ATOM      8  C   UNL     1      46.274   1.615   8.005  0.00  0.00    +0.000 A 
ATOM      9  H   UNL     1      44.368   1.476  11.075  0.00  0.00    +0.000 HD
BRANCH   2  11
ATOM     10  N   UNL     1      48.629   2.499   6.216  0.00  0.00    +0.000 N 
ATOM     11  C   UNL     1      47.302   2.813   6.104  0.00  0.00    +0.000 C 
ATOM     12  O   UNL     1      46.798   3.049   5.014  0.00  0.00    +0.000 OA
ATOM     13  H   UNL     1      49.141   2.394   5.349  0.00  0.00    +0.000 HD
ATOM     14  H   UNL     1      49.018   2.057   7.039  0.00  0.00    +0.000 HD
ENDBRANCH   2  11
ENDBRANCH   1   6
BRANCH   1  15
ATOM     15  C   UNL     1      43.494   4.044  12.554  0.00  0.00    +0.000 C 
BRANCH  15  16
ATOM     16  C   UNL     1      44.166   5.371  12.329  0.00  0.00    +0.000 A 
ATOM     17  C   UNL     1      43.616   6.317  11.475  0.00  0.00    +0.000 A 
ATOM     18  N   UNL     1      44.161   7.527  11.246  0.00  0.00    +0.000 NA
ATOM     19  C   UNL     1      45.314   7.812  11.901  0.00  0.00    +0.000 A 
ATOM     20  C   UNL     1      45.961   6.962  12.802  0.00  0.00    +0.000 A 
ATOM     21  C   UNL     1      45.345   5.715  13.003  0.00  0.00    +0.000 A 
BRANCH  20  22
ATOM     22  C   UNL     1      47.203   7.346  13.502  0.00  0.00    +0.000 A 
ATOM     23  C   UNL     1      47.472   8.670  13.882  0.00  0.00    +0.000 A 
ATOM     24  C   UNL     1      48.665   9.002  14.526  0.00  0.00    +0.000 A 
ATOM     25  C   UNL     1      49.571   7.992  14.790  0.00  0.00    +0.000 A 
ATOM     26  N   UNL     1      49.364   6.704  14.456  0.00  0.00    +0.000 NA
ATOM     27  C   UNL     1      48.198   6.417  13.823  0.00  0.00    +0.000 A 
ENDBRANCH  20  22
ENDBRANCH  15  16
ENDBRANCH   1  15
TORSDOF 5
ENDMDL
MODEL 5
REMARK VINA RESULT:    -7.569      2.995      7.031
REMARK INTER + INTRA:         -10.610
REMARK INTER:                  -9.949
REMARK INTRA:                  -0.661
REMARK UNBOUND:                -0.829
REMARK  Name = 
REMARK  5 active torsions:
REMARK  status: ('A' for Active; 'I' for Inactive)
REMARK    1  A    between atoms: C_2  and  C_4
REMARK    2  A    between atoms: N_8  and  C_9
REMARK    3  A    between atoms: C_9  and  C_10
REMARK    4  A    between atoms: C_10  and  C_11
REMARK    5  A    between atoms: C_15  and  C_16
REMARK                            x       y       z     vdW  Elec       q    Type
REMARK                         _______ _______ _______ _____ _____    ______ ____
ROOT
ATOM      1  C   UNL     1      44.651   6.310  12.771  0.00  0.00    +0.000 C 
ENDROOT
BRANCH   1   6
ATOM      2  C   UNL     1      49.344   8.232  12.896  0.00  0.00    +0.000 A 
ATOM      3  C   UNL     1      48.827   7.240  12.071  0.00  0.00    +0.000 A 
ATOM      4  C   UNL     1      47.451   7.004  12.073  0.00  0.00    +0.000 A 
ATOM      5  C   UNL     1      46.624   7.748  12.909  0.00  0.00    +0.000 A 
ATOM      6  N   UNL     1      45.242   7.631  12.913  0.00  0.00    +0.000 N 
ATOM      7  N   UNL     1      47.119   8.691  13.735  0.00  0.00    +0.000 NA
ATOM      8  C   UNL     1      48.459   8.911  13.719  0.00  0.00    +0.000 A 
ATOM      9  H   UNL     1      44.917   8.185  13.705  0.00  0.00    +0.000 HD
BRANCH   2  11
ATOM     10  N   UNL     1      51.586   7.997  11.995  0.00  0.00    +0.000 N 
ATOM     11  C   UNL     1      50.778   8.582  12.929  0.00  0.00    +0.000 C 
ATOM     12  O   UNL     1      51.223   9.390  13.735  0.00  0.00    +0.000 OA
ATOM     13  H   UNL     1      52.542   8.329  11.956  0.00  0.00    +0.000 HD
ATOM     14  H   UNL     1      51.224   7.536  11.170  0.00  0.00    +0.000 HD
ENDBRANCH   2  11
ENDBRANCH   1   6
BRANCH   1  15
ATOM     15  C   UNL     1      44.020   6.165  11.382  0.00  0.00    +0.000 C 
BRANCH  15  16
ATOM     16  C   UNL     1      44.110   4.752  10.872  0.00  0.00    +0.000 A 
ATOM     17  C   UNL     1      43.351   3.736  11.438  0.00  0.00    +0.000 A 
ATOM     18  N   UNL     1      43.377   2.458  11.014  0.00  0.00    +0.000 NA
ATOM     19  C   UNL     1      44.200   2.174   9.975  0.00  0.00    +0.000 A 
ATOM     20  C   UNL     1      45.000   3.102   9.303  0.00  0.00    +0.000 A 
ATOM     21  C   UNL     1      44.930   4.420   9.786  0.00  0.00    +0.000 A 
BRANCH  20  22
ATOM     22  C   UNL     1      45.855   2.729   8.158  0.00  0.00    +0.000 A 
ATOM     23  C   UNL     1      46.162   3.629   7.126  0.00  0.00    +0.000 A 
ATOM     24  C   UNL     1      46.957   3.239   6.048  0.00  0.00    +0.000 A 
ATOM     25  C   UNL     1      47.446   1.946   6.028  0.00  0.00    +0.000 A 
ATOM     26  N   UNL     1      47.191   1.042   6.993  0.00  0.00    +0.000 NA
ATOM     27  C   UNL     1      46.407   1.452   8.021  0.00  0.00    +0.000 A 
ENDBRANCH  20  22
ENDBRANCH  15  16
ENDBRANCH   1  15
TORSDOF 5
ENDMDL
MODEL 6
REMARK VINA RESULT:    -7.543      3.819      7.828
REMARK INTER + INTRA:         -10.576
REMARK INTER:                 -10.085
REMARK INTRA:                  -0.491
REMARK UNBOUND:                -0.829
REMARK  Name = 
REMARK  5 active torsions:
REMARK  status: ('A' for Active; 'I' for Inactive)
REMARK    1  A    between atoms: C_2  and  C_4
REMARK    2  A    between atoms: N_8  and  C_9
REMARK    3  A    between atoms: C_9  and  C_10
REMARK    4  A    between atoms: C_10  and  C_11
REMARK    5  A    between atoms: C_15  and  C_16
REMARK                            x       y       z     vdW  Elec       q    Type
REMARK                         _______ _______ _______ _____ _____    ______ ____
ROOT
ATOM      1  C   UNL     1      46.491   5.844  12.817  0.00  0.00    +0.000 C 
ENDROOT
BRANCH   1   6
ATOM      2  C   UNL     1      48.724   4.298  17.102  0.00  0.00    +0.000 A 
ATOM      3  C   UNL     1      48.852   5.512  16.437  0.00  0.00    +0.000 A 
ATOM      4  C   UNL     1      47.990   5.802  15.379  0.00  0.00    +0.000 A 
ATOM      5  C   UNL     1      47.032   4.868  14.993  0.00  0.00    +0.000 A 
ATOM      6  N   UNL     1      46.088   5.110  14.007  0.00  0.00    +0.000 N 
ATOM      7  N   UNL     1      46.919   3.676  15.611  0.00  0.00    +0.000 NA
ATOM      8  C   UNL     1      47.763   3.411  16.642  0.00  0.00    +0.000 A 
ATOM      9  H   UNL     1      45.618   4.219  13.846  0.00  0.00    +0.000 HD
BRANCH   2  11
ATOM     10  N   UNL     1      50.548   3.003  18.046  0.00  0.00    +0.000 N 
ATOM     11  C   UNL     1      49.559   3.923  18.260  0.00  0.00    +0.000 C 
ATOM     12  O   UNL     1      49.402   4.439  19.359  0.00  0.00    +0.000 OA
ATOM     13  H   UNL     1      51.184   2.838  18.816  0.00  0.00    +0.000 HD
ATOM     14  H   UNL     1      50.870   2.753  17.120  0.00  0.00    +0.000 HD
ENDBRANCH   2  11
ENDBRANCH   1   6
BRANCH   1  15
ATOM     15  C   UNL     1      45.281   6.061  11.901  0.00  0.00    +0.000 C 
BRANCH  15  16
ATOM     16  C   UNL     1      44.901   4.802  11.171  0.00  0.00    +0.000 A 
ATOM     17  C   UNL     1      43.814   4.039  11.576  0.00  0.00    +0.000 A 
ATOM     18  N   UNL     1      43.416   2.913  10.952  0.00  0.00    +0.000 NA
ATOM     19  C   UNL     1      44.136   2.526   9.870  0.00  0.00    +0.000 A 
ATOM     20  C   UNL     1      45.235   3.210   9.346  0.00  0.00    +0.000 A 
ATOM     21  C   UNL     1      45.602   4.378  10.034  0.00  0.00    +0.000 A 
BRANCH  20  22
ATOM     22  C   UNL     1      45.959   2.746   8.145  0.00  0.00    +0.000 A 
ATOM     23  C   UNL     1      46.200   3.581   7.044  0.00  0.00    +0.000 A 
ATOM     24  C   UNL     1      46.870   3.105   5.916  0.00  0.00    +0.000 A 
ATOM     25  C   UNL     1      47.300   1.791   5.916  0.00  0.00    +0.000 A 
ATOM     26  N   UNL     1      47.104   0.946   6.945  0.00  0.00    +0.000 NA
ATOM     27  C   UNL     1      46.441   1.439   8.022  0.00  0.00    +0.000 A 
ENDBRANCH  20  22
ENDBRANCH  15  16
ENDBRANCH   1  15
TORSDOF 5
ENDMDL
MODEL 7
REMARK VINA RESULT:    -6.997      2.445      6.689
REMARK INTER + INTRA:          -9.871
REMARK INTER:                  -9.022
REMARK INTRA:                  -0.849
REMARK UNBOUND:                -0.829
REMARK  Name = 
REMARK  5 active torsions:
REMARK  status: ('A' for Active; 'I' for Inactive)
REMARK    1  A    between atoms: C_2  and  C_4
REMARK    2  A    between atoms: N_8  and  C_9
REMARK    3  A    between atoms: C_9  and  C_10
REMARK    4  A    between atoms: C_10  and  C_11
REMARK    5  A    between atoms: C_15  and  C_16
REMARK                            x       y       z     vdW  Elec       q    Type
REMARK                         _______ _______ _______ _____ _____    ______ ____
ROOT
ATOM      1  C   UNL     1      43.666   3.965  13.468  0.00  0.00    +0.000 C 
ENDROOT
BRANCH   1   6
ATOM      2  C   UNL     1      47.375   7.268  12.429  0.00  0.00    +0.000 A 
ATOM      3  C   UNL     1      45.999   7.467  12.424  0.00  0.00    +0.000 A 
ATOM      4  C   UNL     1      45.166   6.471  12.937  0.00  0.00    +0.000 A 
ATOM      5  C   UNL     1      45.720   5.292  13.425  0.00  0.00    +0.000 A 
ATOM      6  N   UNL     1      44.971   4.289  14.023  0.00  0.00    +0.000 N 
ATOM      7  N   UNL     1      47.050   5.076  13.408  0.00  0.00    +0.000 NA
ATOM      8  C   UNL     1      47.848   6.056  12.908  0.00  0.00    +0.000 A 
ATOM      9  H   UNL     1      45.609   3.505  14.155  0.00  0.00    +0.000 HD
BRANCH   2  11
ATOM     10  N   UNL     1      49.533   7.829  11.468  0.00  0.00    +0.000 N 
ATOM     11  C   UNL     1      48.335   8.281  11.949  0.00  0.00    +0.000 C 
ATOM     12  O   UNL     1      48.061   9.474  11.946  0.00  0.00    +0.000 OA
ATOM     13  H   UNL     1      50.135   8.520  11.040  0.00  0.00    +0.000 HD
ATOM     14  H   UNL     1      49.691   6.861  11.220  0.00  0.00    +0.000 HD
ENDBRANCH   2  11
ENDBRANCH   1   6
BRANCH   1  15
ATOM     15  C   UNL     1      43.801   2.835  12.441  0.00  0.00    +0.000 C 
BRANCH  15  16
ATOM     16  C   UNL     1      44.015   3.369  11.050  0.00  0.00    +0.000 A 
ATOM     17  C   UNL     1      43.380   4.526  10.621  0.00  0.00    +0.000 A 
ATOM     18  N   UNL     1      43.545   5.060   9.395  0.00  0.00    +0.000 NA
ATOM     19  C   UNL     1      44.386   4.410   8.553  0.00  0.00    +0.000 A 
ATOM     20  C   UNL     1      45.102   3.252   8.863  0.00  0.00    +0.000 A 
ATOM     21  C   UNL     1      44.893   2.742  10.156  0.00  0.00    +0.000 A 
BRANCH  20  22
ATOM     22  C   UNL     1      46.024   2.609   7.905  0.00  0.00    +0.000 A 
ATOM     23  C   UNL     1      46.552   3.291   6.798  0.00  0.00    +0.000 A 
ATOM     24  C   UNL     1      47.405   2.647   5.901  0.00  0.00    +0.000 A 
ATOM     25  C   UNL     1      47.727   1.323   6.136  0.00  0.00    +0.000 A 
ATOM     26  N   UNL     1      47.256   0.621   7.185  0.00  0.00    +0.000 NA
ATOM     27  C   UNL     1      46.422   1.274   8.032  0.00  0.00    +0.000 A 
ENDBRANCH  20  22
ENDBRANCH  15  16
ENDBRANCH   1  15
TORSDOF 5
ENDMDL
MODEL 8
REMARK VINA RESULT:    -6.978      2.890      6.823
REMARK INTER + INTRA:          -9.846
REMARK INTER:                  -9.099
REMARK INTRA:                  -0.747
REMARK UNBOUND:                -0.829
REMARK  Name = 
REMARK  5 active torsions:
REMARK  status: ('A' for Active; 'I' for Inactive)
REMARK    1  A    between atoms: C_2  and  C_4
REMARK    2  A    between atoms: N_8  and  C_9
REMARK    3  A    between atoms: C_9  and  C_10
REMARK    4  A    between atoms: C_10  and  C_11
REMARK    5  A    between atoms: C_15  and  C_16
REMARK                            x       y       z     vdW  Elec       q    Type
REMARK                         _______ _______ _______ _____ _____    ______ ____
ROOT
ATOM      1  C   UNL     1      44.955   6.858  12.544  0.00  0.00    +0.000 C 
ENDROOT
BRANCH   1   6
ATOM      2  C   UNL     1      49.880   8.073  12.481  0.00  0.00    +0.000 A 
ATOM      3  C   UNL     1      49.021   7.844  11.412  0.00  0.00    +0.000 A 
ATOM      4  C   UNL     1      47.652   7.718  11.654  0.00  0.00    +0.000 A 
ATOM      5  C   UNL     1      47.172   7.804  12.957  0.00  0.00    +0.000 A 
ATOM      6  N   UNL     1      45.822   7.770  13.274  0.00  0.00    +0.000 N 
ATOM      7  N   UNL     1      47.998   7.995  14.004  0.00  0.00    +0.000 NA
ATOM      8  C   UNL     1      49.327   8.119  13.751  0.00  0.00    +0.000 A 
ATOM      9  H   UNL     1      45.775   7.714  14.291  0.00  0.00    +0.000 HD
BRANCH   2  11
ATOM     10  N   UNL     1      51.976   7.444  11.429  0.00  0.00    +0.000 N 
ATOM     11  C   UNL     1      51.335   8.263  12.317  0.00  0.00    +0.000 C 
ATOM     12  O   UNL     1      51.940   9.139  12.921  0.00  0.00    +0.000 OA
ATOM     13  H   UNL     1      52.948   7.657  11.242  0.00  0.00    +0.000 HD
ATOM     14  H   UNL     1      51.482   6.896  10.736  0.00  0.00    +0.000 HD
ENDBRANCH   2  11
ENDBRANCH   1   6
BRANCH   1  15
ATOM     15  C   UNL     1      44.966   5.478  13.211  0.00  0.00    +0.000 C 
BRANCH  15  16
ATOM     16  C   UNL     1      44.595   4.387  12.243  0.00  0.00    +0.000 A 
ATOM     17  C   UNL     1      43.541   3.524  12.506  0.00  0.00    +0.000 A 
ATOM     18  N   UNL     1      43.152   2.541  11.671  0.00  0.00    +0.000 NA
ATOM     19  C   UNL     1      43.847   2.410  10.515  0.00  0.00    +0.000 A 
ATOM     20  C   UNL     1      44.912   3.221  10.118  0.00  0.00    +0.000 A 
ATOM     21  C   UNL     1      45.272   4.231  11.026  0.00  0.00    +0.000 A 
BRANCH  20  22
ATOM     22  C   UNL     1      45.611   3.040   8.829  0.00  0.00    +0.000 A 
ATOM     23  C   UNL     1      46.083   1.790   8.400  0.00  0.00    +0.000 A 
ATOM     24  C   UNL     1      46.756   1.657   7.186  0.00  0.00    +0.000 A 
ATOM     25  C   UNL     1      46.937   2.786   6.409  0.00  0.00    +0.000 A 
ATOM     26  N   UNL     1      46.501   4.009   6.766  0.00  0.00    +0.000 NA
ATOM     27  C   UNL     1      45.858   4.105   7.957  0.00  0.00    +0.000 A 
ENDBRANCH  20  22
ENDBRANCH  15  16
ENDBRANCH   1  15
TORSDOF 5
ENDMDL
MODEL 9
REMARK VINA RESULT:    -6.794      3.584      7.636
REMARK INTER + INTRA:          -9.609
REMARK INTER:                  -8.809
REMARK INTRA:                  -0.799
REMARK UNBOUND:                -0.829
REMARK  Name = 
REMARK  5 active torsions:
REMARK  status: ('A' for Active; 'I' for Inactive)
REMARK    1  A    between atoms: C_2  and  C_4
REMARK    2  A    between atoms: N_8  and  C_9
REMARK    3  A    between atoms: C_9  and  C_10
REMARK    4  A    between atoms: C_10  and  C_11
REMARK    5  A    between atoms: C_15  and  C_16
REMARK                            x       y       z     vdW  Elec       q    Type
REMARK                         _______ _______ _______ _____ _____    ______ ____
ROOT
ATOM      1  C   UNL     1      48.757   8.407  14.008  0.00  0.00    +0.000 C 
ENDROOT
BRANCH   1   6
ATOM      2  C   UNL     1      48.089   4.338  16.963  0.00  0.00    +0.000 A 
ATOM      3  C   UNL     1      47.383   4.721  15.828  0.00  0.00    +0.000 A 
ATOM      4  C   UNL     1      47.865   5.776  15.051  0.00  0.00    +0.000 A 
ATOM      5  C   UNL     1      49.028   6.438  15.433  0.00  0.00    +0.000 A 
ATOM      6  N   UNL     1      49.615   7.441  14.676  0.00  0.00    +0.000 N 
ATOM      7  N   UNL     1      49.704   6.095  16.547  0.00  0.00    +0.000 NA
ATOM      8  C   UNL     1      49.224   5.064  17.290  0.00  0.00    +0.000 A 
ATOM      9  H   UNL     1      50.360   7.828  15.255  0.00  0.00    +0.000 HD
BRANCH   2  11
ATOM     10  N   UNL     1      48.438   2.961  18.932  0.00  0.00    +0.000 N 
ATOM     11  C   UNL     1      47.682   3.207  17.819  0.00  0.00    +0.000 C 
ATOM     12  O   UNL     1      46.689   2.536  17.568  0.00  0.00    +0.000 OA
ATOM     13  H   UNL     1      48.085   2.258  19.569  0.00  0.00    +0.000 HD
ATOM     14  H   UNL     1      49.095   3.634  19.306  0.00  0.00    +0.000 HD
ENDBRANCH   2  11
ENDBRANCH   1   6
BRANCH   1  15
ATOM     15  C   UNL     1      48.663   8.078  12.514  0.00  0.00    +0.000 C 
BRANCH  15  16
ATOM     16  C   UNL     1      47.250   7.769  12.098  0.00  0.00    +0.000 A 
ATOM     17  C   UNL     1      46.230   8.691  12.288  0.00  0.00    +0.000 A 
ATOM     18  N   UNL     1      44.951   8.478  11.922  0.00  0.00    +0.000 NA
ATOM     19  C   UNL     1      44.672   7.286  11.337  0.00  0.00    +0.000 A 
ATOM     20  C   UNL     1      45.604   6.282  11.069  0.00  0.00    +0.000 A 
ATOM     21  C   UNL     1      46.922   6.560  11.470  0.00  0.00    +0.000 A 
BRANCH  20  22
ATOM     22  C   UNL     1      45.237   5.016  10.404  0.00  0.00    +0.000 A 
ATOM     23  C   UNL     1      45.497   4.778   9.045  0.00  0.00    +0.000 A 
ATOM     24  C   UNL     1      45.119   3.578   8.443  0.00  0.00    +0.000 A 
ATOM     25  C   UNL     1      44.491   2.623   9.220  0.00  0.00    +0.000 A 
ATOM     26  N   UNL     1      44.222   2.792  10.529  0.00  0.00    +0.000 NA
ATOM     27  C   UNL     1      44.595   3.974  11.081  0.00  0.00    +0.000 A 
ENDBRANCH  20  22
ENDBRANCH  15  16
ENDBRANCH   1  15
TORSDOF 5
ENDMDL
