MODEL 1
REMARK VINA RESULT:    -8.459      0.000      0.000
REMARK INTER + INTRA:          -9.842
REMARK INTER:                  -9.943
REMARK INTRA:                   0.100
REMARK UNBOUND:                 0.100
REMARK  Name = 
REMARK  6 active torsions:
REMARK  status: ('A' for Active; 'I' for Inactive)
REMARK    1  A    between atoms: C_1  and  N_2
REMARK    2  A    between atoms: C_3  and  C_5
REMARK    3  A    between atoms: N_9  and  C_10
REMARK    4  A    between atoms: C_10  and  C_11
REMARK    5  A    between atoms: C_10  and  C_12
REMARK    6  A    between atoms: C_16  and  C_17
REMARK                            x       y       z     vdW  Elec       q    Type
REMARK                         _______ _______ _______ _____ _____    ______ ____
ROOT
ATOM      1  C   UNL     1      47.034   5.020  14.161  0.00  0.00    +0.000 A 
ATOM      2  C   UNL     1      46.061   5.747  13.479  0.00  0.00    +0.000 A 
ATOM      3  C   UNL     1      45.181   5.083  12.622  0.00  0.00    +0.000 A 
ATOM      4  C   UNL     1      45.292   3.709  12.452  0.00  0.00    +0.000 A 
ATOM      5  N   UNL     1      44.419   2.966  11.694  0.00  0.00    +0.000 N 
ATOM      6  N   UNL     1      46.235   2.998  13.098  0.00  0.00    +0.000 NA
ATOM      7  C   UNL     1      47.090   3.657  13.926  0.00  0.00    +0.000 A 
ATOM      8  H   UNL     1      44.725   1.998  11.713  0.00  0.00    +0.000 HD
ENDROOT
BRANCH   1  11
ATOM      9  C   UNL     1      48.663   6.022  17.426  0.00  0.00    +0.000 C 
ATOM     10  N   UNL     1      47.827   5.405  16.426  0.00  0.00    +0.000 N 
ATOM     11  C   UNL     1      48.014   5.652  15.080  0.00  0.00    +0.000 C 
ATOM     12  O   UNL     1      48.920   6.339  14.633  0.00  0.00    +0.000 OA
ATOM     13  H   UNL     1      47.170   4.700  16.727  0.00  0.00    +0.000 HD
ENDBRANCH   1  11
BRANCH   5  14
ATOM     14  C   UNL     1      43.863   3.408  10.423  0.00  0.00    +0.000 C 
ATOM     15  C   UNL     1      43.401   4.866  10.483  0.00  0.00    +0.000 C 
BRANCH  14  16
ATOM     16  C   UNL     1      44.931   3.204   9.357  0.00  0.00    +0.000 A 
ATOM     17  C   UNL     1      45.438   4.312   8.661  0.00  0.00    +0.000 A 
ATOM     18  C   UNL     1      46.369   4.142   7.635  0.00  0.00    +0.000 A 
ATOM     19  C   UNL     1      46.806   2.864   7.292  0.00  0.00    +0.000 A 
ATOM     20  C   UNL     1      46.327   1.745   7.978  0.00  0.00    +0.000 A 
ATOM     21  C   UNL     1      46.785   0.363   7.614  0.00  0.00    +0.000 C 
ATOM     22  C   UNL     1      45.395   1.922   9.011  0.00  0.00    +0.000 A 
ENDBRANCH  14  16
ENDBRANCH   5  14
TORSDOF 3
ENDMDL
MODEL 2
REMARK VINA RESULT:    -7.074      1.585      2.394
REMARK INTER + INTRA:          -8.214
REMARK INTER:                  -7.678
REMARK INTRA:                  -0.536
REMARK UNBOUND:                 0.100
REMARK  Name = 
REMARK  6 active torsions:
REMARK  status: ('A' for Active; 'I' for Inactive)
REMARK    1  A    between atoms: C_1  and  N_2
REMARK    2  A    between atoms: C_3  and  C_5
REMARK    3  A    between atoms: N_9  and  C_10
REMARK    4  A    between atoms: C_10  and  C_11
REMARK    5  A    between atoms: C_10  and  C_12
REMARK    6  A    between atoms: C_16  and  C_17
REMARK                            x       y       z     vdW  Elec       q    Type
REMARK                         _______ _______ _______ _____ _____    ______ ____
ROOT
ATOM      1  C   UNL     1      47.925   5.563  15.285  0.00  0.00    +0.000 A 
ATOM      2  C   UNL     1      47.164   4.454  14.918  0.00  0.00    +0.000 A 
ATOM      3  C   UNL     1      46.458   4.473  13.713  0.00  0.00    +0.000 A 
ATOM      4  C   UNL     1      46.514   5.597  12.900  0.00  0.00    +0.000 A 
ATOM      5  N   UNL     1      45.919   5.669  11.664  0.00  0.00    +0.000 N 
ATOM      6  N   UNL     1      47.238   6.678  13.249  0.00  0.00    +0.000 NA
ATOM      7  C   UNL     1      47.917   6.649  14.428  0.00  0.00    +0.000 A 
ATOM      8  H   UNL     1      46.087   6.595  11.283  0.00  0.00    +0.000 HD
ENDROOT
BRANCH   1  11
ATOM      9  C   UNL     1      48.616   6.116  18.963  0.00  0.00    +0.000 C 
ATOM     10  N   UNL     1      47.972   5.947  17.683  0.00  0.00    +0.000 N 
ATOM     11  C   UNL     1      48.695   5.626  16.552  0.00  0.00    +0.000 C 
ATOM     12  O   UNL     1      49.896   5.398  16.553  0.00  0.00    +0.000 OA
ATOM     13  H   UNL     1      46.963   5.961  17.655  0.00  0.00    +0.000 HD
ENDBRANCH   1  11
BRANCH   5  14
ATOM     14  C   UNL     1      44.611   5.109  11.356  0.00  0.00    +0.000 C 
ATOM     15  C   UNL     1      43.593   6.199  11.013  0.00  0.00    +0.000 C 
BRANCH  14  16
ATOM     16  C   UNL     1      44.789   4.129  10.203  0.00  0.00    +0.000 A 
ATOM     17  C   UNL     1      44.230   2.846  10.290  0.00  0.00    +0.000 A 
ATOM     18  C   UNL     1      44.436   1.910   9.275  0.00  0.00    +0.000 A 
ATOM     19  C   UNL     1      45.204   2.244   8.161  0.00  0.00    +0.000 A 
ATOM     20  C   UNL     1      45.761   3.520   8.043  0.00  0.00    +0.000 A 
ATOM     21  C   UNL     1      46.595   3.891   6.852  0.00  0.00    +0.000 C 
ATOM     22  C   UNL     1      45.546   4.458   9.064  0.00  0.00    +0.000 A 
ENDBRANCH  14  16
ENDBRANCH   5  14
TORSDOF 3
ENDMDL
MODEL 3
REMARK VINA RESULT:    -6.965      2.322      2.631
REMARK INTER + INTRA:          -8.087
REMARK INTER:                  -7.588
REMARK INTRA:                  -0.499
REMARK UNBOUND:                 0.100
REMARK  Name = 
REMARK  6 active torsions:
REMARK  status: ('A' for Active; 'I' for Inactive)
REMARK    1  A    between atoms: C_1  and  N_2
REMARK    2  A    between atoms: C_3  and  C_5
REMARK    3  A    between atoms: N_9  and  C_10
REMARK    4  A    between atoms: C_10  and  C_11
REMARK    5  A    between atoms: C_10  and  C_12
REMARK    6  A    between atoms: C_16  and  C_17
REMARK                            x       y       z     vdW  Elec       q    Type
REMARK                         _______ _______ _______ _____ _____    ______ ____
ROOT
ATOM      1  C   UNL     1      46.987   7.971  13.039  0.00  0.00    +0.000 A 
ATOM      2  C   UNL     1      47.596   6.825  12.532  0.00  0.00    +0.000 A 
ATOM      3  C   UNL     1      46.837   5.909  11.800  0.00  0.00    +0.000 A 
ATOM      4  C   UNL     1      45.485   6.146  11.593  0.00  0.00    +0.000 A 
ATOM      5  N   UNL     1      44.683   5.344  10.818  0.00  0.00    +0.000 N 
ATOM      6  N   UNL     1      44.883   7.246  12.087  0.00  0.00    +0.000 NA
ATOM      7  C   UNL     1      45.633   8.127  12.803  0.00  0.00    +0.000 A 
ATOM      8  H   UNL     1      43.739   5.716  10.843  0.00  0.00    +0.000 HD
ENDROOT
BRANCH   1  11
ATOM      9  C   UNL     1      48.201   9.850  16.090  0.00  0.00    +0.000 C 
ATOM     10  N   UNL     1      47.602   8.880  15.207  0.00  0.00    +0.000 N 
ATOM     11  C   UNL     1      47.721   8.986  13.835  0.00  0.00    +0.000 C 
ATOM     12  O   UNL     1      48.384   9.846  13.274  0.00  0.00    +0.000 OA
ATOM     13  H   UNL     1      47.183   8.060  15.619  0.00  0.00    +0.000 HD
ENDBRANCH   1  11
BRANCH   5  14
ATOM     14  C   UNL     1      44.767   3.890  10.794  0.00  0.00    +0.000 C 
ATOM     15  C   UNL     1      43.388   3.240  10.933  0.00  0.00    +0.000 C 
BRANCH  14  16
ATOM     16  C   UNL     1      45.444   3.489   9.490  0.00  0.00    +0.000 A 
ATOM     17  C   UNL     1      45.722   4.467   8.523  0.00  0.00    +0.000 A 
ATOM     18  C   UNL     1      46.283   4.115   7.295  0.00  0.00    +0.000 A 
ATOM     19  C   UNL     1      46.570   2.779   7.016  0.00  0.00    +0.000 A 
ATOM     20  C   UNL     1      46.315   1.787   7.966  0.00  0.00    +0.000 A 
ATOM     21  C   UNL     1      46.615   0.346   7.675  0.00  0.00    +0.000 C 
ATOM     22  C   UNL     1      45.757   2.149   9.200  0.00  0.00    +0.000 A 
ENDBRANCH  14  16
ENDBRANCH   5  14
TORSDOF 3
ENDMDL
MODEL 4
REMARK VINA RESULT:    -6.956      1.574      1.695
REMARK INTER + INTRA:          -8.076
REMARK INTER:                  -8.147
REMARK INTRA:                   0.071
REMARK UNBOUND:                 0.100
REMARK  Name = 
REMARK  6 active torsions:
REMARK  status: ('A' for Active; 'I' for Inactive)
REMARK    1  A    between atoms: C_1  and  N_2
REMARK    2  A    between atoms: C_3  and  C_5
REMARK    3  A    between atoms: N_9  and  C_10
REMARK    4  A    between atoms: C_10  and  C_11
REMARK    5  A    between atoms: C_10  and  C_12
REMARK    6  A    between atoms: C_16  and  C_17
REMARK                            x       y       z     vdW  Elec       q    Type
REMARK                         _______ _______ _______ _____ _____    ______ ____
ROOT
ATOM      1  C   UNL     1      47.315   6.613  13.521  0.00  0.00    +0.000 A 
ATOM      2  C   UNL     1      46.163   7.026  12.855  0.00  0.00    +0.000 A 
ATOM      3  C   UNL     1      45.257   6.070  12.390  0.00  0.00    +0.000 A 
ATOM      4  C   UNL     1      45.519   4.721  12.587  0.00  0.00    +0.000 A 
ATOM      5  N   UNL     1      44.646   3.719  12.237  0.00  0.00    +0.000 N 
ATOM      6  N   UNL     1      46.635   4.310  13.221  0.00  0.00    +0.000 NA
ATOM      7  C   UNL     1      47.512   5.251  13.664  0.00  0.00    +0.000 A 
ATOM      8  H   UNL     1      45.076   2.828  12.465  0.00  0.00    +0.000 HD
ENDROOT
BRANCH   1  11
ATOM      9  C   UNL     1      50.731   7.998  14.375  0.00  0.00    +0.000 C 
ATOM     10  N   UNL     1      49.650   7.198  13.853  0.00  0.00    +0.000 N 
ATOM     11  C   UNL     1      48.331   7.564  14.036  0.00  0.00    +0.000 C 
ATOM     12  O   UNL     1      47.982   8.602  14.579  0.00  0.00    +0.000 OA
ATOM     13  H   UNL     1      49.883   6.420  13.254  0.00  0.00    +0.000 HD
ENDBRANCH   1  11
BRANCH   5  14
ATOM     14  C   UNL     1      43.851   3.722  11.017  0.00  0.00    +0.000 C 
ATOM     15  C   UNL     1      43.030   5.007  10.878  0.00  0.00    +0.000 C 
BRANCH  14  16
ATOM     16  C   UNL     1      44.805   3.540   9.844  0.00  0.00    +0.000 A 
ATOM     17  C   UNL     1      45.240   4.661   9.122  0.00  0.00    +0.000 A 
ATOM     18  C   UNL     1      46.062   4.513   8.005  0.00  0.00    +0.000 A 
ATOM     19  C   UNL     1      46.460   3.241   7.593  0.00  0.00    +0.000 A 
ATOM     20  C   UNL     1      46.052   2.108   8.302  0.00  0.00    +0.000 A 
ATOM     21  C   UNL     1      46.468   0.734   7.866  0.00  0.00    +0.000 C 
ATOM     22  C   UNL     1      45.230   2.265   9.428  0.00  0.00    +0.000 A 
ENDBRANCH  14  16
ENDBRANCH   5  14
TORSDOF 3
ENDMDL
MODEL 5
REMARK VINA RESULT:    -6.404      3.583      7.470
REMARK INTER + INTRA:          -7.427
REMARK INTER:                  -6.836
REMARK INTRA:                  -0.591
REMARK UNBOUND:                 0.100
REMARK  Name = 
REMARK  6 active torsions:
REMARK  status: ('A' for Active; 'I' for Inactive)
REMARK    1  A    between atoms: C_1  and  N_2
REMARK    2  A    between atoms: C_3  and  C_5
REMARK    3  A    between atoms: N_9  and  C_10
REMARK    4  A    between atoms: C_10  and  C_11
REMARK    5  A    between atoms: C_10  and  C_12
REMARK    6  A    between atoms: C_16  and  C_17
REMARK                            x       y       z     vdW  Elec       q    Type
REMARK                         _______ _______ _______ _____ _____    ______ ____
ROOT
ATOM      1  C   UNL     1      46.181   5.811  12.786  0.00  0.00    +0.000 A 
ATOM      2  C   UNL     1      47.011   6.330  13.778  0.00  0.00    +0.000 A 
ATOM      3  C   UNL     1      47.497   5.485  14.779  0.00  0.00    +0.000 A 
ATOM      4  C   UNL     1      47.141   4.143  14.779  0.00  0.00    +0.000 A 
ATOM      5  N   UNL     1      47.638   3.227  15.674  0.00  0.00    +0.000 N 
ATOM      6  N   UNL     1      46.332   3.633  13.831  0.00  0.00    +0.000 NA
ATOM      7  C   UNL     1      45.860   4.467  12.865  0.00  0.00    +0.000 A 
ATOM      8  H   UNL     1      47.212   2.326  15.479  0.00  0.00    +0.000 HD
ENDROOT
BRANCH   1  11
ATOM      9  C   UNL     1      44.316   8.658  11.133  0.00  0.00    +0.000 C 
ATOM     10  N   UNL     1      44.976   7.803  12.089  0.00  0.00    +0.000 N 
ATOM     11  C   UNL     1      45.614   6.643  11.696  0.00  0.00    +0.000 C 
ATOM     12  O   UNL     1      45.729   6.291  10.531  0.00  0.00    +0.000 OA
ATOM     13  H   UNL     1      45.055   8.129  13.041  0.00  0.00    +0.000 HD
ENDBRANCH   1  11
BRANCH   5  14
ATOM     14  C   UNL     1      47.861   3.506  17.086  0.00  0.00    +0.000 C 
ATOM     15  C   UNL     1      47.115   2.516  17.984  0.00  0.00    +0.000 C 
BRANCH  14  16
ATOM     16  C   UNL     1      49.363   3.461  17.333  0.00  0.00    +0.000 A 
ATOM     17  C   UNL     1      50.074   4.658  17.505  0.00  0.00    +0.000 A 
ATOM     18  C   UNL     1      51.460   4.645  17.668  0.00  0.00    +0.000 A 
ATOM     19  C   UNL     1      52.153   3.436  17.660  0.00  0.00    +0.000 A 
ATOM     20  C   UNL     1      51.468   2.228  17.505  0.00  0.00    +0.000 A 
ATOM     21  C   UNL     1      52.203   0.920  17.489  0.00  0.00    +0.000 C 
ATOM     22  C   UNL     1      50.074   2.248  17.347  0.00  0.00    +0.000 A 
ENDBRANCH  14  16
ENDBRANCH   5  14
TORSDOF 3
ENDMDL
MODEL 6
REMARK VINA RESULT:    -6.367      2.607      7.860
REMARK INTER + INTRA:          -7.383
REMARK INTER:                  -6.802
REMARK INTRA:                  -0.582
REMARK UNBOUND:                 0.100
REMARK  Name = 
REMARK  6 active torsions:
REMARK  status: ('A' for Active; 'I' for Inactive)
REMARK    1  A    between atoms: C_1  and  N_2
REMARK    2  A    between atoms: C_3  and  C_5
REMARK    3  A    between atoms: N_9  and  C_10
REMARK    4  A    between atoms: C_10  and  C_11
REMARK    5  A    between atoms: C_10  and  C_12
REMARK    6  A    between atoms: C_16  and  C_17
REMARK                            x       y       z     vdW  Elec       q    Type
REMARK                         _______ _______ _______ _____ _____    ______ ____
ROOT
ATOM      1  C   UNL     1      45.203   4.133  11.901  0.00  0.00    +0.000 A 
ATOM      2  C   UNL     1      46.041   3.621  12.889  0.00  0.00    +0.000 A 
ATOM      3  C   UNL     1      46.804   4.496  13.666  0.00  0.00    +0.000 A 
ATOM      4  C   UNL     1      46.725   5.863  13.439  0.00  0.00    +0.000 A 
ATOM      5  N   UNL     1      47.375   6.799  14.208  0.00  0.00    +0.000 N 
ATOM      6  N   UNL     1      45.926   6.369  12.480  0.00  0.00    +0.000 NA
ATOM      7  C   UNL     1      45.193   5.506  11.726  0.00  0.00    +0.000 A 
ATOM      8  H   UNL     1      47.175   7.719  13.828  0.00  0.00    +0.000 HD
ENDROOT
BRANCH   1  11
ATOM      9  C   UNL     1      44.349   1.721   9.114  0.00  0.00    +0.000 C 
ATOM     10  N   UNL     1      45.050   2.538  10.075  0.00  0.00    +0.000 N 
ATOM     11  C   UNL     1      44.370   3.271  11.027  0.00  0.00    +0.000 C 
ATOM     12  O   UNL     1      43.156   3.235  11.175  0.00  0.00    +0.000 OA
ATOM     13  H   UNL     1      46.057   2.475  10.105  0.00  0.00    +0.000 HD
ENDBRANCH   1  11
BRANCH   5  14
ATOM     14  C   UNL     1      48.726   6.631  14.725  0.00  0.00    +0.000 C 
ATOM     15  C   UNL     1      49.623   7.819  14.367  0.00  0.00    +0.000 C 
BRANCH  14  16
ATOM     16  C   UNL     1      48.622   6.444  16.233  0.00  0.00    +0.000 A 
ATOM     17  C   UNL     1      48.614   7.569  17.072  0.00  0.00    +0.000 A 
ATOM     18  C   UNL     1      48.584   7.420  18.460  0.00  0.00    +0.000 A 
ATOM     19  C   UNL     1      48.564   6.147  19.026  0.00  0.00    +0.000 A 
ATOM     20  C   UNL     1      48.558   5.011  18.213  0.00  0.00    +0.000 A 
ATOM     21  C   UNL     1      48.543   3.634  18.811  0.00  0.00    +0.000 C 
ATOM     22  C   UNL     1      48.583   5.167  16.820  0.00  0.00    +0.000 A 
ENDBRANCH  14  16
ENDBRANCH   5  14
TORSDOF 3
ENDMDL
MODEL 7
REMARK VINA RESULT:    -6.148      4.950      6.793
REMARK INTER + INTRA:          -7.126
REMARK INTER:                  -6.564
REMARK INTRA:                  -0.562
REMARK UNBOUND:                 0.100
REMARK  Name = 
REMARK  6 active torsions:
REMARK  status: ('A' for Active; 'I' for Inactive)
REMARK    1  A    between atoms: C_1  and  N_2
REMARK    2  A    between atoms: C_3  and  C_5
REMARK    3  A    between atoms: N_9  and  C_10
REMARK    4  A    between atoms: C_10  and  C_11
REMARK    5  A    between atoms: C_10  and  C_12
REMARK    6  A    between atoms: C_16  and  C_17
REMARK                            x       y       z     vdW  Elec       q    Type
REMARK                         _______ _______ _______ _____ _____    ______ ____
ROOT
ATOM      1  C   UNL     1      46.079   5.602  12.666  0.00  0.00    +0.000 A 
ATOM      2  C   UNL     1      46.346   6.618  11.751  0.00  0.00    +0.000 A 
ATOM      3  C   UNL     1      47.607   7.220  11.740  0.00  0.00    +0.000 A 
ATOM      4  C   UNL     1      48.574   6.806  12.645  0.00  0.00    +0.000 A 
ATOM      5  N   UNL     1      49.862   7.284  12.650  0.00  0.00    +0.000 N 
ATOM      6  N   UNL     1      48.324   5.831  13.541  0.00  0.00    +0.000 NA
ATOM      7  C   UNL     1      47.091   5.257  13.545  0.00  0.00    +0.000 A 
ATOM      8  H   UNL     1      50.364   6.842  13.414  0.00  0.00    +0.000 HD
ENDROOT
BRANCH   1  11
ATOM      9  C   UNL     1      43.462   2.918  12.152  0.00  0.00    +0.000 C 
ATOM     10  N   UNL     1      44.701   3.654  12.204  0.00  0.00    +0.000 N 
ATOM     11  C   UNL     1      44.763   4.921  12.750  0.00  0.00    +0.000 C 
ATOM     12  O   UNL     1      43.815   5.479  13.283  0.00  0.00    +0.000 OA
ATOM     13  H   UNL     1      45.547   3.178  11.929  0.00  0.00    +0.000 HD
ENDBRANCH   1  11
BRANCH   5  14
ATOM     14  C   UNL     1      50.216   8.676  12.408  0.00  0.00    +0.000 C 
ATOM     15  C   UNL     1      50.807   9.335  13.657  0.00  0.00    +0.000 C 
BRANCH  14  16
ATOM     16  C   UNL     1      51.196   8.707  11.243  0.00  0.00    +0.000 A 
ATOM     17  C   UNL     1      51.543   9.936  10.661  0.00  0.00    +0.000 A 
ATOM     18  C   UNL     1      52.388   9.984   9.552  0.00  0.00    +0.000 A 
ATOM     19  C   UNL     1      52.896   8.804   9.008  0.00  0.00    +0.000 A 
ATOM     20  C   UNL     1      52.576   7.569   9.576  0.00  0.00    +0.000 A 
ATOM     21  C   UNL     1      53.111   6.292   8.997  0.00  0.00    +0.000 C 
ATOM     22  C   UNL     1      51.731   7.528  10.695  0.00  0.00    +0.000 A 
ENDBRANCH  14  16
ENDBRANCH   5  14
TORSDOF 3
ENDMDL
MODEL 8
REMARK VINA RESULT:    -6.112      3.546      5.374
REMARK INTER + INTRA:          -7.083
REMARK INTER:                  -6.577
REMARK INTRA:                  -0.506
REMARK UNBOUND:                 0.100
REMARK  Name = 
REMARK  6 active torsions:
REMARK  status: ('A' for Active; 'I' for Inactive)
REMARK    1  A    between atoms: C_1  and  N_2
REMARK    2  A    between atoms: C_3  and  C_5
REMARK    3  A    between atoms: N_9  and  C_10
REMARK    4  A    between atoms: C_10  and  C_11
REMARK    5  A    between atoms: C_10  and  C_12
REMARK    6  A    between atoms: C_16  and  C_17
REMARK                            x       y       z     vdW  Elec       q    Type
REMARK                         _______ _______ _______ _____ _____    ______ ____
ROOT
ATOM      1  C   UNL     1      48.662   4.637  18.262  0.00  0.00    +0.000 A 
ATOM      2  C   UNL     1      49.018   5.374  17.134  0.00  0.00    +0.000 A 
ATOM      3  C   UNL     1      48.245   5.275  15.975  0.00  0.00    +0.000 A 
ATOM      4  C   UNL     1      47.137   4.438  15.957  0.00  0.00    +0.000 A 
ATOM      5  N   UNL     1      46.276   4.342  14.891  0.00  0.00    +0.000 N 
ATOM      6  N   UNL     1      46.789   3.713  17.039  0.00  0.00    +0.000 NA
ATOM      7  C   UNL     1      47.554   3.815  18.159  0.00  0.00    +0.000 A 
ATOM      8  H   UNL     1      45.565   3.653  15.116  0.00  0.00    +0.000 HD
ENDROOT
BRANCH   1  11
ATOM      9  C   UNL     1      51.629   5.107  20.562  0.00  0.00    +0.000 C 
ATOM     10  N   UNL     1      50.748   5.097  19.420  0.00  0.00    +0.000 N 
ATOM     11  C   UNL     1      49.437   4.679  19.527  0.00  0.00    +0.000 C 
ATOM     12  O   UNL     1      48.909   4.357  20.582  0.00  0.00    +0.000 OA
ATOM     13  H   UNL     1      51.083   5.507  18.561  0.00  0.00    +0.000 HD
ENDBRANCH   1  11
BRANCH   5  14
ATOM     14  C   UNL     1      46.700   4.352  13.498  0.00  0.00    +0.000 C 
ATOM     15  C   UNL     1      45.798   3.477  12.624  0.00  0.00    +0.000 C 
BRANCH  14  16
ATOM     16  C   UNL     1      46.698   5.800  13.027  0.00  0.00    +0.000 A 
ATOM     17  C   UNL     1      45.489   6.510  12.968  0.00  0.00    +0.000 A 
ATOM     18  C   UNL     1      45.454   7.816  12.478  0.00  0.00    +0.000 A 
ATOM     19  C   UNL     1      46.627   8.430  12.039  0.00  0.00    +0.000 A 
ATOM     20  C   UNL     1      47.846   7.750  12.099  0.00  0.00    +0.000 A 
ATOM     21  C   UNL     1      49.114   8.397  11.624  0.00  0.00    +0.000 C 
ATOM     22  C   UNL     1      47.875   6.440  12.598  0.00  0.00    +0.000 A 
ENDBRANCH  14  16
ENDBRANCH   5  14
TORSDOF 3
ENDMDL
MODEL 9
REMARK VINA RESULT:    -6.070      2.512      4.383
REMARK INTER + INTRA:          -7.034
REMARK INTER:                  -6.872
REMARK INTRA:                  -0.161
REMARK UNBOUND:                 0.100
REMARK  Name = 
REMARK  6 active torsions:
REMARK  status: ('A' for Active; 'I' for Inactive)
REMARK    1  A    between atoms: C_1  and  N_2
REMARK    2  A    between atoms: C_3  and  C_5
REMARK    3  A    between atoms: N_9  and  C_10
REMARK    4  A    between atoms: C_10  and  C_11
REMARK    5  A    between atoms: C_10  and  C_12
REMARK    6  A    between atoms: C_16  and  C_17
REMARK                            x       y       z     vdW  Elec       q    Type
REMARK                         _______ _______ _______ _____ _____    ______ ____
ROOT
ATOM      1  C   UNL     1      49.539   4.196  17.417  0.00  0.00    +0.000 A 
ATOM      2  C   UNL     1      49.005   5.430  17.054  0.00  0.00    +0.000 A 
ATOM      3  C   UNL     1      47.975   5.484  16.112  0.00  0.00    +0.000 A 
ATOM      4  C   UNL     1      47.503   4.309  15.541  0.00  0.00    +0.000 A 
ATOM      5  N   UNL     1      46.441   4.262  14.671  0.00  0.00    +0.000 N 
ATOM      6  N   UNL     1      48.019   3.111  15.877  0.00  0.00    +0.000 NA
ATOM      7  C   UNL     1      49.025   3.073  16.792  0.00  0.00    +0.000 A 
ATOM      8  H   UNL     1      46.308   3.298  14.383  0.00  0.00    +0.000 HD
ENDROOT
BRANCH   1  11
ATOM      9  C   UNL     1      52.798   2.982  18.907  0.00  0.00    +0.000 C 
ATOM     10  N   UNL     1      51.702   3.261  18.013  0.00  0.00    +0.000 N 
ATOM     11  C   UNL     1      50.641   4.055  18.402  0.00  0.00    +0.000 C 
ATOM     12  O   UNL     1      50.578   4.627  19.481  0.00  0.00    +0.000 OA
ATOM     13  H   UNL     1      51.781   2.952  17.055  0.00  0.00    +0.000 HD
ENDBRANCH   1  11
BRANCH   5  14
ATOM     14  C   UNL     1      46.196   5.251  13.630  0.00  0.00    +0.000 C 
ATOM     15  C   UNL     1      47.502   5.771  13.023  0.00  0.00    +0.000 C 
BRANCH  14  16
ATOM     16  C   UNL     1      45.310   4.601  12.576  0.00  0.00    +0.000 A 
ATOM     17  C   UNL     1      44.266   3.753  12.974  0.00  0.00    +0.000 A 
ATOM     18  C   UNL     1      43.483   3.095  12.024  0.00  0.00    +0.000 A 
ATOM     19  C   UNL     1      43.734   3.275  10.665  0.00  0.00    +0.000 A 
ATOM     20  C   UNL     1      44.759   4.125  10.242  0.00  0.00    +0.000 A 
ATOM     21  C   UNL     1      45.043   4.323   8.781  0.00  0.00    +0.000 C 
ATOM     22  C   UNL     1      45.539   4.787  11.201  0.00  0.00    +0.000 A 
ENDBRANCH  14  16
ENDBRANCH   5  14
TORSDOF 3
ENDMDL
