MODEL 1
REMARK VINA RESULT:    -8.705      0.000      0.000
REMARK INTER + INTRA:         -12.956
REMARK INTER:                 -12.267
REMARK INTRA:                  -0.689
REMARK UNBOUND:                -0.689
REMARK  Name = 
REMARK  7 active torsions:
REMARK  status: ('A' for Active; 'I' for Inactive)
REMARK    1  A    between atoms: C_2  and  C_3
REMARK    2  A    between atoms: C_7  and  C_8
REMARK    3  A    between atoms: C_12  and  C_13
REMARK    4  A    between atoms: C_13  and  N_14
REMARK    5  A    between atoms: N_14  and  C_15
REMARK    6  A    between atoms: C_18  and  C_19
REMARK    7  A    between atoms: C_21  and  C_22
REMARK                            x       y       z     vdW  Elec       q    Type
REMARK                         _______ _______ _______ _____ _____    ______ ____
ROOT
ATOM      1  C   UNL     1      43.691   5.518  11.205  0.00  0.00    +0.000 C 
ATOM      2  C   UNL     1      42.571   6.396  11.725  0.00  0.00    +0.000 C 
ATOM      3  C   UNL     1      42.492   4.922  11.940  0.00  0.00    +0.000 C 
ENDROOT
BRANCH   1   8
ATOM      4  C   UNL     1      47.216   6.651  12.339  0.00  0.00    +0.000 A 
ATOM      5  C   UNL     1      47.531   5.636  13.254  0.00  0.00    +0.000 A 
ATOM      6  C   UNL     1      46.631   4.601  13.519  0.00  0.00    +0.000 A 
ATOM      7  C   UNL     1      45.401   4.555  12.861  0.00  0.00    +0.000 A 
ATOM      8  C   UNL     1      45.031   5.543  11.936  0.00  0.00    +0.000 A 
ATOM      9  C   UNL     1      45.955   6.582  11.712  0.00  0.00    +0.000 A 
BRANCH   4  14
ATOM     10  C   UNL     1      50.375   8.549  11.370  0.00  0.00    +0.000 A 
ATOM     11  C   UNL     1      49.916   9.866  11.344  0.00  0.00    +0.000 A 
ATOM     12  C   UNL     1      48.594  10.144  11.680  0.00  0.00    +0.000 A 
ATOM     13  C   UNL     1      47.720   9.104  12.020  0.00  0.00    +0.000 A 
ATOM     14  C   UNL     1      48.147   7.764  12.039  0.00  0.00    +0.000 A 
ATOM     15  C   UNL     1      49.498   7.515  11.726  0.00  0.00    +0.000 A 
BRANCH  10  17
ATOM     16  N   UNL     1      52.824   8.011  10.710  0.00  0.00    +0.000 NA
ATOM     17  C   UNL     1      51.729   8.248  11.014  0.00  0.00    +0.000 C 
ENDBRANCH  10  17
ENDBRANCH   4  14
ENDBRANCH   1   8
BRANCH   1  18
ATOM     18  N   UNL     1      43.777   5.117   9.796  0.00  0.00    +0.000 N 
ATOM     19  H   UNL     1      43.154   5.579   9.142  0.00  0.00    +0.000 HD
BRANCH  18  20
ATOM     20  C   UNL     1      44.515   4.048   9.279  0.00  0.00    +0.000 A 
ATOM     21  C   UNL     1      44.297   2.755   9.756  0.00  0.00    +0.000 A 
ATOM     22  N   UNL     1      44.918   1.639   9.305  0.00  0.00    +0.000 NA
ATOM     23  C   UNL     1      45.828   1.806   8.316  0.00  0.00    +0.000 A 
ATOM     24  C   UNL     1      46.148   3.049   7.778  0.00  0.00    +0.000 A 
ATOM     25  C   UNL     1      45.474   4.174   8.278  0.00  0.00    +0.000 A 
BRANCH  24  26
ATOM     26  C   UNL     1      47.176   3.180   6.693  0.00  0.00    +0.000 C 
ATOM     27  F   UNL     1      48.328   2.523   6.994  0.00  0.00    +0.000 F 
ATOM     28  F   UNL     1      46.762   2.662   5.501  0.00  0.00    +0.000 F 
ENDBRANCH  24  26
BRANCH  23  29
ATOM     29  C   UNL     1      46.456   0.591   7.867  0.00  0.00    +0.000 C 
ATOM     30  N   UNL     1      46.914  -0.415   7.507  0.00  0.00    +0.000 NA
ENDBRANCH  23  29
ENDBRANCH  18  20
ENDBRANCH   1  18
TORSDOF 7
ENDMDL
MODEL 2
REMARK VINA RESULT:    -8.239      2.391      3.825
REMARK INTER + INTRA:         -12.300
REMARK INTER:                 -11.950
REMARK INTRA:                  -0.350
REMARK UNBOUND:                -0.689
REMARK  Name = 
REMARK  7 active torsions:
REMARK  status: ('A' for Active; 'I' for Inactive)
REMARK    1  A    between atoms: C_2  and  C_3
REMARK    2  A    between atoms: C_7  and  C_8
REMARK    3  A    between atoms: C_12  and  C_13
REMARK    4  A    between atoms: C_13  and  N_14
REMARK    5  A    between atoms: N_14  and  C_15
REMARK    6  A    between atoms: C_18  and  C_19
REMARK    7  A    between atoms: C_21  and  C_22
REMARK                            x       y       z     vdW  Elec       q    Type
REMARK                         _______ _______ _______ _____ _____    ______ ____
ROOT
ATOM      1  C   UNL     1      43.879   5.362  11.471  0.00  0.00    +0.000 C 
ATOM      2  C   UNL     1      42.673   5.898  12.215  0.00  0.00    +0.000 C 
ATOM      3  C   UNL     1      43.048   4.463  12.383  0.00  0.00    +0.000 C 
ENDROOT
BRANCH   1   8
ATOM      4  C   UNL     1      47.050   5.638  13.676  0.00  0.00    +0.000 A 
ATOM      5  C   UNL     1      47.833   6.501  12.895  0.00  0.00    +0.000 A 
ATOM      6  C   UNL     1      47.365   6.987  11.672  0.00  0.00    +0.000 A 
ATOM      7  C   UNL     1      46.096   6.630  11.213  0.00  0.00    +0.000 A 
ATOM      8  C   UNL     1      45.270   5.771  11.951  0.00  0.00    +0.000 A 
ATOM      9  C   UNL     1      45.783   5.282  13.168  0.00  0.00    +0.000 A 
BRANCH   4  14
ATOM     10  C   UNL     1      48.705   5.418  17.101  0.00  0.00    +0.000 A 
ATOM     11  C   UNL     1      48.325   4.143  17.517  0.00  0.00    +0.000 A 
ATOM     12  C   UNL     1      47.567   3.337  16.671  0.00  0.00    +0.000 A 
ATOM     13  C   UNL     1      47.167   3.814  15.417  0.00  0.00    +0.000 A 
ATOM     14  C   UNL     1      47.519   5.102  14.976  0.00  0.00    +0.000 A 
ATOM     15  C   UNL     1      48.313   5.883  15.839  0.00  0.00    +0.000 A 
BRANCH  10  17
ATOM     16  N   UNL     1      50.086   6.960  18.664  0.00  0.00    +0.000 NA
ATOM     17  C   UNL     1      49.473   6.262  17.967  0.00  0.00    +0.000 C 
ENDBRANCH  10  17
ENDBRANCH   4  14
ENDBRANCH   1   8
BRANCH   1  18
ATOM     18  N   UNL     1      43.815   4.983  10.054  0.00  0.00    +0.000 N 
ATOM     19  H   UNL     1      43.083   5.405   9.492  0.00  0.00    +0.000 HD
BRANCH  18  20
ATOM     20  C   UNL     1      44.556   3.976   9.429  0.00  0.00    +0.000 A 
ATOM     21  C   UNL     1      44.448   2.656   9.867  0.00  0.00    +0.000 A 
ATOM     22  N   UNL     1      45.081   1.593   9.315  0.00  0.00    +0.000 NA
ATOM     23  C   UNL     1      45.888   1.846   8.257  0.00  0.00    +0.000 A 
ATOM     24  C   UNL     1      46.095   3.125   7.747  0.00  0.00    +0.000 A 
ATOM     25  C   UNL     1      45.413   4.192   8.353  0.00  0.00    +0.000 A 
BRANCH  24  26
ATOM     26  C   UNL     1      47.013   3.353   6.582  0.00  0.00    +0.000 C 
ATOM     27  F   UNL     1      48.254   2.841   6.797  0.00  0.00    +0.000 F 
ATOM     28  F   UNL     1      46.571   2.766   5.432  0.00  0.00    +0.000 F 
ENDBRANCH  24  26
BRANCH  23  29
ATOM     29  C   UNL     1      46.534   0.686   7.703  0.00  0.00    +0.000 C 
ATOM     30  N   UNL     1      47.104  -0.230   7.271  0.00  0.00    +0.000 NA
ENDBRANCH  23  29
ENDBRANCH  18  20
ENDBRANCH   1  18
TORSDOF 7
ENDMDL
MODEL 3
REMARK VINA RESULT:    -7.794      4.228      7.760
REMARK INTER + INTRA:         -11.672
REMARK INTER:                 -10.509
REMARK INTRA:                  -1.163
REMARK UNBOUND:                -0.689
REMARK  Name = 
REMARK  7 active torsions:
REMARK  status: ('A' for Active; 'I' for Inactive)
REMARK    1  A    between atoms: C_2  and  C_3
REMARK    2  A    between atoms: C_7  and  C_8
REMARK    3  A    between atoms: C_12  and  C_13
REMARK    4  A    between atoms: C_13  and  N_14
REMARK    5  A    between atoms: N_14  and  C_15
REMARK    6  A    between atoms: C_18  and  C_19
REMARK    7  A    between atoms: C_21  and  C_22
REMARK                            x       y       z     vdW  Elec       q    Type
REMARK                         _______ _______ _______ _____ _____    ______ ____
ROOT
ATOM      1  C   UNL     1      46.107   7.156  12.242  0.00  0.00    +0.000 C 
ATOM      2  C   UNL     1      45.385   8.302  12.921  0.00  0.00    +0.000 C 
ATOM      3  C   UNL     1      46.204   8.583  11.707  0.00  0.00    +0.000 C 
ENDROOT
BRANCH   1   8
ATOM      4  C   UNL     1      45.158   4.475   9.613  0.00  0.00    +0.000 A 
ATOM      5  C   UNL     1      43.802   4.284   9.918  0.00  0.00    +0.000 A 
ATOM      6  C   UNL     1      43.192   4.991  10.957  0.00  0.00    +0.000 A 
ATOM      7  C   UNL     1      43.924   5.918  11.701  0.00  0.00    +0.000 A 
ATOM      8  C   UNL     1      45.282   6.151  11.441  0.00  0.00    +0.000 A 
ATOM      9  C   UNL     1      45.869   5.403  10.402  0.00  0.00    +0.000 A 
BRANCH   4  14
ATOM     10  C   UNL     1      46.565   1.618   7.523  0.00  0.00    +0.000 A 
ATOM     11  C   UNL     1      47.021   2.293   6.391  0.00  0.00    +0.000 A 
ATOM     12  C   UNL     1      46.908   3.679   6.321  0.00  0.00    +0.000 A 
ATOM     13  C   UNL     1      46.320   4.391   7.373  0.00  0.00    +0.000 A 
ATOM     14  C   UNL     1      45.836   3.738   8.521  0.00  0.00    +0.000 A 
ATOM     15  C   UNL     1      45.991   2.339   8.578  0.00  0.00    +0.000 A 
BRANCH  10  17
ATOM     16  N   UNL     1      46.723  -0.967   7.663  0.00  0.00    +0.000 NA
ATOM     17  C   UNL     1      46.662   0.190   7.601  0.00  0.00    +0.000 C 
ENDBRANCH  10  17
ENDBRANCH   4  14
ENDBRANCH   1   8
BRANCH   1  18
ATOM     18  N   UNL     1      47.380   6.628  12.746  0.00  0.00    +0.000 N 
ATOM     19  H   UNL     1      48.171   6.633  12.110  0.00  0.00    +0.000 HD
BRANCH  18  20
ATOM     20  C   UNL     1      47.582   5.965  13.960  0.00  0.00    +0.000 A 
ATOM     21  C   UNL     1      47.051   4.690  14.156  0.00  0.00    +0.000 A 
ATOM     22  N   UNL     1      47.215   3.936  15.270  0.00  0.00    +0.000 NA
ATOM     23  C   UNL     1      47.951   4.478  16.270  0.00  0.00    +0.000 A 
ATOM     24  C   UNL     1      48.509   5.751  16.200  0.00  0.00    +0.000 A 
ATOM     25  C   UNL     1      48.312   6.491  15.023  0.00  0.00    +0.000 A 
BRANCH  24  26
ATOM     26  C   UNL     1      49.303   6.311  17.344  0.00  0.00    +0.000 C 
ATOM     27  F   UNL     1      50.125   7.320  16.954  0.00  0.00    +0.000 F 
ATOM     28  F   UNL     1      48.520   6.838  18.329  0.00  0.00    +0.000 F 
ENDBRANCH  24  26
BRANCH  23  29
ATOM     29  C   UNL     1      48.101   3.637  17.428  0.00  0.00    +0.000 C 
ATOM     30  N   UNL     1      48.274   2.976  18.369  0.00  0.00    +0.000 NA
ENDBRANCH  23  29
ENDBRANCH  18  20
ENDBRANCH   1  18
TORSDOF 7
ENDMDL
MODEL 4
REMARK VINA RESULT:    -7.555      3.396      7.152
REMARK INTER + INTRA:         -11.336
REMARK INTER:                 -10.679
REMARK INTRA:                  -0.657
REMARK UNBOUND:                -0.689
REMARK  Name = 
REMARK  7 active torsions:
REMARK  status: ('A' for Active; 'I' for Inactive)
REMARK    1  A    between atoms: C_2  and  C_3
REMARK    2  A    between atoms: C_7  and  C_8
REMARK    3  A    between atoms: C_12  and  C_13
REMARK    4  A    between atoms: C_13  and  N_14
REMARK    5  A    between atoms: N_14  and  C_15
REMARK    6  A    between atoms: C_18  and  C_19
REMARK    7  A    between atoms: C_21  and  C_22
REMARK                            x       y       z     vdW  Elec       q    Type
REMARK                         _______ _______ _______ _____ _____    ______ ____
ROOT
ATOM      1  C   UNL     1      48.872   8.234  12.400  0.00  0.00    +0.000 C 
ATOM      2  C   UNL     1      49.658   9.278  11.635  0.00  0.00    +0.000 C 
ATOM      3  C   UNL     1      49.915   7.835  11.359  0.00  0.00    +0.000 C 
ENDROOT
BRANCH   1   8
ATOM      4  C   UNL     1      45.632   6.609  11.036  0.00  0.00    +0.000 A 
ATOM      5  C   UNL     1      44.692   7.599  11.357  0.00  0.00    +0.000 A 
ATOM      6  C   UNL     1      45.078   8.772  12.010  0.00  0.00    +0.000 A 
ATOM      7  C   UNL     1      46.417   8.984  12.341  0.00  0.00    +0.000 A 
ATOM      8  C   UNL     1      47.400   8.029  12.045  0.00  0.00    +0.000 A 
ATOM      9  C   UNL     1      46.971   6.849  11.407  0.00  0.00    +0.000 A 
BRANCH   4  14
ATOM     10  C   UNL     1      45.513   3.802   8.462  0.00  0.00    +0.000 A 
ATOM     11  C   UNL     1      44.640   2.900   9.068  0.00  0.00    +0.000 A 
ATOM     12  C   UNL     1      44.057   3.217  10.293  0.00  0.00    +0.000 A 
ATOM     13  C   UNL     1      44.365   4.428  10.924  0.00  0.00    +0.000 A 
ATOM     14  C   UNL     1      45.254   5.352  10.347  0.00  0.00    +0.000 A 
ATOM     15  C   UNL     1      45.804   5.018   9.094  0.00  0.00    +0.000 A 
BRANCH  10  17
ATOM     16  N   UNL     1      46.625   3.204   6.197  0.00  0.00    +0.000 NA
ATOM     17  C   UNL     1      46.130   3.481   7.209  0.00  0.00    +0.000 C 
ENDBRANCH  10  17
ENDBRANCH   4  14
ENDBRANCH   1   8
BRANCH   1  18
ATOM     18  N   UNL     1      49.225   7.840  13.769  0.00  0.00    +0.000 N 
ATOM     19  H   UNL     1      50.012   8.312  14.201  0.00  0.00    +0.000 HD
BRANCH  18  20
ATOM     20  C   UNL     1      48.694   6.765  14.488  0.00  0.00    +0.000 A 
ATOM     21  C   UNL     1      49.109   6.529  15.799  0.00  0.00    +0.000 A 
ATOM     22  N   UNL     1      48.638   5.548  16.605  0.00  0.00    +0.000 NA
ATOM     23  C   UNL     1      47.692   4.731  16.082  0.00  0.00    +0.000 A 
ATOM     24  C   UNL     1      47.218   4.853  14.779  0.00  0.00    +0.000 A 
ATOM     25  C   UNL     1      47.736   5.888  13.985  0.00  0.00    +0.000 A 
BRANCH  24  26
ATOM     26  C   UNL     1      46.179   3.911  14.244  0.00  0.00    +0.000 C 
ATOM     27  F   UNL     1      45.047   4.558  13.861  0.00  0.00    +0.000 F 
ATOM     28  F   UNL     1      46.598   3.225  13.142  0.00  0.00    +0.000 F 
ENDBRANCH  24  26
BRANCH  23  29
ATOM     29  C   UNL     1      47.219   3.709  16.979  0.00  0.00    +0.000 C 
ATOM     30  N   UNL     1      46.855   2.846  17.666  0.00  0.00    +0.000 NA
ENDBRANCH  23  29
ENDBRANCH  18  20
ENDBRANCH   1  18
TORSDOF 7
ENDMDL
MODEL 5
REMARK VINA RESULT:    -7.543      1.819      2.467
REMARK INTER + INTRA:         -11.319
REMARK INTER:                 -11.544
REMARK INTRA:                   0.225
REMARK UNBOUND:                -0.689
REMARK  Name = 
REMARK  7 active torsions:
REMARK  status: ('A' for Active; 'I' for Inactive)
REMARK    1  A    between atoms: C_2  and  C_3
REMARK    2  A    between atoms: C_7  and  C_8
REMARK    3  A    between atoms: C_12  and  C_13
REMARK    4  A    between atoms: C_13  and  N_14
REMARK    5  A    between atoms: N_14  and  C_15
REMARK    6  A    between atoms: C_18  and  C_19
REMARK    7  A    between atoms: C_21  and  C_22
REMARK                            x       y       z     vdW  Elec       q    Type
REMARK                         _______ _______ _______ _____ _____    ______ ____
ROOT
ATOM      1  C   UNL     1      43.703   5.687  11.419  0.00  0.00    +0.000 C 
ATOM      2  C   UNL     1      42.723   5.300  12.508  0.00  0.00    +0.000 C 
ATOM      3  C   UNL     1      44.046   4.614  12.450  0.00  0.00    +0.000 C 
ENDROOT
BRANCH   1   8
ATOM      4  C   UNL     1      46.473   8.314  12.070  0.00  0.00    +0.000 A 
ATOM      5  C   UNL     1      45.785   9.496  11.758  0.00  0.00    +0.000 A 
ATOM      6  C   UNL     1      44.454   9.464  11.335  0.00  0.00    +0.000 A 
ATOM      7  C   UNL     1      43.780   8.246  11.231  0.00  0.00    +0.000 A 
ATOM      8  C   UNL     1      44.416   7.033  11.529  0.00  0.00    +0.000 A 
ATOM      9  C   UNL     1      45.765   7.102  11.929  0.00  0.00    +0.000 A 
BRANCH   4  14
ATOM     10  C   UNL     1      49.612   7.590  14.104  0.00  0.00    +0.000 A 
ATOM     11  C   UNL     1      50.598   8.197  13.328  0.00  0.00    +0.000 A 
ATOM     12  C   UNL     1      50.242   8.876  12.165  0.00  0.00    +0.000 A 
ATOM     13  C   UNL     1      48.902   8.930  11.765  0.00  0.00    +0.000 A 
ATOM     14  C   UNL     1      47.886   8.313  12.516  0.00  0.00    +0.000 A 
ATOM     15  C   UNL     1      48.271   7.661  13.704  0.00  0.00    +0.000 A 
BRANCH  10  17
ATOM     16  N   UNL     1      50.268   6.308  16.261  0.00  0.00    +0.000 NA
ATOM     17  C   UNL     1      49.966   6.876  15.295  0.00  0.00    +0.000 C 
ENDBRANCH  10  17
ENDBRANCH   4  14
ENDBRANCH   1   8
BRANCH   1  18
ATOM     18  N   UNL     1      43.589   5.173  10.049  0.00  0.00    +0.000 N 
ATOM     19  H   UNL     1      42.800   5.493   9.496  0.00  0.00    +0.000 HD
BRANCH  18  20
ATOM     20  C   UNL     1      44.360   4.158   9.475  0.00  0.00    +0.000 A 
ATOM     21  C   UNL     1      44.243   2.847   9.935  0.00  0.00    +0.000 A 
ATOM     22  N   UNL     1      44.905   1.777   9.431  0.00  0.00    +0.000 NA
ATOM     23  C   UNL     1      45.752   2.015   8.401  0.00  0.00    +0.000 A 
ATOM     24  C   UNL     1      45.971   3.285   7.874  0.00  0.00    +0.000 A 
ATOM     25  C   UNL     1      45.258   4.359   8.429  0.00  0.00    +0.000 A 
BRANCH  24  26
ATOM     26  C   UNL     1      46.933   3.496   6.741  0.00  0.00    +0.000 C 
ATOM     27  F   UNL     1      48.159   2.970   7.004  0.00  0.00    +0.000 F 
ATOM     28  F   UNL     1      46.526   2.909   5.579  0.00  0.00    +0.000 F 
ENDBRANCH  24  26
BRANCH  23  29
ATOM     29  C   UNL     1      46.427   0.848   7.897  0.00  0.00    +0.000 C 
ATOM     30  N   UNL     1      46.941  -0.125   7.524  0.00  0.00    +0.000 NA
ENDBRANCH  23  29
ENDBRANCH  18  20
ENDBRANCH   1  18
TORSDOF 7
ENDMDL
MODEL 6
REMARK VINA RESULT:    -7.283      3.752      5.910
REMARK INTER + INTRA:         -10.953
REMARK INTER:                  -9.851
REMARK INTRA:                  -1.102
REMARK UNBOUND:                -0.689
REMARK  Name = 
REMARK  7 active torsions:
REMARK  status: ('A' for Active; 'I' for Inactive)
REMARK    1  A    between atoms: C_2  and  C_3
REMARK    2  A    between atoms: C_7  and  C_8
REMARK    3  A    between atoms: C_12  and  C_13
REMARK    4  A    between atoms: C_13  and  N_14
REMARK    5  A    between atoms: N_14  and  C_15
REMARK    6  A    between atoms: C_18  and  C_19
REMARK    7  A    between atoms: C_21  and  C_22
REMARK                            x       y       z     vdW  Elec       q    Type
REMARK                         _______ _______ _______ _____ _____    ______ ____
ROOT
ATOM      1  C   UNL     1      47.979   8.206  12.533  0.00  0.00    +0.000 C 
ATOM      2  C   UNL     1      49.108   7.861  11.583  0.00  0.00    +0.000 C 
ATOM      3  C   UNL     1      48.708   9.290  11.743  0.00  0.00    +0.000 C 
ENDROOT
BRANCH   1   8
ATOM      4  C   UNL     1      48.717   6.736  16.039  0.00  0.00    +0.000 A 
ATOM      5  C   UNL     1      48.727   7.907  16.812  0.00  0.00    +0.000 A 
ATOM      6  C   UNL     1      48.511   9.157  16.228  0.00  0.00    +0.000 A 
ATOM      7  C   UNL     1      48.264   9.258  14.858  0.00  0.00    +0.000 A 
ATOM      8  C   UNL     1      48.242   8.123  14.035  0.00  0.00    +0.000 A 
ATOM      9  C   UNL     1      48.487   6.882  14.655  0.00  0.00    +0.000 A 
BRANCH   4  14
ATOM     10  C   UNL     1      50.456   3.763  17.668  0.00  0.00    +0.000 A 
ATOM     11  C   UNL     1      49.390   2.886  17.866  0.00  0.00    +0.000 A 
ATOM     12  C   UNL     1      48.114   3.241  17.435  0.00  0.00    +0.000 A 
ATOM     13  C   UNL     1      47.897   4.483  16.827  0.00  0.00    +0.000 A 
ATOM     14  C   UNL     1      48.947   5.396  16.628  0.00  0.00    +0.000 A 
ATOM     15  C   UNL     1      50.233   4.998  17.044  0.00  0.00    +0.000 A 
BRANCH  10  17
ATOM     16  N   UNL     1      52.836   3.122  18.473  0.00  0.00    +0.000 NA
ATOM     17  C   UNL     1      51.771   3.417  18.119  0.00  0.00    +0.000 C 
ENDBRANCH  10  17
ENDBRANCH   4  14
ENDBRANCH   1   8
BRANCH   1  18
ATOM     18  N   UNL     1      46.569   8.051  12.157  0.00  0.00    +0.000 N 
ATOM     19  H   UNL     1      45.985   8.881  12.183  0.00  0.00    +0.000 HD
BRANCH  18  20
ATOM     20  C   UNL     1      45.898   6.847  11.922  0.00  0.00    +0.000 A 
ATOM     21  C   UNL     1      45.144   6.259  12.938  0.00  0.00    +0.000 A 
ATOM     22  N   UNL     1      44.420   5.120  12.817  0.00  0.00    +0.000 NA
ATOM     23  C   UNL     1      44.445   4.507  11.609  0.00  0.00    +0.000 A 
ATOM     24  C   UNL     1      45.182   4.985  10.529  0.00  0.00    +0.000 A 
ATOM     25  C   UNL     1      45.912   6.171  10.705  0.00  0.00    +0.000 A 
BRANCH  24  26
ATOM     26  C   UNL     1      45.187   4.259   9.216  0.00  0.00    +0.000 C 
ATOM     27  F   UNL     1      44.017   4.409   8.541  0.00  0.00    +0.000 F 
ATOM     28  F   UNL     1      46.158   4.700   8.366  0.00  0.00    +0.000 F 
ENDBRANCH  24  26
BRANCH  23  29
ATOM     29  C   UNL     1      43.657   3.305  11.529  0.00  0.00    +0.000 C 
ATOM     30  N   UNL     1      43.016   2.336  11.520  0.00  0.00    +0.000 NA
ENDBRANCH  23  29
ENDBRANCH  18  20
ENDBRANCH   1  18
TORSDOF 7
ENDMDL
MODEL 7
REMARK VINA RESULT:    -7.206      3.876      6.056
REMARK INTER + INTRA:         -10.843
REMARK INTER:                  -9.721
REMARK INTRA:                  -1.122
REMARK UNBOUND:                -0.689
REMARK  Name = 
REMARK  7 active torsions:
REMARK  status: ('A' for Active; 'I' for Inactive)
REMARK    1  A    between atoms: C_2  and  C_3
REMARK    2  A    between atoms: C_7  and  C_8
REMARK    3  A    between atoms: C_12  and  C_13
REMARK    4  A    between atoms: C_13  and  N_14
REMARK    5  A    between atoms: N_14  and  C_15
REMARK    6  A    between atoms: C_18  and  C_19
REMARK    7  A    between atoms: C_21  and  C_22
REMARK                            x       y       z     vdW  Elec       q    Type
REMARK                         _______ _______ _______ _____ _____    ______ ____
ROOT
ATOM      1  C   UNL     1      48.290   8.050  12.604  0.00  0.00    +0.000 C 
ATOM      2  C   UNL     1      49.436   7.396  11.859  0.00  0.00    +0.000 C 
ATOM      3  C   UNL     1      49.196   8.857  11.677  0.00  0.00    +0.000 C 
ENDROOT
BRANCH   1   8
ATOM      4  C   UNL     1      48.621   7.315  16.393  0.00  0.00    +0.000 A 
ATOM      5  C   UNL     1      48.694   8.620  16.903  0.00  0.00    +0.000 A 
ATOM      6  C   UNL     1      48.648   9.728  16.053  0.00  0.00    +0.000 A 
ATOM      7  C   UNL     1      48.513   9.551  14.675  0.00  0.00    +0.000 A 
ATOM      8  C   UNL     1      48.435   8.271  14.109  0.00  0.00    +0.000 A 
ATOM      9  C   UNL     1      48.508   7.178  14.993  0.00  0.00    +0.000 A 
BRANCH   4  14
ATOM     10  C   UNL     1      49.345   3.790  17.643  0.00  0.00    +0.000 A 
ATOM     11  C   UNL     1      48.886   3.856  18.957  0.00  0.00    +0.000 A 
ATOM     12  C   UNL     1      48.305   5.031  19.428  0.00  0.00    +0.000 A 
ATOM     13  C   UNL     1      48.202   6.149  18.592  0.00  0.00    +0.000 A 
ATOM     14  C   UNL     1      48.670   6.119  17.266  0.00  0.00    +0.000 A 
ATOM     15  C   UNL     1      49.224   4.908  16.807  0.00  0.00    +0.000 A 
BRANCH  10  17
ATOM     16  N   UNL     1      50.442   1.611  16.760  0.00  0.00    +0.000 NA
ATOM     17  C   UNL     1      49.957   2.592  17.150  0.00  0.00    +0.000 C 
ENDBRANCH  10  17
ENDBRANCH   4  14
ENDBRANCH   1   8
BRANCH   1  18
ATOM     18  N   UNL     1      46.902   7.956  12.138  0.00  0.00    +0.000 N 
ATOM     19  H   UNL     1      46.376   8.821  12.065  0.00  0.00    +0.000 HD
BRANCH  18  20
ATOM     20  C   UNL     1      46.170   6.783  11.937  0.00  0.00    +0.000 A 
ATOM     21  C   UNL     1      45.462   6.212  12.995  0.00  0.00    +0.000 A 
ATOM     22  N   UNL     1      44.686   5.104  12.912  0.00  0.00    +0.000 NA
ATOM     23  C   UNL     1      44.606   4.507  11.699  0.00  0.00    +0.000 A 
ATOM     24  C   UNL     1      45.287   4.969  10.576  0.00  0.00    +0.000 A 
ATOM     25  C   UNL     1      46.074   6.123  10.714  0.00  0.00    +0.000 A 
BRANCH  24  26
ATOM     26  C   UNL     1      45.175   4.260   9.258  0.00  0.00    +0.000 C 
ATOM     27  F   UNL     1      43.958   4.440   8.679  0.00  0.00    +0.000 F 
ATOM     28  F   UNL     1      46.084   4.695   8.339  0.00  0.00    +0.000 F 
ENDBRANCH  24  26
BRANCH  23  29
ATOM     29  C   UNL     1      43.766   3.338  11.660  0.00  0.00    +0.000 C 
ATOM     30  N   UNL     1      43.044   2.428  11.623  0.00  0.00    +0.000 NA
ENDBRANCH  23  29
ENDBRANCH  18  20
ENDBRANCH   1  18
TORSDOF 7
ENDMDL
MODEL 8
REMARK VINA RESULT:    -7.175      4.386      8.349
REMARK INTER + INTRA:         -10.800
REMARK INTER:                  -9.406
REMARK INTRA:                  -1.394
REMARK UNBOUND:                -0.689
REMARK  Name = 
REMARK  7 active torsions:
REMARK  status: ('A' for Active; 'I' for Inactive)
REMARK    1  A    between atoms: C_2  and  C_3
REMARK    2  A    between atoms: C_7  and  C_8
REMARK    3  A    between atoms: C_12  and  C_13
REMARK    4  A    between atoms: C_13  and  N_14
REMARK    5  A    between atoms: N_14  and  C_15
REMARK    6  A    between atoms: C_18  and  C_19
REMARK    7  A    between atoms: C_21  and  C_22
REMARK                            x       y       z     vdW  Elec       q    Type
REMARK                         _______ _______ _______ _____ _____    ______ ____
ROOT
ATOM      1  C   UNL     1      49.193   8.049  12.653  0.00  0.00    +0.000 C 
ATOM      2  C   UNL     1      49.846   9.375  12.322  0.00  0.00    +0.000 C 
ATOM      3  C   UNL     1      50.094   8.205  11.431  0.00  0.00    +0.000 C 
ENDROOT
BRANCH   1   8
ATOM      4  C   UNL     1      45.809   6.604  11.444  0.00  0.00    +0.000 A 
ATOM      5  C   UNL     1      44.924   7.574  11.938  0.00  0.00    +0.000 A 
ATOM      6  C   UNL     1      45.392   8.675  12.657  0.00  0.00    +0.000 A 
ATOM      7  C   UNL     1      46.760   8.836  12.885  0.00  0.00    +0.000 A 
ATOM      8  C   UNL     1      47.691   7.899  12.415  0.00  0.00    +0.000 A 
ATOM      9  C   UNL     1      47.181   6.789  11.714  0.00  0.00    +0.000 A 
BRANCH   4  14
ATOM     10  C   UNL     1      45.453   4.009   8.677  0.00  0.00    +0.000 A 
ATOM     11  C   UNL     1      44.561   3.105   9.250  0.00  0.00    +0.000 A 
ATOM     12  C   UNL     1      44.043   3.355  10.519  0.00  0.00    +0.000 A 
ATOM     13  C   UNL     1      44.433   4.499  11.225  0.00  0.00    +0.000 A 
ATOM     14  C   UNL     1      45.344   5.422  10.681  0.00  0.00    +0.000 A 
ATOM     15  C   UNL     1      45.827   5.160   9.384  0.00  0.00    +0.000 A 
BRANCH  10  17
ATOM     16  N   UNL     1      46.434   3.553   6.319  0.00  0.00    +0.000 NA
ATOM     17  C   UNL     1      46.004   3.757   7.378  0.00  0.00    +0.000 C 
ENDBRANCH  10  17
ENDBRANCH   4  14
ENDBRANCH   1   8
BRANCH   1  18
ATOM     18  N   UNL     1      49.736   7.145  13.674  0.00  0.00    +0.000 N 
ATOM     19  H   UNL     1      50.409   6.449  13.370  0.00  0.00    +0.000 HD
BRANCH  18  20
ATOM     20  C   UNL     1      49.304   7.031  14.999  0.00  0.00    +0.000 A 
ATOM     21  C   UNL     1      49.448   8.107  15.875  0.00  0.00    +0.000 A 
ATOM     22  N   UNL     1      49.031   8.128  17.164  0.00  0.00    +0.000 NA
ATOM     23  C   UNL     1      48.433   7.006  17.630  0.00  0.00    +0.000 A 
ATOM     24  C   UNL     1      48.256   5.861  16.858  0.00  0.00    +0.000 A 
ATOM     25  C   UNL     1      48.703   5.891  15.527  0.00  0.00    +0.000 A 
BRANCH  24  26
ATOM     26  C   UNL     1      47.601   4.638  17.428  0.00  0.00    +0.000 C 
ATOM     27  F   UNL     1      46.698   4.091  16.572  0.00  0.00    +0.000 F 
ATOM     28  F   UNL     1      48.487   3.640  17.709  0.00  0.00    +0.000 F 
ENDBRANCH  24  26
BRANCH  23  29
ATOM     29  C   UNL     1      48.003   7.080  19.002  0.00  0.00    +0.000 C 
ATOM     30  N   UNL     1      47.672   7.087  20.116  0.00  0.00    +0.000 NA
ENDBRANCH  23  29
ENDBRANCH  18  20
ENDBRANCH   1  18
TORSDOF 7
ENDMDL
MODEL 9
REMARK VINA RESULT:    -6.527      4.954      8.298
REMARK INTER + INTRA:          -9.886
REMARK INTER:                  -8.385
REMARK INTRA:                  -1.501
REMARK UNBOUND:                -0.689
REMARK  Name = 
REMARK  7 active torsions:
REMARK  status: ('A' for Active; 'I' for Inactive)
REMARK    1  A    between atoms: C_2  and  C_3
REMARK    2  A    between atoms: C_7  and  C_8
REMARK    3  A    between atoms: C_12  and  C_13
REMARK    4  A    between atoms: C_13  and  N_14
REMARK    5  A    between atoms: N_14  and  C_15
REMARK    6  A    between atoms: C_18  and  C_19
REMARK    7  A    between atoms: C_21  and  C_22
REMARK                            x       y       z     vdW  Elec       q    Type
REMARK                         _______ _______ _______ _____ _____    ______ ____
ROOT
ATOM      1  C   UNL     1      49.229   8.521  16.505  0.00  0.00    +0.000 C 
ATOM      2  C   UNL     1      48.035   9.217  17.127  0.00  0.00    +0.000 C 
ATOM      3  C   UNL     1      49.268  10.009  16.844  0.00  0.00    +0.000 C 
ENDROOT
BRANCH   1   8
ATOM      4  C   UNL     1      47.801   7.350  13.101  0.00  0.00    +0.000 A 
ATOM      5  C   UNL     1      48.959   7.387  12.309  0.00  0.00    +0.000 A 
ATOM      6  C   UNL     1      50.184   7.790  12.846  0.00  0.00    +0.000 A 
ATOM      7  C   UNL     1      50.278   8.148  14.191  0.00  0.00    +0.000 A 
ATOM      8  C   UNL     1      49.155   8.130  15.031  0.00  0.00    +0.000 A 
ATOM      9  C   UNL     1      47.932   7.741  14.450  0.00  0.00    +0.000 A 
BRANCH   4  14
ATOM     10  C   UNL     1      44.718   5.243  12.344  0.00  0.00    +0.000 A 
ATOM     11  C   UNL     1      43.923   6.148  11.643  0.00  0.00    +0.000 A 
ATOM     12  C   UNL     1      44.401   7.430  11.380  0.00  0.00    +0.000 A 
ATOM     13  C   UNL     1      45.666   7.815  11.837  0.00  0.00    +0.000 A 
ATOM     14  C   UNL     1      46.486   6.932  12.561  0.00  0.00    +0.000 A 
ATOM     15  C   UNL     1      45.990   5.632  12.785  0.00  0.00    +0.000 A 
BRANCH  10  17
ATOM     16  N   UNL     1      43.823   2.864  12.862  0.00  0.00    +0.000 NA
ATOM     17  C   UNL     1      44.233   3.926  12.633  0.00  0.00    +0.000 C 
ENDBRANCH  10  17
ENDBRANCH   4  14
ENDBRANCH   1   8
BRANCH   1  18
ATOM     18  N   UNL     1      50.160   7.711  17.299  0.00  0.00    +0.000 N 
ATOM     19  H   UNL     1      50.879   8.203  17.819  0.00  0.00    +0.000 HD
BRANCH  18  20
ATOM     20  C   UNL     1      50.266   6.317  17.289  0.00  0.00    +0.000 A 
ATOM     21  C   UNL     1      51.519   5.712  17.397  0.00  0.00    +0.000 A 
ATOM     22  N   UNL     1      51.742   4.376  17.440  0.00  0.00    +0.000 NA
ATOM     23  C   UNL     1      50.653   3.573  17.364  0.00  0.00    +0.000 A 
ATOM     24  C   UNL     1      49.356   4.061  17.230  0.00  0.00    +0.000 A 
ATOM     25  C   UNL     1      49.178   5.453  17.193  0.00  0.00    +0.000 A 
BRANCH  24  26
ATOM     26  C   UNL     1      48.186   3.126  17.136  0.00  0.00    +0.000 C 
ATOM     27  F   UNL     1      47.036   3.695  17.586  0.00  0.00    +0.000 F 
ATOM     28  F   UNL     1      47.920   2.732  15.857  0.00  0.00    +0.000 F 
ENDBRANCH  24  26
BRANCH  23  29
ATOM     29  C   UNL     1      50.942   2.164  17.420  0.00  0.00    +0.000 C 
ATOM     30  N   UNL     1      51.209   1.033  17.422  0.00  0.00    +0.000 NA
ENDBRANCH  23  29
ENDBRANCH  18  20
ENDBRANCH   1  18
TORSDOF 7
ENDMDL
