MODEL 1
REMARK VINA RESULT:    -7.820      0.000      0.000
REMARK INTER + INTRA:         -11.676
REMARK INTER:                 -10.563
REMARK INTRA:                  -1.114
REMARK UNBOUND:                -1.114
REMARK  Name = 
REMARK  7 active torsions:
REMARK  status: ('A' for Active; 'I' for Inactive)
REMARK    1  A    between atoms: C_1  and  N_2
REMARK    2  A    between atoms: N_2  and  C_3
REMARK    3  A    between atoms: C_3  and  C_4
REMARK    4  A    between atoms: C_7  and  C_8
REMARK    5  A    between atoms: C_8  and  N_9
REMARK    6  A    between atoms: C_10  and  C_12
REMARK    7  A    between atoms: C_19  and  C_21
REMARK                            x       y       z     vdW  Elec       q    Type
REMARK                         _______ _______ _______ _____ _____    ______ ____
ROOT
ATOM      1  C   UNL     1      47.449   5.739  13.865  0.00  0.00    +0.000 A 
ATOM      2  C   UNL     1      46.751   4.529  14.003  0.00  0.00    +0.000 A 
ATOM      3  C   UNL     1      46.842   3.786  15.182  0.00  0.00    +0.000 A 
ATOM      4  C   UNL     1      47.622   4.248  16.249  0.00  0.00    +0.000 A 
ATOM      5  C   UNL     1      48.287   5.475  16.124  0.00  0.00    +0.000 A 
ATOM      6  C   UNL     1      48.195   6.221  14.947  0.00  0.00    +0.000 A 
ENDROOT
BRANCH   1   7
ATOM      7  C   UNL     1      47.473   6.453  12.539  0.00  0.00    +0.000 C 
BRANCH   7   9
ATOM      8  C   UNL     1      46.589   8.781  13.019  0.00  0.00    +0.000 C 
ATOM      9  N   UNL     1      46.513   7.526  12.283  0.00  0.00    +0.000 N 
ATOM     10  C   UNL     1      45.386   7.376  11.448  0.00  0.00    +0.000 C 
ATOM     11  O   UNL     1      44.574   8.289  11.313  0.00  0.00    +0.000 OA
BRANCH  10  12
ATOM     12  C   UNL     1      45.150   6.096  10.753  0.00  0.00    +0.000 A 
ATOM     13  C   UNL     1      45.736   5.724   9.554  0.00  0.00    +0.000 A 
ATOM     14  S   UNL     1      45.310   4.154   9.036  0.00  0.00    +0.000 S 
ATOM     15  C   UNL     1      44.465   3.854  10.481  0.00  0.00    +0.000 A 
ATOM     16  N   UNL     1      43.939   2.628  10.740  0.00  0.00    +0.000 NA
ATOM     17  C   UNL     1      43.396   2.523  11.906  0.00  0.00    +0.000 A 
ATOM     18  N   UNL     1      43.298   3.543  12.819  0.00  0.00    +0.000 N 
ATOM     19  C   UNL     1      43.692   4.836  12.544  0.00  0.00    +0.000 A 
ATOM     20  O   UNL     1      43.377   5.761  13.283  0.00  0.00    +0.000 OA
ATOM     21  C   UNL     1      44.420   4.971  11.295  0.00  0.00    +0.000 A 
ATOM     22  H   UNL     1      42.802   3.411  13.686  0.00  0.00    +0.000 HD
ENDBRANCH  10  12
ENDBRANCH   7   9
ENDBRANCH   1   7
BRANCH   4  23
ATOM     23  C   UNL     1      47.778   3.420  17.496  0.00  0.00    +0.000 C 
BRANCH  23  24
ATOM     24  N   UNL     1      49.157   3.118  17.775  0.00  0.00    +0.000 N 
ATOM     25  C   UNL     1      49.852   2.214  17.007  0.00  0.00    +0.000 C 
ATOM     26  O   UNL     1      49.344   1.583  16.089  0.00  0.00    +0.000 OA
ATOM     27  H   UNL     1      49.677   3.612  18.495  0.00  0.00    +0.000 HD
BRANCH  25  28
ATOM     28  C   UNL     1      51.260   2.080  17.384  0.00  0.00    +0.000 A 
ATOM     29  C   UNL     1      52.082   3.090  17.844  0.00  0.00    +0.000 A 
ATOM     30  N   UNL     1      53.292   2.503  18.073  0.00  0.00    +0.000 N 
ATOM     31  C   UNL     1      53.177   1.180  17.753  0.00  0.00    +0.000 A 
ATOM     32  N   UNL     1      51.966   0.887  17.332  0.00  0.00    +0.000 NA
ATOM     33  H   UNL     1      54.126   2.960  18.419  0.00  0.00    +0.000 HD
ENDBRANCH  25  28
ENDBRANCH  23  24
ENDBRANCH   4  23
TORSDOF 6
ENDMDL
MODEL 2
REMARK VINA RESULT:    -7.793      1.620      2.308
REMARK INTER + INTRA:         -11.640
REMARK INTER:                 -10.423
REMARK INTRA:                  -1.217
REMARK UNBOUND:                -1.114
REMARK  Name = 
REMARK  7 active torsions:
REMARK  status: ('A' for Active; 'I' for Inactive)
REMARK    1  A    between atoms: C_1  and  N_2
REMARK    2  A    between atoms: N_2  and  C_3
REMARK    3  A    between atoms: C_3  and  C_4
REMARK    4  A    between atoms: C_7  and  C_8
REMARK    5  A    between atoms: C_8  and  N_9
REMARK    6  A    between atoms: C_10  and  C_12
REMARK    7  A    between atoms: C_19  and  C_21
REMARK                            x       y       z     vdW  Elec       q    Type
REMARK                         _______ _______ _______ _____ _____    ______ ____
ROOT
ATOM      1  C   UNL     1      47.357   5.886  13.737  0.00  0.00    +0.000 A 
ATOM      2  C   UNL     1      46.781   4.762  14.349  0.00  0.00    +0.000 A 
ATOM      3  C   UNL     1      47.157   4.386  15.641  0.00  0.00    +0.000 A 
ATOM      4  C   UNL     1      48.105   5.136  16.347  0.00  0.00    +0.000 A 
ATOM      5  C   UNL     1      48.650   6.280  15.748  0.00  0.00    +0.000 A 
ATOM      6  C   UNL     1      48.273   6.659  14.458  0.00  0.00    +0.000 A 
ENDROOT
BRANCH   1   7
ATOM      7  C   UNL     1      47.065   6.194  12.291  0.00  0.00    +0.000 C 
BRANCH   7   9
ATOM      8  C   UNL     1      46.182   8.567  12.153  0.00  0.00    +0.000 C 
ATOM      9  N   UNL     1      45.997   7.134  11.957  0.00  0.00    +0.000 N 
ATOM     10  C   UNL     1      44.698   6.733  11.584  0.00  0.00    +0.000 C 
ATOM     11  O   UNL     1      43.816   7.563  11.373  0.00  0.00    +0.000 OA
BRANCH  10  12
ATOM     12  C   UNL     1      44.373   5.298  11.479  0.00  0.00    +0.000 A 
ATOM     13  C   UNL     1      43.586   4.594  12.375  0.00  0.00    +0.000 A 
ATOM     14  S   UNL     1      43.342   2.959  11.945  0.00  0.00    +0.000 S 
ATOM     15  C   UNL     1      44.138   3.183  10.458  0.00  0.00    +0.000 A 
ATOM     16  N   UNL     1      44.186   2.185   9.537  0.00  0.00    +0.000 NA
ATOM     17  C   UNL     1      44.750   2.521   8.426  0.00  0.00    +0.000 A 
ATOM     18  N   UNL     1      45.306   3.749   8.170  0.00  0.00    +0.000 N 
ATOM     19  C   UNL     1      45.403   4.741   9.123  0.00  0.00    +0.000 A 
ATOM     20  O   UNL     1      46.108   5.727   8.937  0.00  0.00    +0.000 OA
ATOM     21  C   UNL     1      44.671   4.453  10.344  0.00  0.00    +0.000 A 
ATOM     22  H   UNL     1      45.791   3.924   7.304  0.00  0.00    +0.000 HD
ENDBRANCH  10  12
ENDBRANCH   7   9
ENDBRANCH   1   7
BRANCH   4  23
ATOM     23  C   UNL     1      48.564   4.698  17.711  0.00  0.00    +0.000 C 
BRANCH  23  24
ATOM     24  N   UNL     1      49.489   3.598  17.643  0.00  0.00    +0.000 N 
ATOM     25  C   UNL     1      50.845   3.810  17.723  0.00  0.00    +0.000 C 
ATOM     26  O   UNL     1      51.347   4.925  17.804  0.00  0.00    +0.000 OA
ATOM     27  H   UNL     1      49.172   2.633  17.608  0.00  0.00    +0.000 HD
BRANCH  25  28
ATOM     28  C   UNL     1      51.637   2.579  17.709  0.00  0.00    +0.000 A 
ATOM     29  C   UNL     1      51.181   1.319  17.369  0.00  0.00    +0.000 A 
ATOM     30  N   UNL     1      52.261   0.493  17.493  0.00  0.00    +0.000 N 
ATOM     31  C   UNL     1      53.321   1.255  17.895  0.00  0.00    +0.000 A 
ATOM     32  N   UNL     1      52.983   2.518  18.037  0.00  0.00    +0.000 NA
ATOM     33  H   UNL     1      52.278  -0.503  17.317  0.00  0.00    +0.000 HD
ENDBRANCH  25  28
ENDBRANCH  23  24
ENDBRANCH   4  23
TORSDOF 6
ENDMDL
MODEL 3
REMARK VINA RESULT:    -7.599      3.875      7.885
REMARK INTER + INTRA:         -11.378
REMARK INTER:                 -10.175
REMARK INTRA:                  -1.204
REMARK UNBOUND:                -1.114
REMARK  Name = 
REMARK  7 active torsions:
REMARK  status: ('A' for Active; 'I' for Inactive)
REMARK    1  A    between atoms: C_1  and  N_2
REMARK    2  A    between atoms: N_2  and  C_3
REMARK    3  A    between atoms: C_3  and  C_4
REMARK    4  A    between atoms: C_7  and  C_8
REMARK    5  A    between atoms: C_8  and  N_9
REMARK    6  A    between atoms: C_10  and  C_12
REMARK    7  A    between atoms: C_19  and  C_21
REMARK                            x       y       z     vdW  Elec       q    Type
REMARK                         _______ _______ _______ _____ _____    ______ ____
ROOT
ATOM      1  C   UNL     1      46.374   6.898  12.987  0.00  0.00    +0.000 A 
ATOM      2  C   UNL     1      45.474   7.136  11.936  0.00  0.00    +0.000 A 
ATOM      3  C   UNL     1      44.737   6.088  11.381  0.00  0.00    +0.000 A 
ATOM      4  C   UNL     1      44.876   4.786  11.876  0.00  0.00    +0.000 A 
ATOM      5  C   UNL     1      45.746   4.557  12.952  0.00  0.00    +0.000 A 
ATOM      6  C   UNL     1      46.482   5.604  13.510  0.00  0.00    +0.000 A 
ENDROOT
BRANCH   1   7
ATOM      7  C   UNL     1      47.279   7.999  13.474  0.00  0.00    +0.000 C 
BRANCH   7   9
ATOM      8  C   UNL     1      49.269   7.309  12.062  0.00  0.00    +0.000 C 
ATOM      9  N   UNL     1      48.723   7.880  13.287  0.00  0.00    +0.000 N 
ATOM     10  C   UNL     1      49.662   8.151  14.304  0.00  0.00    +0.000 C 
ATOM     11  O   UNL     1      50.865   7.975  14.117  0.00  0.00    +0.000 OA
BRANCH  10  12
ATOM     12  C   UNL     1      49.202   8.615  15.626  0.00  0.00    +0.000 A 
ATOM     13  C   UNL     1      49.002   9.940  15.977  0.00  0.00    +0.000 A 
ATOM     14  S   UNL     1      48.405  10.151  17.564  0.00  0.00    +0.000 S 
ATOM     15  C   UNL     1      48.231   8.472  17.773  0.00  0.00    +0.000 A 
ATOM     16  N   UNL     1      47.653   7.966  18.894  0.00  0.00    +0.000 NA
ATOM     17  C   UNL     1      47.515   6.683  18.881  0.00  0.00    +0.000 A 
ATOM     18  N   UNL     1      47.939   5.859  17.869  0.00  0.00    +0.000 N 
ATOM     19  C   UNL     1      48.653   6.315  16.781  0.00  0.00    +0.000 A 
ATOM     20  O   UNL     1      49.216   5.533  16.023  0.00  0.00    +0.000 OA
ATOM     21  C   UNL     1      48.722   7.763  16.692  0.00  0.00    +0.000 A 
ATOM     22  H   UNL     1      47.859   4.858  17.953  0.00  0.00    +0.000 HD
ENDBRANCH  10  12
ENDBRANCH   7   9
ENDBRANCH   1   7
BRANCH   4  23
ATOM     23  C   UNL     1      44.135   3.642  11.239  0.00  0.00    +0.000 C 
BRANCH  23  24
ATOM     24  N   UNL     1      44.969   2.896  10.332  0.00  0.00    +0.000 N 
ATOM     25  C   UNL     1      45.004   3.203   8.992  0.00  0.00    +0.000 C 
ATOM     26  O   UNL     1      44.309   4.074   8.484  0.00  0.00    +0.000 OA
ATOM     27  H   UNL     1      45.606   2.176  10.661  0.00  0.00    +0.000 HD
BRANCH  25  28
ATOM     28  C   UNL     1      45.955   2.394   8.228  0.00  0.00    +0.000 A 
ATOM     29  C   UNL     1      46.871   2.865   7.307  0.00  0.00    +0.000 A 
ATOM     30  N   UNL     1      47.541   1.763   6.860  0.00  0.00    +0.000 N 
ATOM     31  C   UNL     1      47.026   0.675   7.506  0.00  0.00    +0.000 A 
ATOM     32  N   UNL     1      46.067   1.016   8.339  0.00  0.00    +0.000 NA
ATOM     33  H   UNL     1      48.285   1.749   6.175  0.00  0.00    +0.000 HD
ENDBRANCH  25  28
ENDBRANCH  23  24
ENDBRANCH   4  23
TORSDOF 6
ENDMDL
MODEL 4
REMARK VINA RESULT:    -7.347      3.186      8.280
REMARK INTER + INTRA:         -11.038
REMARK INTER:                  -9.875
REMARK INTRA:                  -1.163
REMARK UNBOUND:                -1.114
REMARK  Name = 
REMARK  7 active torsions:
REMARK  status: ('A' for Active; 'I' for Inactive)
REMARK    1  A    between atoms: C_1  and  N_2
REMARK    2  A    between atoms: N_2  and  C_3
REMARK    3  A    between atoms: C_3  and  C_4
REMARK    4  A    between atoms: C_7  and  C_8
REMARK    5  A    between atoms: C_8  and  N_9
REMARK    6  A    between atoms: C_10  and  C_12
REMARK    7  A    between atoms: C_19  and  C_21
REMARK                            x       y       z     vdW  Elec       q    Type
REMARK                         _______ _______ _______ _____ _____    ______ ____
ROOT
ATOM      1  C   UNL     1      47.917   6.768  14.250  0.00  0.00    +0.000 A 
ATOM      2  C   UNL     1      47.497   7.899  13.533  0.00  0.00    +0.000 A 
ATOM      3  C   UNL     1      46.584   7.776  12.483  0.00  0.00    +0.000 A 
ATOM      4  C   UNL     1      46.065   6.522  12.142  0.00  0.00    +0.000 A 
ATOM      5  C   UNL     1      46.456   5.399  12.885  0.00  0.00    +0.000 A 
ATOM      6  C   UNL     1      47.366   5.521  13.937  0.00  0.00    +0.000 A 
ENDROOT
BRANCH   1   7
ATOM      7  C   UNL     1      49.016   6.886  15.274  0.00  0.00    +0.000 C 
BRANCH   7   9
ATOM      8  C   UNL     1      48.875   8.940  16.755  0.00  0.00    +0.000 C 
ATOM      9  N   UNL     1      48.731   7.501  16.569  0.00  0.00    +0.000 N 
ATOM     10  C   UNL     1      48.459   6.760  17.737  0.00  0.00    +0.000 C 
ATOM     11  O   UNL     1      48.287   7.323  18.817  0.00  0.00    +0.000 OA
BRANCH  10  12
ATOM     12  C   UNL     1      48.416   5.286  17.681  0.00  0.00    +0.000 A 
ATOM     13  C   UNL     1      47.275   4.534  17.454  0.00  0.00    +0.000 A 
ATOM     14  S   UNL     1      47.561   2.851  17.384  0.00  0.00    +0.000 S 
ATOM     15  C   UNL     1      49.243   3.085  17.484  0.00  0.00    +0.000 A 
ATOM     16  N   UNL     1      50.100   2.037  17.364  0.00  0.00    +0.000 NA
ATOM     17  C   UNL     1      51.346   2.372  17.379  0.00  0.00    +0.000 A 
ATOM     18  N   UNL     1      51.811   3.653  17.543  0.00  0.00    +0.000 N 
ATOM     19  C   UNL     1      50.983   4.723  17.807  0.00  0.00    +0.000 A 
ATOM     20  O   UNL     1      51.440   5.797  18.180  0.00  0.00    +0.000 OA
ATOM     21  C   UNL     1      49.570   4.415  17.675  0.00  0.00    +0.000 A 
ATOM     22  H   UNL     1      52.800   3.836  17.612  0.00  0.00    +0.000 HD
ENDBRANCH  10  12
ENDBRANCH   7   9
ENDBRANCH   1   7
BRANCH   4  23
ATOM     23  C   UNL     1      45.134   6.373  10.970  0.00  0.00    +0.000 C 
BRANCH  23  24
ATOM     24  N   UNL     1      45.681   5.516   9.950  0.00  0.00    +0.000 N 
ATOM     25  C   UNL     1      44.980   4.424   9.495  0.00  0.00    +0.000 C 
ATOM     26  O   UNL     1      43.894   4.086   9.950  0.00  0.00    +0.000 OA
ATOM     27  H   UNL     1      46.559   5.730   9.487  0.00  0.00    +0.000 HD
BRANCH  25  28
ATOM     28  C   UNL     1      45.649   3.705   8.409  0.00  0.00    +0.000 A 
ATOM     29  C   UNL     1      45.810   2.337   8.314  0.00  0.00    +0.000 A 
ATOM     30  N   UNL     1      46.478   2.126   7.143  0.00  0.00    +0.000 N 
ATOM     31  C   UNL     1      46.700   3.346   6.569  0.00  0.00    +0.000 A 
ATOM     32  N   UNL     1      46.215   4.323   7.304  0.00  0.00    +0.000 NA
ATOM     33  H   UNL     1      46.758   1.232   6.764  0.00  0.00    +0.000 HD
ENDBRANCH  25  28
ENDBRANCH  23  24
ENDBRANCH   4  23
TORSDOF 6
ENDMDL
MODEL 5
REMARK VINA RESULT:    -6.979      3.315      8.109
REMARK INTER + INTRA:         -10.541
REMARK INTER:                  -9.345
REMARK INTRA:                  -1.195
REMARK UNBOUND:                -1.114
REMARK  Name = 
REMARK  7 active torsions:
REMARK  status: ('A' for Active; 'I' for Inactive)
REMARK    1  A    between atoms: C_1  and  N_2
REMARK    2  A    between atoms: N_2  and  C_3
REMARK    3  A    between atoms: C_3  and  C_4
REMARK    4  A    between atoms: C_7  and  C_8
REMARK    5  A    between atoms: C_8  and  N_9
REMARK    6  A    between atoms: C_10  and  C_12
REMARK    7  A    between atoms: C_19  and  C_21
REMARK                            x       y       z     vdW  Elec       q    Type
REMARK                         _______ _______ _______ _____ _____    ______ ____
ROOT
ATOM      1  C   UNL     1      48.254   7.736  14.426  0.00  0.00    +0.000 A 
ATOM      2  C   UNL     1      47.943   6.418  14.057  0.00  0.00    +0.000 A 
ATOM      3  C   UNL     1      46.954   6.161  13.105  0.00  0.00    +0.000 A 
ATOM      4  C   UNL     1      46.268   7.219  12.495  0.00  0.00    +0.000 A 
ATOM      5  C   UNL     1      46.608   8.535  12.837  0.00  0.00    +0.000 A 
ATOM      6  C   UNL     1      47.599   8.794  13.786  0.00  0.00    +0.000 A 
ENDROOT
BRANCH   1   7
ATOM      7  C   UNL     1      49.207   8.000  15.562  0.00  0.00    +0.000 C 
BRANCH   7   9
ATOM      8  C   UNL     1      47.838   9.256  17.288  0.00  0.00    +0.000 C 
ATOM      9  N   UNL     1      48.688   8.129  16.922  0.00  0.00    +0.000 N 
ATOM     10  C   UNL     1      49.083   7.293  17.987  0.00  0.00    +0.000 C 
ATOM     11  O   UNL     1      48.664   7.482  19.127  0.00  0.00    +0.000 OA
BRANCH  10  12
ATOM     12  C   UNL     1      50.040   6.197  17.746  0.00  0.00    +0.000 A 
ATOM     13  C   UNL     1      51.407   6.276  17.957  0.00  0.00    +0.000 A 
ATOM     14  S   UNL     1      52.239   4.817  17.644  0.00  0.00    +0.000 S 
ATOM     15  C   UNL     1      50.779   3.985  17.381  0.00  0.00    +0.000 A 
ATOM     16  N   UNL     1      50.769   2.642  17.174  0.00  0.00    +0.000 NA
ATOM     17  C   UNL     1      49.588   2.134  17.070  0.00  0.00    +0.000 A 
ATOM     18  N   UNL     1      48.420   2.852  17.113  0.00  0.00    +0.000 N 
ATOM     19  C   UNL     1      48.388   4.229  17.181  0.00  0.00    +0.000 A 
ATOM     20  O   UNL     1      47.348   4.846  16.981  0.00  0.00    +0.000 OA
ATOM     21  C   UNL     1      49.686   4.832  17.426  0.00  0.00    +0.000 A 
ATOM     22  H   UNL     1      47.532   2.400  16.958  0.00  0.00    +0.000 HD
ENDBRANCH  10  12
ENDBRANCH   7   9
ENDBRANCH   1   7
BRANCH   4  23
ATOM     23  C   UNL     1      45.156   6.947  11.520  0.00  0.00    +0.000 C 
BRANCH  23  24
ATOM     24  N   UNL     1      45.532   5.973  10.528  0.00  0.00    +0.000 N 
ATOM     25  C   UNL     1      44.699   4.924  10.218  0.00  0.00    +0.000 C 
ATOM     26  O   UNL     1      43.632   4.723  10.785  0.00  0.00    +0.000 OA
ATOM     27  H   UNL     1      46.381   6.070   9.980  0.00  0.00    +0.000 HD
BRANCH  25  28
ATOM     28  C   UNL     1      45.202   4.071   9.141  0.00  0.00    +0.000 A 
ATOM     29  C   UNL     1      45.144   2.691   9.097  0.00  0.00    +0.000 A 
ATOM     30  N   UNL     1      45.722   2.337   7.912  0.00  0.00    +0.000 N 
ATOM     31  C   UNL     1      46.109   3.485   7.281  0.00  0.00    +0.000 A 
ATOM     32  N   UNL     1      45.813   4.551   7.992  0.00  0.00    +0.000 NA
ATOM     33  H   UNL     1      45.843   1.396   7.561  0.00  0.00    +0.000 HD
ENDBRANCH  25  28
ENDBRANCH  23  24
ENDBRANCH   4  23
TORSDOF 6
ENDMDL
MODEL 6
REMARK VINA RESULT:    -6.735      3.896      8.181
REMARK INTER + INTRA:         -10.211
REMARK INTER:                  -9.098
REMARK INTRA:                  -1.113
REMARK UNBOUND:                -1.114
REMARK  Name = 
REMARK  7 active torsions:
REMARK  status: ('A' for Active; 'I' for Inactive)
REMARK    1  A    between atoms: C_1  and  N_2
REMARK    2  A    between atoms: N_2  and  C_3
REMARK    3  A    between atoms: C_3  and  C_4
REMARK    4  A    between atoms: C_7  and  C_8
REMARK    5  A    between atoms: C_8  and  N_9
REMARK    6  A    between atoms: C_10  and  C_12
REMARK    7  A    between atoms: C_19  and  C_21
REMARK                            x       y       z     vdW  Elec       q    Type
REMARK                         _______ _______ _______ _____ _____    ______ ____
ROOT
ATOM      1  C   UNL     1      47.425   8.376  13.637  0.00  0.00    +0.000 A 
ATOM      2  C   UNL     1      47.494   6.976  13.568  0.00  0.00    +0.000 A 
ATOM      3  C   UNL     1      46.588   6.257  12.785  0.00  0.00    +0.000 A 
ATOM      4  C   UNL     1      45.607   6.928  12.045  0.00  0.00    +0.000 A 
ATOM      5  C   UNL     1      45.564   8.328  12.084  0.00  0.00    +0.000 A 
ATOM      6  C   UNL     1      46.471   9.048  12.865  0.00  0.00    +0.000 A 
ENDROOT
BRANCH   1   7
ATOM      7  C   UNL     1      48.300   9.131  14.603  0.00  0.00    +0.000 C 
BRANCH   7   9
ATOM      8  C   UNL     1      50.548   8.760  13.488  0.00  0.00    +0.000 C 
ATOM      9  N   UNL     1      49.723   8.807  14.689  0.00  0.00    +0.000 N 
ATOM     10  C   UNL     1      50.350   8.375  15.876  0.00  0.00    +0.000 C 
ATOM     11  O   UNL     1      51.537   8.054  15.884  0.00  0.00    +0.000 OA
BRANCH  10  12
ATOM     12  C   UNL     1      49.569   8.268  17.123  0.00  0.00    +0.000 A 
ATOM     13  C   UNL     1      49.359   9.302  18.020  0.00  0.00    +0.000 A 
ATOM     14  S   UNL     1      48.359   8.880  19.339  0.00  0.00    +0.000 S 
ATOM     15  C   UNL     1      48.035   7.352  18.666  0.00  0.00    +0.000 A 
ATOM     16  N   UNL     1      47.140   6.510  19.247  0.00  0.00    +0.000 NA
ATOM     17  C   UNL     1      46.935   5.422  18.585  0.00  0.00    +0.000 A 
ATOM     18  N   UNL     1      47.574   5.082  17.419  0.00  0.00    +0.000 N 
ATOM     19  C   UNL     1      48.587   5.840  16.870  0.00  0.00    +0.000 A 
ATOM     20  O   UNL     1      49.290   5.396  15.970  0.00  0.00    +0.000 OA
ATOM     21  C   UNL     1      48.763   7.131  17.511  0.00  0.00    +0.000 A 
ATOM     22  H   UNL     1      47.415   4.185  16.988  0.00  0.00    +0.000 HD
ENDBRANCH  10  12
ENDBRANCH   7   9
ENDBRANCH   1   7
BRANCH   4  23
ATOM     23  C   UNL     1      44.587   6.156  11.253  0.00  0.00    +0.000 C 
BRANCH  23  24
ATOM     24  N   UNL     1      45.198   5.323  10.250  0.00  0.00    +0.000 N 
ATOM     25  C   UNL     1      44.583   4.172   9.819  0.00  0.00    +0.000 C 
ATOM     26  O   UNL     1      43.526   3.760  10.282  0.00  0.00    +0.000 OA
ATOM     27  H   UNL     1      46.058   5.594   9.782  0.00  0.00    +0.000 HD
BRANCH  25  28
ATOM     28  C   UNL     1      45.305   3.484   8.747  0.00  0.00    +0.000 A 
ATOM     29  C   UNL     1      45.601   2.135   8.697  0.00  0.00    +0.000 A 
ATOM     30  N   UNL     1      46.271   1.950   7.522  0.00  0.00    +0.000 N 
ATOM     31  C   UNL     1      46.362   3.165   6.902  0.00  0.00    +0.000 A 
ATOM     32  N   UNL     1      45.792   4.114   7.612  0.00  0.00    +0.000 NA
ATOM     33  H   UNL     1      46.633   1.075   7.169  0.00  0.00    +0.000 HD
ENDBRANCH  25  28
ENDBRANCH  23  24
ENDBRANCH   4  23
TORSDOF 6
ENDMDL
MODEL 7
REMARK VINA RESULT:    -6.316      2.302      3.213
REMARK INTER + INTRA:          -9.645
REMARK INTER:                  -8.823
REMARK INTRA:                  -0.821
REMARK UNBOUND:                -1.114
REMARK  Name = 
REMARK  7 active torsions:
REMARK  status: ('A' for Active; 'I' for Inactive)
REMARK    1  A    between atoms: C_1  and  N_2
REMARK    2  A    between atoms: N_2  and  C_3
REMARK    3  A    between atoms: C_3  and  C_4
REMARK    4  A    between atoms: C_7  and  C_8
REMARK    5  A    between atoms: C_8  and  N_9
REMARK    6  A    between atoms: C_10  and  C_12
REMARK    7  A    between atoms: C_19  and  C_21
REMARK                            x       y       z     vdW  Elec       q    Type
REMARK                         _______ _______ _______ _____ _____    ______ ____
ROOT
ATOM      1  C   UNL     1      48.177   6.666  13.373  0.00  0.00    +0.000 A 
ATOM      2  C   UNL     1      48.011   6.272  14.710  0.00  0.00    +0.000 A 
ATOM      3  C   UNL     1      49.010   6.523  15.653  0.00  0.00    +0.000 A 
ATOM      4  C   UNL     1      50.186   7.185  15.279  0.00  0.00    +0.000 A 
ATOM      5  C   UNL     1      50.332   7.612  13.951  0.00  0.00    +0.000 A 
ATOM      6  C   UNL     1      49.333   7.364  13.008  0.00  0.00    +0.000 A 
ENDROOT
BRANCH   1   7
ATOM      7  C   UNL     1      47.169   6.254  12.332  0.00  0.00    +0.000 C 
BRANCH   7   9
ATOM      8  C   UNL     1      46.330   8.633  12.069  0.00  0.00    +0.000 C 
ATOM      9  N   UNL     1      46.128   7.197  11.926  0.00  0.00    +0.000 N 
ATOM     10  C   UNL     1      44.834   6.800  11.527  0.00  0.00    +0.000 C 
ATOM     11  O   UNL     1      43.974   7.635  11.254  0.00  0.00    +0.000 OA
BRANCH  10  12
ATOM     12  C   UNL     1      44.489   5.367  11.470  0.00  0.00    +0.000 A 
ATOM     13  C   UNL     1      43.713   4.699  12.403  0.00  0.00    +0.000 A 
ATOM     14  S   UNL     1      43.440   3.056  12.025  0.00  0.00    +0.000 S 
ATOM     15  C   UNL     1      44.205   3.227  10.515  0.00  0.00    +0.000 A 
ATOM     16  N   UNL     1      44.219   2.204   9.622  0.00  0.00    +0.000 NA
ATOM     17  C   UNL     1      44.763   2.501   8.490  0.00  0.00    +0.000 A 
ATOM     18  N   UNL     1      45.329   3.714   8.187  0.00  0.00    +0.000 N 
ATOM     19  C   UNL     1      45.460   4.731   9.109  0.00  0.00    +0.000 A 
ATOM     20  O   UNL     1      46.172   5.702   8.879  0.00  0.00    +0.000 OA
ATOM     21  C   UNL     1      44.752   4.487  10.353  0.00  0.00    +0.000 A 
ATOM     22  H   UNL     1      45.796   3.858   7.306  0.00  0.00    +0.000 HD
ENDBRANCH  10  12
ENDBRANCH   7   9
ENDBRANCH   1   7
BRANCH   4  23
ATOM     23  C   UNL     1      51.293   7.398  16.274  0.00  0.00    +0.000 C 
BRANCH  23  24
ATOM     24  N   UNL     1      51.577   6.207  17.031  0.00  0.00    +0.000 N 
ATOM     25  C   UNL     1      52.815   5.611  16.971  0.00  0.00    +0.000 C 
ATOM     26  O   UNL     1      53.720   6.013  16.250  0.00  0.00    +0.000 OA
ATOM     27  H   UNL     1      50.904   5.814  17.683  0.00  0.00    +0.000 HD
BRANCH  25  28
ATOM     28  C   UNL     1      52.955   4.453  17.855  0.00  0.00    +0.000 A 
ATOM     29  C   UNL     1      52.066   3.401  17.970  0.00  0.00    +0.000 A 
ATOM     30  N   UNL     1      52.609   2.562  18.899  0.00  0.00    +0.000 N 
ATOM     31  C   UNL     1      53.788   3.113  19.316  0.00  0.00    +0.000 A 
ATOM     32  N   UNL     1      54.029   4.254  18.709  0.00  0.00    +0.000 NA
ATOM     33  H   UNL     1      52.215   1.688  19.222  0.00  0.00    +0.000 HD
ENDBRANCH  25  28
ENDBRANCH  23  24
ENDBRANCH   4  23
TORSDOF 6
ENDMDL
MODEL 8
REMARK VINA RESULT:    -6.197      3.724      8.813
REMARK INTER + INTRA:          -9.484
REMARK INTER:                  -9.239
REMARK INTRA:                  -0.246
REMARK UNBOUND:                -1.114
REMARK  Name = 
REMARK  7 active torsions:
REMARK  status: ('A' for Active; 'I' for Inactive)
REMARK    1  A    between atoms: C_1  and  N_2
REMARK    2  A    between atoms: N_2  and  C_3
REMARK    3  A    between atoms: C_3  and  C_4
REMARK    4  A    between atoms: C_7  and  C_8
REMARK    5  A    between atoms: C_8  and  N_9
REMARK    6  A    between atoms: C_10  and  C_12
REMARK    7  A    between atoms: C_19  and  C_21
REMARK                            x       y       z     vdW  Elec       q    Type
REMARK                         _______ _______ _______ _____ _____    ______ ____
ROOT
ATOM      1  C   UNL     1      46.809   5.335  13.666  0.00  0.00    +0.000 A 
ATOM      2  C   UNL     1      46.152   6.349  12.951  0.00  0.00    +0.000 A 
ATOM      3  C   UNL     1      45.263   6.030  11.922  0.00  0.00    +0.000 A 
ATOM      4  C   UNL     1      45.004   4.693  11.601  0.00  0.00    +0.000 A 
ATOM      5  C   UNL     1      45.631   3.682  12.342  0.00  0.00    +0.000 A 
ATOM      6  C   UNL     1      46.518   3.998  13.373  0.00  0.00    +0.000 A 
ENDROOT
BRANCH   1   7
ATOM      7  C   UNL     1      47.881   5.686  14.665  0.00  0.00    +0.000 C 
BRANCH   7   9
ATOM      8  C   UNL     1      46.950   3.988  16.303  0.00  0.00    +0.000 C 
ATOM      9  N   UNL     1      47.827   5.115  16.009  0.00  0.00    +0.000 N 
ATOM     10  C   UNL     1      48.474   5.689  17.123  0.00  0.00    +0.000 C 
ATOM     11  O   UNL     1      48.347   5.205  18.246  0.00  0.00    +0.000 OA
BRANCH  10  12
ATOM     12  C   UNL     1      49.287   6.908  16.954  0.00  0.00    +0.000 A 
ATOM     13  C   UNL     1      48.783   8.197  16.900  0.00  0.00    +0.000 A 
ATOM     14  S   UNL     1      49.985   9.403  16.760  0.00  0.00    +0.000 S 
ATOM     15  C   UNL     1      51.226   8.254  16.941  0.00  0.00    +0.000 A 
ATOM     16  N   UNL     1      52.526   8.640  17.028  0.00  0.00    +0.000 NA
ATOM     17  C   UNL     1      53.350   7.671  17.243  0.00  0.00    +0.000 A 
ATOM     18  N   UNL     1      52.996   6.348  17.339  0.00  0.00    +0.000 N 
ATOM     19  C   UNL     1      51.711   5.898  17.119  0.00  0.00    +0.000 A 
ATOM     20  O   UNL     1      51.477   4.703  16.979  0.00  0.00    +0.000 OA
ATOM     21  C   UNL     1      50.731   6.964  16.998  0.00  0.00    +0.000 A 
ATOM     22  H   UNL     1      53.699   5.634  17.442  0.00  0.00    +0.000 HD
ENDBRANCH  10  12
ENDBRANCH   7   9
ENDBRANCH   1   7
BRANCH   4  23
ATOM     23  C   UNL     1      44.099   4.344  10.450  0.00  0.00    +0.000 C 
BRANCH  23  24
ATOM     24  N   UNL     1      44.735   3.457   9.512  0.00  0.00    +0.000 N 
ATOM     25  C   UNL     1      45.595   3.941   8.555  0.00  0.00    +0.000 C 
ATOM     26  O   UNL     1      45.834   5.133   8.406  0.00  0.00    +0.000 OA
ATOM     27  H   UNL     1      44.627   2.448   9.572  0.00  0.00    +0.000 HD
BRANCH  25  28
ATOM     28  C   UNL     1      46.207   2.897   7.731  0.00  0.00    +0.000 A 
ATOM     29  C   UNL     1      46.721   3.057   6.458  0.00  0.00    +0.000 A 
ATOM     30  N   UNL     1      47.188   1.828   6.094  0.00  0.00    +0.000 N 
ATOM     31  C   UNL     1      46.952   0.971   7.131  0.00  0.00    +0.000 A 
ATOM     32  N   UNL     1      46.361   1.579   8.136  0.00  0.00    +0.000 NA
ATOM     33  H   UNL     1      47.632   1.590   5.216  0.00  0.00    +0.000 HD
ENDBRANCH  25  28
ENDBRANCH  23  24
ENDBRANCH   4  23
TORSDOF 6
ENDMDL
MODEL 9
REMARK VINA RESULT:    -6.105      3.487      7.998
REMARK INTER + INTRA:          -9.360
REMARK INTER:                  -8.030
REMARK INTRA:                  -1.330
REMARK UNBOUND:                -1.114
REMARK  Name = 
REMARK  7 active torsions:
REMARK  status: ('A' for Active; 'I' for Inactive)
REMARK    1  A    between atoms: C_1  and  N_2
REMARK    2  A    between atoms: N_2  and  C_3
REMARK    3  A    between atoms: C_3  and  C_4
REMARK    4  A    between atoms: C_7  and  C_8
REMARK    5  A    between atoms: C_8  and  N_9
REMARK    6  A    between atoms: C_10  and  C_12
REMARK    7  A    between atoms: C_19  and  C_21
REMARK                            x       y       z     vdW  Elec       q    Type
REMARK                         _______ _______ _______ _____ _____    ______ ____
ROOT
ATOM      1  C   UNL     1      49.745   8.249  14.558  0.00  0.00    +0.000 A 
ATOM      2  C   UNL     1      49.217   6.953  14.448  0.00  0.00    +0.000 A 
ATOM      3  C   UNL     1      48.340   6.629  13.411  0.00  0.00    +0.000 A 
ATOM      4  C   UNL     1      47.988   7.591  12.457  0.00  0.00    +0.000 A 
ATOM      5  C   UNL     1      48.548   8.874  12.546  0.00  0.00    +0.000 A 
ATOM      6  C   UNL     1      49.427   9.198  13.581  0.00  0.00    +0.000 A 
ENDROOT
BRANCH   1   7
ATOM      7  C   UNL     1      50.562   8.634  15.764  0.00  0.00    +0.000 C 
BRANCH   7   9
ATOM      8  C   UNL     1      49.217   9.937  17.473  0.00  0.00    +0.000 C 
ATOM      9  N   UNL     1      49.917   8.723  17.072  0.00  0.00    +0.000 N 
ATOM     10  C   UNL     1      50.052   7.739  18.074  0.00  0.00    +0.000 C 
ATOM     11  O   UNL     1      49.540   7.890  19.181  0.00  0.00    +0.000 OA
BRANCH  10  12
ATOM     12  C   UNL     1      50.848   6.526  17.810  0.00  0.00    +0.000 A 
ATOM     13  C   UNL     1      52.226   6.438  17.929  0.00  0.00    +0.000 A 
ATOM     14  S   UNL     1      52.848   4.879  17.615  0.00  0.00    +0.000 S 
ATOM     15  C   UNL     1      51.282   4.230  17.478  0.00  0.00    +0.000 A 
ATOM     16  N   UNL     1      51.093   2.893  17.320  0.00  0.00    +0.000 NA
ATOM     17  C   UNL     1      49.854   2.534  17.311  0.00  0.00    +0.000 A 
ATOM     18  N   UNL     1      48.788   3.394  17.404  0.00  0.00    +0.000 N 
ATOM     19  C   UNL     1      48.931   4.766  17.425  0.00  0.00    +0.000 A 
ATOM     20  O   UNL     1      47.964   5.503  17.271  0.00  0.00    +0.000 OA
ATOM     21  C   UNL     1      50.308   5.208  17.563  0.00  0.00    +0.000 A 
ATOM     22  H   UNL     1      47.843   3.053  17.323  0.00  0.00    +0.000 HD
ENDBRANCH  10  12
ENDBRANCH   7   9
ENDBRANCH   1   7
BRANCH   4  23
ATOM     23  C   UNL     1      46.993   7.268  11.376  0.00  0.00    +0.000 C 
BRANCH  23  24
ATOM     24  N   UNL     1      46.155   6.152  11.728  0.00  0.00    +0.000 N 
ATOM     25  C   UNL     1      45.638   5.324  10.760  0.00  0.00    +0.000 C 
ATOM     26  O   UNL     1      45.808   5.505   9.561  0.00  0.00    +0.000 OA
ATOM     27  H   UNL     1      45.981   5.899  12.697  0.00  0.00    +0.000 HD
BRANCH  25  28
ATOM     28  C   UNL     1      44.868   4.200  11.295  0.00  0.00    +0.000 A 
ATOM     29  C   UNL     1      45.220   3.410  12.373  0.00  0.00    +0.000 A 
ATOM     30  N   UNL     1      44.208   2.504  12.509  0.00  0.00    +0.000 N 
ATOM     31  C   UNL     1      43.288   2.762  11.533  0.00  0.00    +0.000 A 
ATOM     32  N   UNL     1      43.652   3.777  10.781  0.00  0.00    +0.000 NA
ATOM     33  H   UNL     1      44.145   1.774  13.206  0.00  0.00    +0.000 HD
ENDBRANCH  25  28
ENDBRANCH  23  24
ENDBRANCH   4  23
TORSDOF 6
ENDMDL
