MODEL 1
REMARK VINA RESULT:    -8.110      0.000      0.000
REMARK INTER + INTRA:         -12.027
REMARK INTER:                 -11.191
REMARK INTRA:                  -0.836
REMARK UNBOUND:                -0.836
REMARK  Name = 
REMARK  8 active torsions:
REMARK  status: ('A' for Active; 'I' for Inactive)
REMARK    1  A    between atoms: C_1  and  C_2
REMARK    2  A    between atoms: C_2  and  N_3
REMARK    3  A    between atoms: C_2  and  C_19
REMARK    4  A    between atoms: N_3  and  C_4
REMARK    5  A    between atoms: C_7  and  C_8
REMARK    6  A    between atoms: C_8  and  O_9
REMARK    7  A    between atoms: C_8  and  C_10
REMARK    8  A    between atoms: C_10  and  C_11
REMARK                            x       y       z     vdW  Elec       q    Type
REMARK                         _______ _______ _______ _____ _____    ______ ____
ROOT
ATOM      1  C   UNL     1      46.442   6.063  13.261  0.00  0.00    +0.000 A 
ATOM      2  C   UNL     1      46.110   6.411  11.952  0.00  0.00    +0.000 A 
ATOM      3  C   UNL     1      45.384   5.536  11.141  0.00  0.00    +0.000 A 
ATOM      4  C   UNL     1      44.985   4.310  11.663  0.00  0.00    +0.000 A 
ATOM      5  N   UNL     1      45.347   3.912  12.906  0.00  0.00    +0.000 NA
ATOM      6  C   UNL     1      46.045   4.792  13.663  0.00  0.00    +0.000 A 
ENDROOT
BRANCH   1   7
ATOM      7  N   UNL     1      47.214   6.920  14.011  0.00  0.00    +0.000 N 
ATOM      8  H   UNL     1      46.785   7.790  14.339  0.00  0.00    +0.000 HD
BRANCH   7  10
ATOM      9  C   UNL     1      49.556   7.353  13.703  0.00  0.00    +0.000 C 
ATOM     10  C   UNL     1      48.524   6.608  14.555  0.00  0.00    +0.000 C 
BRANCH  10  11
ATOM     11  C   UNL     1      48.711   6.809  16.048  0.00  0.00    +0.000 A 
ATOM     12  C   UNL     1      48.937   8.065  16.596  0.00  0.00    +0.000 A 
ATOM     13  S   UNL     1      49.271   8.029  18.268  0.00  0.00    +0.000 S 
ATOM     14  C   UNL     1      49.121   6.336  18.320  0.00  0.00    +0.000 A 
ATOM     15  N   UNL     1      49.341   5.653  19.479  0.00  0.00    +0.000 NA
ATOM     16  C   UNL     1      49.208   4.375  19.371  0.00  0.00    +0.000 A 
ATOM     17  N   UNL     1      48.844   3.719  18.222  0.00  0.00    +0.000 N 
ATOM     18  C   UNL     1      48.565   4.367  17.045  0.00  0.00    +0.000 A 
ATOM     19  O   UNL     1      48.149   3.754  16.054  0.00  0.00    +0.000 OA
ATOM     20  C   UNL     1      48.768   5.805  17.092  0.00  0.00    +0.000 A 
ATOM     21  H   UNL     1      48.718   2.716  18.224  0.00  0.00    +0.000 HD
ENDBRANCH  10  11
ENDBRANCH   7  10
ENDBRANCH   1   7
BRANCH   4  22
ATOM     22  C   UNL     1      44.191   3.326  10.821  0.00  0.00    +0.000 C 
BRANCH  22  23
ATOM     23  O   UNL     1      42.848   3.283  11.321  0.00  0.00    +0.000 OA
ATOM     24  H   UNL     1      42.558   2.356  11.243  0.00  0.00    +0.000 HD
ENDBRANCH  22  23
BRANCH  22  25
ATOM     25  C   UNL     1      44.183   3.762   9.348  0.00  0.00    +0.000 C 
BRANCH  25  26
ATOM     26  C   UNL     1      45.262   3.092   8.547  0.00  0.00    +0.000 A 
ATOM     27  C   UNL     1      45.556   1.744   8.742  0.00  0.00    +0.000 A 
ATOM     28  N   UNL     1      46.490   1.083   8.023  0.00  0.00    +0.000 NA
ATOM     29  C   UNL     1      47.137   1.830   7.100  0.00  0.00    +0.000 A 
ATOM     30  C   UNL     1      46.865   3.175   6.911  0.00  0.00    +0.000 A 
ATOM     31  N   UNL     1      45.924   3.836   7.625  0.00  0.00    +0.000 NA
ENDBRANCH  25  26
ENDBRANCH  22  25
ENDBRANCH   4  22
TORSDOF 7
ENDMDL
MODEL 2
REMARK VINA RESULT:    -7.459      1.880      2.592
REMARK INTER + INTRA:         -11.130
REMARK INTER:                 -10.134
REMARK INTRA:                  -0.996
REMARK UNBOUND:                -0.836
REMARK  Name = 
REMARK  8 active torsions:
REMARK  status: ('A' for Active; 'I' for Inactive)
REMARK    1  A    between atoms: C_1  and  C_2
REMARK    2  A    between atoms: C_2  and  N_3
REMARK    3  A    between atoms: C_2  and  C_19
REMARK    4  A    between atoms: N_3  and  C_4
REMARK    5  A    between atoms: C_7  and  C_8
REMARK    6  A    between atoms: C_8  and  O_9
REMARK    7  A    between atoms: C_8  and  C_10
REMARK    8  A    between atoms: C_10  and  C_11
REMARK                            x       y       z     vdW  Elec       q    Type
REMARK                         _______ _______ _______ _____ _____    ______ ____
ROOT
ATOM      1  C   UNL     1      46.615   6.060  13.222  0.00  0.00    +0.000 A 
ATOM      2  C   UNL     1      46.437   4.734  13.616  0.00  0.00    +0.000 A 
ATOM      3  C   UNL     1      45.639   3.865  12.868  0.00  0.00    +0.000 A 
ATOM      4  C   UNL     1      45.029   4.341  11.712  0.00  0.00    +0.000 A 
ATOM      5  N   UNL     1      45.125   5.639  11.337  0.00  0.00    +0.000 NA
ATOM      6  C   UNL     1      45.914   6.447  12.084  0.00  0.00    +0.000 A 
ENDROOT
BRANCH   1   7
ATOM      7  N   UNL     1      47.355   6.906  14.017  0.00  0.00    +0.000 N 
ATOM      8  H   UNL     1      46.892   7.739  14.390  0.00  0.00    +0.000 HD
BRANCH   7  10
ATOM      9  C   UNL     1      49.688   7.338  13.645  0.00  0.00    +0.000 C 
ATOM     10  C   UNL     1      48.677   6.617  14.542  0.00  0.00    +0.000 C 
BRANCH  10  11
ATOM     11  C   UNL     1      48.894   6.866  16.023  0.00  0.00    +0.000 A 
ATOM     12  C   UNL     1      49.339   5.866  16.878  0.00  0.00    +0.000 A 
ATOM     13  S   UNL     1      49.361   6.331  18.518  0.00  0.00    +0.000 S 
ATOM     14  C   UNL     1      48.782   7.886  18.146  0.00  0.00    +0.000 A 
ATOM     15  N   UNL     1      48.527   8.789  19.134  0.00  0.00    +0.000 NA
ATOM     16  C   UNL     1      48.079   9.921  18.710  0.00  0.00    +0.000 A 
ATOM     17  N   UNL     1      47.892  10.246  17.391  0.00  0.00    +0.000 N 
ATOM     18  C   UNL     1      48.180   9.387  16.359  0.00  0.00    +0.000 A 
ATOM     19  O   UNL     1      48.089   9.745  15.178  0.00  0.00    +0.000 OA
ATOM     20  C   UNL     1      48.624   8.070  16.783  0.00  0.00    +0.000 A 
ATOM     21  H   UNL     1      47.575  11.170  17.131  0.00  0.00    +0.000 HD
ENDBRANCH  10  11
ENDBRANCH   7  10
ENDBRANCH   1   7
BRANCH   4  22
ATOM     22  C   UNL     1      44.153   3.434  10.864  0.00  0.00    +0.000 C 
BRANCH  22  23
ATOM     23  O   UNL     1      42.814   3.495  11.372  0.00  0.00    +0.000 OA
ATOM     24  H   UNL     1      42.894   3.589  12.338  0.00  0.00    +0.000 HD
ENDBRANCH  22  23
BRANCH  22  25
ATOM     25  C   UNL     1      44.173   3.888   9.397  0.00  0.00    +0.000 C 
BRANCH  25  26
ATOM     26  C   UNL     1      45.241   3.198   8.598  0.00  0.00    +0.000 A 
ATOM     27  C   UNL     1      45.512   1.845   8.798  0.00  0.00    +0.000 A 
ATOM     28  N   UNL     1      46.434   1.166   8.081  0.00  0.00    +0.000 NA
ATOM     29  C   UNL     1      47.094   1.898   7.156  0.00  0.00    +0.000 A 
ATOM     30  C   UNL     1      46.845   3.247   6.962  0.00  0.00    +0.000 A 
ATOM     31  N   UNL     1      45.916   3.927   7.673  0.00  0.00    +0.000 NA
ENDBRANCH  25  26
ENDBRANCH  22  25
ENDBRANCH   4  22
TORSDOF 7
ENDMDL
MODEL 3
REMARK VINA RESULT:    -7.338      2.480      3.632
REMARK INTER + INTRA:         -10.962
REMARK INTER:                 -10.162
REMARK INTRA:                  -0.800
REMARK UNBOUND:                -0.836
REMARK  Name = 
REMARK  8 active torsions:
REMARK  status: ('A' for Active; 'I' for Inactive)
REMARK    1  A    between atoms: C_1  and  C_2
REMARK    2  A    between atoms: C_2  and  N_3
REMARK    3  A    between atoms: C_2  and  C_19
REMARK    4  A    between atoms: N_3  and  C_4
REMARK    5  A    between atoms: C_7  and  C_8
REMARK    6  A    between atoms: C_8  and  O_9
REMARK    7  A    between atoms: C_8  and  C_10
REMARK    8  A    between atoms: C_10  and  C_11
REMARK                            x       y       z     vdW  Elec       q    Type
REMARK                         _______ _______ _______ _____ _____    ______ ____
ROOT
ATOM      1  C   UNL     1      46.490   5.552  13.426  0.00  0.00    +0.000 A 
ATOM      2  C   UNL     1      45.902   6.067  12.270  0.00  0.00    +0.000 A 
ATOM      3  C   UNL     1      45.182   5.242  11.403  0.00  0.00    +0.000 A 
ATOM      4  C   UNL     1      45.051   3.893  11.714  0.00  0.00    +0.000 A 
ATOM      5  N   UNL     1      45.665   3.346  12.791  0.00  0.00    +0.000 NA
ATOM      6  C   UNL     1      46.347   4.181  13.611  0.00  0.00    +0.000 A 
ENDROOT
BRANCH   1   7
ATOM      7  N   UNL     1      47.246   6.380  14.223  0.00  0.00    +0.000 N 
ATOM      8  H   UNL     1      47.322   6.149  15.218  0.00  0.00    +0.000 HD
BRANCH   7  10
ATOM      9  C   UNL     1      47.354   8.758  13.910  0.00  0.00    +0.000 C 
ATOM     10  C   UNL     1      48.115   7.439  13.743  0.00  0.00    +0.000 C 
BRANCH  10  11
ATOM     11  C   UNL     1      49.524   7.476  14.307  0.00  0.00    +0.000 A 
ATOM     12  C   UNL     1      49.825   6.969  15.564  0.00  0.00    +0.000 A 
ATOM     13  S   UNL     1      51.433   7.258  16.049  0.00  0.00    +0.000 S 
ATOM     14  C   UNL     1      51.788   8.067  14.596  0.00  0.00    +0.000 A 
ATOM     15  N   UNL     1      53.015   8.622  14.389  0.00  0.00    +0.000 NA
ATOM     16  C   UNL     1      53.140   9.216  13.251  0.00  0.00    +0.000 A 
ATOM     17  N   UNL     1      52.164   9.281  12.290  0.00  0.00    +0.000 N 
ATOM     18  C   UNL     1      50.930   8.697  12.433  0.00  0.00    +0.000 A 
ATOM     19  O   UNL     1      50.107   8.694  11.509  0.00  0.00    +0.000 OA
ATOM     20  C   UNL     1      50.711   8.072  13.726  0.00  0.00    +0.000 A 
ATOM     21  H   UNL     1      52.349   9.729  11.403  0.00  0.00    +0.000 HD
ENDBRANCH  10  11
ENDBRANCH   7  10
ENDBRANCH   1   7
BRANCH   4  22
ATOM     22  C   UNL     1      44.277   2.954  10.804  0.00  0.00    +0.000 C 
BRANCH  22  23
ATOM     23  O   UNL     1      42.951   2.806  11.331  0.00  0.00    +0.000 OA
ATOM     24  H   UNL     1      43.055   2.654  12.287  0.00  0.00    +0.000 HD
ENDBRANCH  22  23
BRANCH  22  25
ATOM     25  C   UNL     1      44.208   3.522   9.379  0.00  0.00    +0.000 C 
BRANCH  25  26
ATOM     26  C   UNL     1      45.347   3.051   8.520  0.00  0.00    +0.000 A 
ATOM     27  C   UNL     1      45.756   1.719   8.553  0.00  0.00    +0.000 A 
ATOM     28  N   UNL     1      46.747   1.234   7.774  0.00  0.00    +0.000 NA
ATOM     29  C   UNL     1      47.333   2.141   6.961  0.00  0.00    +0.000 A 
ATOM     30  C   UNL     1      46.947   3.471   6.933  0.00  0.00    +0.000 A 
ATOM     31  N   UNL     1      45.948   3.957   7.707  0.00  0.00    +0.000 NA
ENDBRANCH  25  26
ENDBRANCH  22  25
ENDBRANCH   4  22
TORSDOF 7
ENDMDL
MODEL 4
REMARK VINA RESULT:    -6.921      3.020      8.598
REMARK INTER + INTRA:         -10.387
REMARK INTER:                  -9.551
REMARK INTRA:                  -0.836
REMARK UNBOUND:                -0.836
REMARK  Name = 
REMARK  8 active torsions:
REMARK  status: ('A' for Active; 'I' for Inactive)
REMARK    1  A    between atoms: C_1  and  C_2
REMARK    2  A    between atoms: C_2  and  N_3
REMARK    3  A    between atoms: C_2  and  C_19
REMARK    4  A    between atoms: N_3  and  C_4
REMARK    5  A    between atoms: C_7  and  C_8
REMARK    6  A    between atoms: C_8  and  O_9
REMARK    7  A    between atoms: C_8  and  C_10
REMARK    8  A    between atoms: C_10  and  C_11
REMARK                            x       y       z     vdW  Elec       q    Type
REMARK                         _______ _______ _______ _____ _____    ______ ____
ROOT
ATOM      1  C   UNL     1      47.233   6.068  13.575  0.00  0.00    +0.000 A 
ATOM      2  C   UNL     1      46.902   4.974  14.374  0.00  0.00    +0.000 A 
ATOM      3  C   UNL     1      47.594   4.718  15.561  0.00  0.00    +0.000 A 
ATOM      4  C   UNL     1      48.617   5.580  15.941  0.00  0.00    +0.000 A 
ATOM      5  N   UNL     1      49.009   6.612  15.157  0.00  0.00    +0.000 NA
ATOM      6  C   UNL     1      48.308   6.832  14.019  0.00  0.00    +0.000 A 
ENDROOT
BRANCH   1   7
ATOM      7  N   UNL     1      46.575   6.254  12.381  0.00  0.00    +0.000 N 
ATOM      8  H   UNL     1      47.135   6.289  11.525  0.00  0.00    +0.000 HD
BRANCH   7  10
ATOM      9  C   UNL     1      44.733   7.433  11.390  0.00  0.00    +0.000 C 
ATOM     10  C   UNL     1      45.135   6.199  12.202  0.00  0.00    +0.000 C 
BRANCH  10  11
ATOM     11  C   UNL     1      44.562   4.902  11.660  0.00  0.00    +0.000 A 
ATOM     12  C   UNL     1      43.705   4.108  12.412  0.00  0.00    +0.000 A 
ATOM     13  S   UNL     1      43.313   2.628  11.661  0.00  0.00    +0.000 S 
ATOM     14  C   UNL     1      44.269   2.996  10.304  0.00  0.00    +0.000 A 
ATOM     15  N   UNL     1      44.408   2.100   9.287  0.00  0.00    +0.000 NA
ATOM     16  C   UNL     1      45.173   2.503   8.330  0.00  0.00    +0.000 A 
ATOM     17  N   UNL     1      45.786   3.730   8.280  0.00  0.00    +0.000 N 
ATOM     18  C   UNL     1      45.636   4.682   9.257  0.00  0.00    +0.000 A 
ATOM     19  O   UNL     1      46.127   5.812   9.136  0.00  0.00    +0.000 OA
ATOM     20  C   UNL     1      44.840   4.254  10.394  0.00  0.00    +0.000 A 
ATOM     21  H   UNL     1      46.339   3.993   7.476  0.00  0.00    +0.000 HD
ENDBRANCH  10  11
ENDBRANCH   7  10
ENDBRANCH   1   7
BRANCH   4  22
ATOM     22  C   UNL     1      49.397   5.346  17.224  0.00  0.00    +0.000 C 
BRANCH  22  23
ATOM     23  O   UNL     1      48.935   6.278  18.211  0.00  0.00    +0.000 OA
ATOM     24  H   UNL     1      48.844   7.134  17.754  0.00  0.00    +0.000 HD
ENDBRANCH  22  23
BRANCH  22  25
ATOM     25  C   UNL     1      49.186   3.910  17.727  0.00  0.00    +0.000 C 
BRANCH  25  26
ATOM     26  C   UNL     1      50.462   3.118  17.751  0.00  0.00    +0.000 A 
ATOM     27  C   UNL     1      50.500   1.822  17.240  0.00  0.00    +0.000 A 
ATOM     28  N   UNL     1      51.628   1.079  17.201  0.00  0.00    +0.000 NA
ATOM     29  C   UNL     1      52.728   1.681  17.709  0.00  0.00    +0.000 A 
ATOM     30  C   UNL     1      52.696   2.961  18.236  0.00  0.00    +0.000 A 
ATOM     31  N   UNL     1      51.568   3.709  18.268  0.00  0.00    +0.000 NA
ENDBRANCH  25  26
ENDBRANCH  22  25
ENDBRANCH   4  22
TORSDOF 7
ENDMDL
MODEL 5
REMARK VINA RESULT:    -6.421      2.706      9.225
REMARK INTER + INTRA:          -9.697
REMARK INTER:                  -9.037
REMARK INTRA:                  -0.660
REMARK UNBOUND:                -0.836
REMARK  Name = 
REMARK  8 active torsions:
REMARK  status: ('A' for Active; 'I' for Inactive)
REMARK    1  A    between atoms: C_1  and  C_2
REMARK    2  A    between atoms: C_2  and  N_3
REMARK    3  A    between atoms: C_2  and  C_19
REMARK    4  A    between atoms: N_3  and  C_4
REMARK    5  A    between atoms: C_7  and  C_8
REMARK    6  A    between atoms: C_8  and  O_9
REMARK    7  A    between atoms: C_8  and  C_10
REMARK    8  A    between atoms: C_10  and  C_11
REMARK                            x       y       z     vdW  Elec       q    Type
REMARK                         _______ _______ _______ _____ _____    ______ ____
ROOT
ATOM      1  C   UNL     1      47.105   5.796  13.746  0.00  0.00    +0.000 A 
ATOM      2  C   UNL     1      46.736   4.578  14.317  0.00  0.00    +0.000 A 
ATOM      3  C   UNL     1      47.349   4.120  15.486  0.00  0.00    +0.000 A 
ATOM      4  C   UNL     1      48.331   4.904  16.081  0.00  0.00    +0.000 A 
ATOM      5  N   UNL     1      48.761   6.058  15.518  0.00  0.00    +0.000 NA
ATOM      6  C   UNL     1      48.137   6.472  14.390  0.00  0.00    +0.000 A 
ENDROOT
BRANCH   1   7
ATOM      7  N   UNL     1      46.527   6.186  12.560  0.00  0.00    +0.000 N 
ATOM      8  H   UNL     1      47.143   6.365  11.762  0.00  0.00    +0.000 HD
BRANCH   7  10
ATOM      9  C   UNL     1      44.793   7.418  11.445  0.00  0.00    +0.000 C 
ATOM     10  C   UNL     1      45.103   6.171  12.278  0.00  0.00    +0.000 C 
BRANCH  10  11
ATOM     11  C   UNL     1      44.536   4.892  11.690  0.00  0.00    +0.000 A 
ATOM     12  C   UNL     1      43.659   4.083  12.402  0.00  0.00    +0.000 A 
ATOM     13  S   UNL     1      43.277   2.625  11.604  0.00  0.00    +0.000 S 
ATOM     14  C   UNL     1      44.263   3.024  10.277  0.00  0.00    +0.000 A 
ATOM     15  N   UNL     1      44.420   2.155   9.240  0.00  0.00    +0.000 NA
ATOM     16  C   UNL     1      45.207   2.580   8.310  0.00  0.00    +0.000 A 
ATOM     17  N   UNL     1      45.826   3.804   8.306  0.00  0.00    +0.000 N 
ATOM     18  C   UNL     1      45.660   4.731   9.305  0.00  0.00    +0.000 A 
ATOM     19  O   UNL     1      46.158   5.861   9.224  0.00  0.00    +0.000 OA
ATOM     20  C   UNL     1      44.837   4.276  10.413  0.00  0.00    +0.000 A 
ATOM     21  H   UNL     1      46.397   4.085   7.521  0.00  0.00    +0.000 HD
ENDBRANCH  10  11
ENDBRANCH   7  10
ENDBRANCH   1   7
BRANCH   4  22
ATOM     22  C   UNL     1      49.025   4.450  17.354  0.00  0.00    +0.000 C 
BRANCH  22  23
ATOM     23  O   UNL     1      49.983   3.439  17.011  0.00  0.00    +0.000 OA
ATOM     24  H   UNL     1      49.541   2.853  16.370  0.00  0.00    +0.000 HD
ENDBRANCH  22  23
BRANCH  22  25
ATOM     25  C   UNL     1      49.738   5.632  18.028  0.00  0.00    +0.000 C 
BRANCH  25  26
ATOM     26  C   UNL     1      48.942   6.207  19.165  0.00  0.00    +0.000 A 
ATOM     27  C   UNL     1      48.740   7.583  19.263  0.00  0.00    +0.000 A 
ATOM     28  N   UNL     1      48.001   8.150  20.242  0.00  0.00    +0.000 NA
ATOM     29  C   UNL     1      47.477   7.284  21.139  0.00  0.00    +0.000 A 
ATOM     30  C   UNL     1      47.688   5.917  21.061  0.00  0.00    +0.000 A 
ATOM     31  N   UNL     1      48.421   5.347  20.076  0.00  0.00    +0.000 NA
ENDBRANCH  25  26
ENDBRANCH  22  25
ENDBRANCH   4  22
TORSDOF 7
ENDMDL
MODEL 6
REMARK VINA RESULT:    -6.310      1.696      2.330
REMARK INTER + INTRA:          -9.543
REMARK INTER:                  -8.566
REMARK INTRA:                  -0.977
REMARK UNBOUND:                -0.836
REMARK  Name = 
REMARK  8 active torsions:
REMARK  status: ('A' for Active; 'I' for Inactive)
REMARK    1  A    between atoms: C_1  and  C_2
REMARK    2  A    between atoms: C_2  and  N_3
REMARK    3  A    between atoms: C_2  and  C_19
REMARK    4  A    between atoms: N_3  and  C_4
REMARK    5  A    between atoms: C_7  and  C_8
REMARK    6  A    between atoms: C_8  and  O_9
REMARK    7  A    between atoms: C_8  and  C_10
REMARK    8  A    between atoms: C_10  and  C_11
REMARK                            x       y       z     vdW  Elec       q    Type
REMARK                         _______ _______ _______ _____ _____    ______ ____
ROOT
ATOM      1  C   UNL     1      48.003   7.497  13.996  0.00  0.00    +0.000 A 
ATOM      2  C   UNL     1      47.857   6.145  13.687  0.00  0.00    +0.000 A 
ATOM      3  C   UNL     1      46.830   5.709  12.846  0.00  0.00    +0.000 A 
ATOM      4  C   UNL     1      45.956   6.649  12.311  0.00  0.00    +0.000 A 
ATOM      5  N   UNL     1      46.026   7.960  12.643  0.00  0.00    +0.000 NA
ATOM      6  C   UNL     1      47.041   8.344  13.454  0.00  0.00    +0.000 A 
ENDROOT
BRANCH   1   7
ATOM      7  N   UNL     1      48.985   7.884  14.879  0.00  0.00    +0.000 N 
ATOM      8  H   UNL     1      49.194   8.883  14.956  0.00  0.00    +0.000 HD
BRANCH   7  10
ATOM      9  C   UNL     1      51.108   7.354  15.869  0.00  0.00    +0.000 C 
ATOM     10  C   UNL     1      49.613   7.021  15.863  0.00  0.00    +0.000 C 
BRANCH  10  11
ATOM     11  C   UNL     1      48.991   6.996  17.248  0.00  0.00    +0.000 A 
ATOM     12  C   UNL     1      48.445   8.135  17.826  0.00  0.00    +0.000 A 
ATOM     13  S   UNL     1      47.947   7.906  19.441  0.00  0.00    +0.000 S 
ATOM     14  C   UNL     1      48.438   6.278  19.424  0.00  0.00    +0.000 A 
ATOM     15  N   UNL     1      48.331   5.507  20.542  0.00  0.00    +0.000 NA
ATOM     16  C   UNL     1      48.754   4.298  20.391  0.00  0.00    +0.000 A 
ATOM     17  N   UNL     1      49.244   3.780  19.219  0.00  0.00    +0.000 N 
ATOM     18  C   UNL     1      49.326   4.504  18.056  0.00  0.00    +0.000 A 
ATOM     19  O   UNL     1      49.685   3.979  16.994  0.00  0.00    +0.000 OA
ATOM     20  C   UNL     1      48.927   5.894  18.187  0.00  0.00    +0.000 A 
ATOM     21  H   UNL     1      49.519   2.809  19.165  0.00  0.00    +0.000 HD
ENDBRANCH  10  11
ENDBRANCH   7  10
ENDBRANCH   1   7
BRANCH   4  22
ATOM     22  C   UNL     1      44.824   6.225  11.390  0.00  0.00    +0.000 C 
BRANCH  22  23
ATOM     23  O   UNL     1      43.834   7.263  11.383  0.00  0.00    +0.000 OA
ATOM     24  H   UNL     1      44.138   7.932  12.022  0.00  0.00    +0.000 HD
ENDBRANCH  22  23
BRANCH  22  25
ATOM     25  C   UNL     1      45.348   5.999   9.964  0.00  0.00    +0.000 C 
BRANCH  25  26
ATOM     26  C   UNL     1      45.196   4.573   9.517  0.00  0.00    +0.000 A 
ATOM     27  C   UNL     1      44.569   3.637  10.338  0.00  0.00    +0.000 A 
ATOM     28  N   UNL     1      44.372   2.352   9.971  0.00  0.00    +0.000 NA
ATOM     29  C   UNL     1      44.842   2.028   8.746  0.00  0.00    +0.000 A 
ATOM     30  C   UNL     1      45.482   2.945   7.930  0.00  0.00    +0.000 A 
ATOM     31  N   UNL     1      45.673   4.236   8.293  0.00  0.00    +0.000 NA
ENDBRANCH  25  26
ENDBRANCH  22  25
ENDBRANCH   4  22
TORSDOF 7
ENDMDL
MODEL 7
REMARK VINA RESULT:    -6.206      2.503      3.532
REMARK INTER + INTRA:          -9.400
REMARK INTER:                  -8.366
REMARK INTRA:                  -1.034
REMARK UNBOUND:                -0.836
REMARK  Name = 
REMARK  8 active torsions:
REMARK  status: ('A' for Active; 'I' for Inactive)
REMARK    1  A    between atoms: C_1  and  C_2
REMARK    2  A    between atoms: C_2  and  N_3
REMARK    3  A    between atoms: C_2  and  C_19
REMARK    4  A    between atoms: N_3  and  C_4
REMARK    5  A    between atoms: C_7  and  C_8
REMARK    6  A    between atoms: C_8  and  O_9
REMARK    7  A    between atoms: C_8  and  C_10
REMARK    8  A    between atoms: C_10  and  C_11
REMARK                            x       y       z     vdW  Elec       q    Type
REMARK                         _______ _______ _______ _____ _____    ______ ____
ROOT
ATOM      1  C   UNL     1      49.079   7.553  13.795  0.00  0.00    +0.000 A 
ATOM      2  C   UNL     1      48.138   8.516  14.158  0.00  0.00    +0.000 A 
ATOM      3  C   UNL     1      46.843   8.486  13.636  0.00  0.00    +0.000 A 
ATOM      4  C   UNL     1      46.499   7.470  12.751  0.00  0.00    +0.000 A 
ATOM      5  N   UNL     1      47.405   6.558  12.325  0.00  0.00    +0.000 NA
ATOM      6  C   UNL     1      48.647   6.616  12.860  0.00  0.00    +0.000 A 
ENDROOT
BRANCH   1   7
ATOM      7  N   UNL     1      50.364   7.650  14.277  0.00  0.00    +0.000 N 
ATOM      8  H   UNL     1      51.017   8.262  13.781  0.00  0.00    +0.000 HD
BRANCH   7  10
ATOM      9  C   UNL     1      52.318   7.429  15.655  0.00  0.00    +0.000 C 
ATOM     10  C   UNL     1      50.822   7.119  15.548  0.00  0.00    +0.000 C 
BRANCH  10  11
ATOM     11  C   UNL     1      50.031   7.517  16.781  0.00  0.00    +0.000 A 
ATOM     12  C   UNL     1      50.350   8.647  17.524  0.00  0.00    +0.000 A 
ATOM     13  S   UNL     1      49.427   8.809  18.948  0.00  0.00    +0.000 S 
ATOM     14  C   UNL     1      48.564   7.380  18.622  0.00  0.00    +0.000 A 
ATOM     15  N   UNL     1      47.631   6.914  19.499  0.00  0.00    +0.000 NA
ATOM     16  C   UNL     1      47.066   5.815  19.132  0.00  0.00    +0.000 A 
ATOM     17  N   UNL     1      47.322   5.155  17.957  0.00  0.00    +0.000 N 
ATOM     18  C   UNL     1      48.217   5.612  17.021  0.00  0.00    +0.000 A 
ATOM     19  O   UNL     1      48.356   5.043  15.931  0.00  0.00    +0.000 OA
ATOM     20  C   UNL     1      48.935   6.812  17.415  0.00  0.00    +0.000 A 
ATOM     21  H   UNL     1      46.808   4.319  17.717  0.00  0.00    +0.000 HD
ENDBRANCH  10  11
ENDBRANCH   7  10
ENDBRANCH   1   7
BRANCH   4  22
ATOM     22  C   UNL     1      45.102   7.392  12.158  0.00  0.00    +0.000 C 
BRANCH  22  23
ATOM     23  O   UNL     1      44.729   8.701  11.707  0.00  0.00    +0.000 OA
ATOM     24  H   UNL     1      43.874   8.901  12.130  0.00  0.00    +0.000 HD
ENDBRANCH  22  23
BRANCH  22  25
ATOM     25  C   UNL     1      45.073   6.410  10.978  0.00  0.00    +0.000 C 
BRANCH  25  26
ATOM     26  C   UNL     1      44.508   5.071  11.361  0.00  0.00    +0.000 A 
ATOM     27  C   UNL     1      44.134   4.812  12.679  0.00  0.00    +0.000 A 
ATOM     28  N   UNL     1      43.586   3.641  13.071  0.00  0.00    +0.000 NA
ATOM     29  C   UNL     1      43.436   2.722  12.090  0.00  0.00    +0.000 A 
ATOM     30  C   UNL     1      43.823   2.963  10.782  0.00  0.00    +0.000 A 
ATOM     31  N   UNL     1      44.364   4.139  10.387  0.00  0.00    +0.000 NA
ENDBRANCH  25  26
ENDBRANCH  22  25
ENDBRANCH   4  22
TORSDOF 7
ENDMDL
MODEL 8
REMARK VINA RESULT:    -6.187      3.031      9.277
REMARK INTER + INTRA:          -9.374
REMARK INTER:                  -8.186
REMARK INTRA:                  -1.189
REMARK UNBOUND:                -0.836
REMARK  Name = 
REMARK  8 active torsions:
REMARK  status: ('A' for Active; 'I' for Inactive)
REMARK    1  A    between atoms: C_1  and  C_2
REMARK    2  A    between atoms: C_2  and  N_3
REMARK    3  A    between atoms: C_2  and  C_19
REMARK    4  A    between atoms: N_3  and  C_4
REMARK    5  A    between atoms: C_7  and  C_8
REMARK    6  A    between atoms: C_8  and  O_9
REMARK    7  A    between atoms: C_8  and  C_10
REMARK    8  A    between atoms: C_10  and  C_11
REMARK                            x       y       z     vdW  Elec       q    Type
REMARK                         _______ _______ _______ _____ _____    ______ ____
ROOT
ATOM      1  C   UNL     1      47.813   6.758  12.543  0.00  0.00    +0.000 A 
ATOM      2  C   UNL     1      48.854   7.622  12.203  0.00  0.00    +0.000 A 
ATOM      3  C   UNL     1      49.847   7.947  13.129  0.00  0.00    +0.000 A 
ATOM      4  C   UNL     1      49.789   7.386  14.401  0.00  0.00    +0.000 A 
ATOM      5  N   UNL     1      48.758   6.598  14.787  0.00  0.00    +0.000 NA
ATOM      6  C   UNL     1      47.819   6.300  13.857  0.00  0.00    +0.000 A 
ENDROOT
BRANCH   1   7
ATOM      7  N   UNL     1      46.816   6.510  11.627  0.00  0.00    +0.000 N 
ATOM      8  H   UNL     1      47.092   6.255  10.676  0.00  0.00    +0.000 HD
BRANCH   7  10
ATOM      9  C   UNL     1      44.695   7.603  11.358  0.00  0.00    +0.000 C 
ATOM     10  C   UNL     1      45.405   6.379  11.943  0.00  0.00    +0.000 C 
BRANCH  10  11
ATOM     11  C   UNL     1      44.743   5.062  11.579  0.00  0.00    +0.000 A 
ATOM     12  C   UNL     1      43.925   4.381  12.472  0.00  0.00    +0.000 A 
ATOM     13  S   UNL     1      43.419   2.855  11.906  0.00  0.00    +0.000 S 
ATOM     14  C   UNL     1      44.269   3.050  10.446  0.00  0.00    +0.000 A 
ATOM     15  N   UNL     1      44.290   2.056   9.514  0.00  0.00    +0.000 NA
ATOM     16  C   UNL     1      44.984   2.333   8.463  0.00  0.00    +0.000 A 
ATOM     17  N   UNL     1      45.633   3.521   8.243  0.00  0.00    +0.000 N 
ATOM     18  C   UNL     1      45.600   4.568   9.130  0.00  0.00    +0.000 A 
ATOM     19  O   UNL     1      46.118   5.659   8.859  0.00  0.00    +0.000 OA
ATOM     20  C   UNL     1      44.889   4.285  10.365  0.00  0.00    +0.000 A 
ATOM     21  H   UNL     1      46.124   3.682   7.375  0.00  0.00    +0.000 HD
ENDBRANCH  10  11
ENDBRANCH   7  10
ENDBRANCH   1   7
BRANCH   4  22
ATOM     22  C   UNL     1      50.847   7.707  15.443  0.00  0.00    +0.000 C 
BRANCH  22  23
ATOM     23  O   UNL     1      50.349   8.755  16.285  0.00  0.00    +0.000 OA
ATOM     24  H   UNL     1      50.740   8.606  17.165  0.00  0.00    +0.000 HD
ENDBRANCH  22  23
BRANCH  22  25
ATOM     25  C   UNL     1      51.160   6.465  16.291  0.00  0.00    +0.000 C 
BRANCH  25  26
ATOM     26  C   UNL     1      51.220   6.775  17.760  0.00  0.00    +0.000 A 
ATOM     27  C   UNL     1      52.442   7.021  18.382  0.00  0.00    +0.000 A 
ATOM     28  N   UNL     1      52.551   7.342  19.690  0.00  0.00    +0.000 NA
ATOM     29  C   UNL     1      51.381   7.395  20.366  0.00  0.00    +0.000 A 
ATOM     30  C   UNL     1      50.162   7.134  19.761  0.00  0.00    +0.000 A 
ATOM     31  N   UNL     1      50.052   6.821  18.448  0.00  0.00    +0.000 NA
ENDBRANCH  25  26
ENDBRANCH  22  25
ENDBRANCH   4  22
TORSDOF 7
ENDMDL
MODEL 9
REMARK VINA RESULT:    -6.158      2.919      4.682
REMARK INTER + INTRA:          -9.334
REMARK INTER:                  -7.818
REMARK INTRA:                  -1.516
REMARK UNBOUND:                -0.836
REMARK  Name = 
REMARK  8 active torsions:
REMARK  status: ('A' for Active; 'I' for Inactive)
REMARK    1  A    between atoms: C_1  and  C_2
REMARK    2  A    between atoms: C_2  and  N_3
REMARK    3  A    between atoms: C_2  and  C_19
REMARK    4  A    between atoms: N_3  and  C_4
REMARK    5  A    between atoms: C_7  and  C_8
REMARK    6  A    between atoms: C_8  and  O_9
REMARK    7  A    between atoms: C_8  and  C_10
REMARK    8  A    between atoms: C_10  and  C_11
REMARK                            x       y       z     vdW  Elec       q    Type
REMARK                         _______ _______ _______ _____ _____    ______ ____
ROOT
ATOM      1  C   UNL     1      49.096   7.812  16.173  0.00  0.00    +0.000 A 
ATOM      2  C   UNL     1      49.455   6.910  15.171  0.00  0.00    +0.000 A 
ATOM      3  C   UNL     1      48.893   6.995  13.895  0.00  0.00    +0.000 A 
ATOM      4  C   UNL     1      47.972   8.003  13.633  0.00  0.00    +0.000 A 
ATOM      5  N   UNL     1      47.549   8.853  14.599  0.00  0.00    +0.000 NA
ATOM      6  C   UNL     1      48.124   8.743  15.820  0.00  0.00    +0.000 A 
ENDROOT
BRANCH   1   7
ATOM      7  N   UNL     1      49.620   7.660  17.436  0.00  0.00    +0.000 N 
ATOM      8  H   UNL     1      50.304   8.350  17.757  0.00  0.00    +0.000 HD
BRANCH   7  10
ATOM      9  C   UNL     1      47.952   7.387  19.142  0.00  0.00    +0.000 C 
ATOM     10  C   UNL     1      49.137   6.723  18.434  0.00  0.00    +0.000 C 
BRANCH  10  11
ATOM     11  C   UNL     1      48.846   5.309  17.962  0.00  0.00    +0.000 A 
ATOM     12  C   UNL     1      47.549   4.831  17.834  0.00  0.00    +0.000 A 
ATOM     13  S   UNL     1      47.468   3.175  17.440  0.00  0.00    +0.000 S 
ATOM     14  C   UNL     1      49.163   3.037  17.423  0.00  0.00    +0.000 A 
ATOM     15  N   UNL     1      49.762   1.834  17.194  0.00  0.00    +0.000 NA
ATOM     16  C   UNL     1      51.051   1.872  17.224  0.00  0.00    +0.000 A 
ATOM     17  N   UNL     1      51.796   3.005  17.429  0.00  0.00    +0.000 N 
ATOM     18  C   UNL     1      51.239   4.246  17.615  0.00  0.00    +0.000 A 
ATOM     19  O   UNL     1      51.941   5.261  17.704  0.00  0.00    +0.000 OA
ATOM     20  C   UNL     1      49.787   4.249  17.661  0.00  0.00    +0.000 A 
ATOM     21  H   UNL     1      52.806   2.966  17.397  0.00  0.00    +0.000 HD
ENDBRANCH  10  11
ENDBRANCH   7  10
ENDBRANCH   1   7
BRANCH   4  22
ATOM     22  C   UNL     1      47.334   8.139  12.260  0.00  0.00    +0.000 C 
BRANCH  22  23
ATOM     23  O   UNL     1      47.982   7.222  11.368  0.00  0.00    +0.000 OA
ATOM     24  H   UNL     1      48.936   7.409  11.433  0.00  0.00    +0.000 HD
ENDBRANCH  22  23
BRANCH  22  25
ATOM     25  C   UNL     1      45.833   7.821  12.331  0.00  0.00    +0.000 C 
BRANCH  25  26
ATOM     26  C   UNL     1      45.550   6.355  12.162  0.00  0.00    +0.000 A 
ATOM     27  C   UNL     1      45.446   5.522  13.275  0.00  0.00    +0.000 A 
ATOM     28  N   UNL     1      45.155   4.205  13.184  0.00  0.00    +0.000 NA
ATOM     29  C   UNL     1      44.984   3.743  11.924  0.00  0.00    +0.000 A 
ATOM     30  C   UNL     1      45.104   4.559  10.812  0.00  0.00    +0.000 A 
ATOM     31  N   UNL     1      45.387   5.879  10.903  0.00  0.00    +0.000 NA
ENDBRANCH  25  26
ENDBRANCH  22  25
ENDBRANCH   4  22
TORSDOF 7
ENDMDL
