MODEL 1
REMARK VINA RESULT:    -8.607      0.000      0.000
REMARK INTER + INTRA:         -11.648
REMARK INTER:                 -11.123
REMARK INTRA:                  -0.526
REMARK UNBOUND:                -0.526
REMARK  Name = 
REMARK  6 active torsions:
REMARK  status: ('A' for Active; 'I' for Inactive)
REMARK    1  A    between atoms: C_1  and  C_2
REMARK    2  A    between atoms: C_2  and  N_3
REMARK    3  A    between atoms: C_2  and  C_16
REMARK    4  A    between atoms: C_4  and  C_6
REMARK    5  A    between atoms: C_19  and  O_20
REMARK    6  A    between atoms: O_20  and  C_21
REMARK                            x       y       z     vdW  Elec       q    Type
REMARK                         _______ _______ _______ _____ _____    ______ ____
ROOT
ATOM      1  C   UNL     1      45.304   8.496  12.797  0.00  0.00    +0.000 C 
ATOM      2  C   UNL     1      46.372   7.427  12.566  0.00  0.00    +0.000 C 
ENDROOT
BRANCH   2   3
ATOM      3  C   UNL     1      45.857   6.295  11.696  0.00  0.00    +0.000 A 
ATOM      4  C   UNL     1      45.106   5.270  12.292  0.00  0.00    +0.000 A 
ATOM      5  C   UNL     1      44.654   4.182  11.544  0.00  0.00    +0.000 A 
ATOM      6  C   UNL     1      44.899   4.120  10.170  0.00  0.00    +0.000 A 
ATOM      7  C   UNL     1      45.646   5.130   9.562  0.00  0.00    +0.000 A 
ATOM      8  C   UNL     1      46.119   6.212  10.317  0.00  0.00    +0.000 A 
BRANCH   6   9
ATOM      9  O   UNL     1      44.517   3.066   9.370  0.00  0.00    +0.000 OA
BRANCH   9  10
ATOM     10  C   UNL     1      45.413   2.603   8.415  0.00  0.00    +0.000 A 
ATOM     11  N   UNL     1      45.997   1.398   8.578  0.00  0.00    +0.000 NA
ATOM     12  C   UNL     1      46.870   1.025   7.628  0.00  0.00    +0.000 A 
ATOM     13  C   UNL     1      47.150   1.785   6.519  0.00  0.00    +0.000 A 
ATOM     14  C   UNL     1      46.470   2.977   6.429  0.00  0.00    +0.000 A 
ATOM     15  N   UNL     1      45.597   3.411   7.358  0.00  0.00    +0.000 NA
ENDBRANCH   9  10
ENDBRANCH   6   9
ENDBRANCH   2   3
BRANCH   2  16
ATOM     16  N   UNL     1      46.893   6.930  13.823  0.00  0.00    +0.000 N 
ATOM     17  C   UNL     1      48.213   6.591  13.980  0.00  0.00    +0.000 C 
ATOM     18  O   UNL     1      49.019   6.653  13.054  0.00  0.00    +0.000 OA
ATOM     19  H   UNL     1      46.236   6.792  14.583  0.00  0.00    +0.000 HD
BRANCH  17  20
ATOM     20  C   UNL     1      48.638   6.202  15.329  0.00  0.00    +0.000 A 
ATOM     21  C   UNL     1      49.627   6.931  15.974  0.00  0.00    +0.000 A 
ATOM     22  S   UNL     1      49.988   6.362  17.540  0.00  0.00    +0.000 S 
ATOM     23  C   UNL     1      48.871   5.084  17.390  0.00  0.00    +0.000 A 
ATOM     24  N   UNL     1      48.709   4.176  18.388  0.00  0.00    +0.000 NA
ATOM     25  C   UNL     1      47.869   3.234  18.119  0.00  0.00    +0.000 A 
ATOM     26  N   UNL     1      47.165   3.127  16.950  0.00  0.00    +0.000 N 
ATOM     27  C   UNL     1      47.224   4.070  15.955  0.00  0.00    +0.000 A 
ATOM     28  O   UNL     1      46.462   4.033  14.999  0.00  0.00    +0.000 OA
ATOM     29  C   UNL     1      48.206   5.117  16.178  0.00  0.00    +0.000 A 
ATOM     30  H   UNL     1      46.494   2.385  16.816  0.00  0.00    +0.000 HD
ENDBRANCH  17  20
ENDBRANCH   2  16
TORSDOF 5
ENDMDL
MODEL 2
REMARK VINA RESULT:    -7.686      2.631      3.832
REMARK INTER + INTRA:         -10.458
REMARK INTER:                  -9.458
REMARK INTRA:                  -1.000
REMARK UNBOUND:                -0.526
REMARK  Name = 
REMARK  6 active torsions:
REMARK  status: ('A' for Active; 'I' for Inactive)
REMARK    1  A    between atoms: C_1  and  C_2
REMARK    2  A    between atoms: C_2  and  N_3
REMARK    3  A    between atoms: C_2  and  C_16
REMARK    4  A    between atoms: C_4  and  C_6
REMARK    5  A    between atoms: C_19  and  O_20
REMARK    6  A    between atoms: O_20  and  C_21
REMARK                            x       y       z     vdW  Elec       q    Type
REMARK                         _______ _______ _______ _____ _____    ______ ____
ROOT
ATOM      1  C   UNL     1      46.746   4.714  14.735  0.00  0.00    +0.000 C 
ATOM      2  C   UNL     1      46.467   5.788  13.682  0.00  0.00    +0.000 C 
ENDROOT
BRANCH   2   3
ATOM      3  C   UNL     1      45.913   5.190  12.402  0.00  0.00    +0.000 A 
ATOM      4  C   UNL     1      45.339   3.910  12.445  0.00  0.00    +0.000 A 
ATOM      5  C   UNL     1      44.862   3.297  11.285  0.00  0.00    +0.000 A 
ATOM      6  C   UNL     1      44.903   3.972  10.063  0.00  0.00    +0.000 A 
ATOM      7  C   UNL     1      45.473   5.245  10.003  0.00  0.00    +0.000 A 
ATOM      8  C   UNL     1      45.971   5.852  11.164  0.00  0.00    +0.000 A 
BRANCH   6   9
ATOM      9  O   UNL     1      44.485   3.424   8.871  0.00  0.00    +0.000 OA
BRANCH   9  10
ATOM     10  C   UNL     1      45.443   2.900   8.013  0.00  0.00    +0.000 A 
ATOM     11  N   UNL     1      45.823   3.604   6.928  0.00  0.00    +0.000 NA
ATOM     12  C   UNL     1      46.736   3.024   6.130  0.00  0.00    +0.000 A 
ATOM     13  C   UNL     1      47.300   1.800   6.393  0.00  0.00    +0.000 A 
ATOM     14  C   UNL     1      46.873   1.184   7.546  0.00  0.00    +0.000 A 
ATOM     15  N   UNL     1      45.949   1.709   8.374  0.00  0.00    +0.000 NA
ENDBRANCH   9  10
ENDBRANCH   6   9
ENDBRANCH   2   3
BRANCH   2  16
ATOM     16  N   UNL     1      47.649   6.585  13.424  0.00  0.00    +0.000 N 
ATOM     17  C   UNL     1      47.624   7.956  13.463  0.00  0.00    +0.000 C 
ATOM     18  O   UNL     1      46.592   8.586  13.680  0.00  0.00    +0.000 OA
ATOM     19  H   UNL     1      48.499   6.096  13.163  0.00  0.00    +0.000 HD
BRANCH  17  20
ATOM     20  C   UNL     1      48.908   8.643  13.288  0.00  0.00    +0.000 A 
ATOM     21  C   UNL     1      49.003   9.705  12.399  0.00  0.00    +0.000 A 
ATOM     22  S   UNL     1      50.556  10.405  12.330  0.00  0.00    +0.000 S 
ATOM     23  C   UNL     1      51.172   9.276  13.448  0.00  0.00    +0.000 A 
ATOM     24  N   UNL     1      52.483   9.293  13.808  0.00  0.00    +0.000 NA
ATOM     25  C   UNL     1      52.823   8.351  14.622  0.00  0.00    +0.000 A 
ATOM     26  N   UNL     1      51.968   7.404  15.119  0.00  0.00    +0.000 N 
ATOM     27  C   UNL     1      50.621   7.404  14.860  0.00  0.00    +0.000 A 
ATOM     28  O   UNL     1      49.860   6.649  15.448  0.00  0.00    +0.000 OA
ATOM     29  C   UNL     1      50.196   8.404  13.895  0.00  0.00    +0.000 A 
ATOM     30  H   UNL     1      52.289   6.714  15.784  0.00  0.00    +0.000 HD
ENDBRANCH  17  20
ENDBRANCH   2  16
TORSDOF 5
ENDMDL
MODEL 3
REMARK VINA RESULT:    -7.666      1.498      2.247
REMARK INTER + INTRA:         -10.433
REMARK INTER:                  -9.605
REMARK INTRA:                  -0.827
REMARK UNBOUND:                -0.526
REMARK  Name = 
REMARK  6 active torsions:
REMARK  status: ('A' for Active; 'I' for Inactive)
REMARK    1  A    between atoms: C_1  and  C_2
REMARK    2  A    between atoms: C_2  and  N_3
REMARK    3  A    between atoms: C_2  and  C_16
REMARK    4  A    between atoms: C_4  and  C_6
REMARK    5  A    between atoms: C_19  and  O_20
REMARK    6  A    between atoms: O_20  and  C_21
REMARK                            x       y       z     vdW  Elec       q    Type
REMARK                         _______ _______ _______ _____ _____    ______ ____
ROOT
ATOM      1  C   UNL     1      45.480   8.043  13.090  0.00  0.00    +0.000 C 
ATOM      2  C   UNL     1      46.457   6.884  12.883  0.00  0.00    +0.000 C 
ENDROOT
BRANCH   2   3
ATOM      3  C   UNL     1      46.025   5.982  11.742  0.00  0.00    +0.000 A 
ATOM      4  C   UNL     1      46.354   6.348  10.427  0.00  0.00    +0.000 A 
ATOM      5  C   UNL     1      45.936   5.578   9.340  0.00  0.00    +0.000 A 
ATOM      6  C   UNL     1      45.222   4.396   9.548  0.00  0.00    +0.000 A 
ATOM      7  C   UNL     1      44.885   4.018  10.849  0.00  0.00    +0.000 A 
ATOM      8  C   UNL     1      45.287   4.803  11.939  0.00  0.00    +0.000 A 
BRANCH   6   9
ATOM      9  O   UNL     1      44.745   3.600   8.530  0.00  0.00    +0.000 OA
BRANCH   9  10
ATOM     10  C   UNL     1      45.660   2.905   7.750  0.00  0.00    +0.000 A 
ATOM     11  N   UNL     1      46.119   1.708   8.168  0.00  0.00    +0.000 NA
ATOM     12  C   UNL     1      47.020   1.105   7.375  0.00  0.00    +0.000 A 
ATOM     13  C   UNL     1      47.444   1.629   6.179  0.00  0.00    +0.000 A 
ATOM     14  C   UNL     1      46.884   2.834   5.826  0.00  0.00    +0.000 A 
ATOM     15  N   UNL     1      45.990   3.493   6.588  0.00  0.00    +0.000 NA
ENDBRANCH   9  10
ENDBRANCH   6   9
ENDBRANCH   2   3
BRANCH   2  16
ATOM     16  N   UNL     1      46.641   6.133  14.108  0.00  0.00    +0.000 N 
ATOM     17  C   UNL     1      47.888   5.852  14.607  0.00  0.00    +0.000 C 
ATOM     18  O   UNL     1      48.917   6.186  14.025  0.00  0.00    +0.000 OA
ATOM     19  H   UNL     1      45.813   5.774  14.570  0.00  0.00    +0.000 HD
BRANCH  17  20
ATOM     20  C   UNL     1      47.939   5.177  15.908  0.00  0.00    +0.000 A 
ATOM     21  C   UNL     1      47.488   3.869  16.022  0.00  0.00    +0.000 A 
ATOM     22  S   UNL     1      47.636   3.226  17.594  0.00  0.00    +0.000 S 
ATOM     23  C   UNL     1      48.259   4.694  18.193  0.00  0.00    +0.000 A 
ATOM     24  N   UNL     1      48.570   4.838  19.508  0.00  0.00    +0.000 NA
ATOM     25  C   UNL     1      48.983   6.017  19.832  0.00  0.00    +0.000 A 
ATOM     26  N   UNL     1      49.129   7.060  18.957  0.00  0.00    +0.000 N 
ATOM     27  C   UNL     1      48.920   6.936  17.607  0.00  0.00    +0.000 A 
ATOM     28  O   UNL     1      49.218   7.834  16.832  0.00  0.00    +0.000 OA
ATOM     29  C   UNL     1      48.389   5.647  17.198  0.00  0.00    +0.000 A 
ATOM     30  H   UNL     1      49.493   7.949  19.267  0.00  0.00    +0.000 HD
ENDBRANCH  17  20
ENDBRANCH   2  16
TORSDOF 5
ENDMDL
MODEL 4
REMARK VINA RESULT:    -7.648      2.330      2.875
REMARK INTER + INTRA:         -10.409
REMARK INTER:                  -9.402
REMARK INTRA:                  -1.008
REMARK UNBOUND:                -0.526
REMARK  Name = 
REMARK  6 active torsions:
REMARK  status: ('A' for Active; 'I' for Inactive)
REMARK    1  A    between atoms: C_1  and  C_2
REMARK    2  A    between atoms: C_2  and  N_3
REMARK    3  A    between atoms: C_2  and  C_16
REMARK    4  A    between atoms: C_4  and  C_6
REMARK    5  A    between atoms: C_19  and  O_20
REMARK    6  A    between atoms: O_20  and  C_21
REMARK                            x       y       z     vdW  Elec       q    Type
REMARK                         _______ _______ _______ _____ _____    ______ ____
ROOT
ATOM      1  C   UNL     1      47.790   8.885  13.950  0.00  0.00    +0.000 C 
ATOM      2  C   UNL     1      48.017   7.373  13.936  0.00  0.00    +0.000 C 
ENDROOT
BRANCH   2   3
ATOM      3  C   UNL     1      47.066   6.670  12.984  0.00  0.00    +0.000 A 
ATOM      4  C   UNL     1      46.727   5.331  13.229  0.00  0.00    +0.000 A 
ATOM      5  C   UNL     1      45.898   4.626  12.355  0.00  0.00    +0.000 A 
ATOM      6  C   UNL     1      45.348   5.262  11.241  0.00  0.00    +0.000 A 
ATOM      7  C   UNL     1      45.676   6.594  10.980  0.00  0.00    +0.000 A 
ATOM      8  C   UNL     1      46.526   7.295  11.847  0.00  0.00    +0.000 A 
BRANCH   6   9
ATOM      9  O   UNL     1      44.549   4.629  10.313  0.00  0.00    +0.000 OA
BRANCH   9  10
ATOM     10  C   UNL     1      45.157   3.830   9.354  0.00  0.00    +0.000 A 
ATOM     11  N   UNL     1      45.147   2.490   9.499  0.00  0.00    +0.000 NA
ATOM     12  C   UNL     1      45.775   1.782   8.545  0.00  0.00    +0.000 A 
ATOM     13  C   UNL     1      46.372   2.355   7.449  0.00  0.00    +0.000 A 
ATOM     14  C   UNL     1      46.290   3.725   7.377  0.00  0.00    +0.000 A 
ATOM     15  N   UNL     1      45.690   4.487   8.310  0.00  0.00    +0.000 NA
ENDBRANCH   9  10
ENDBRANCH   6   9
ENDBRANCH   2   3
BRANCH   2  16
ATOM     16  N   UNL     1      47.928   6.819  15.272  0.00  0.00    +0.000 N 
ATOM     17  C   UNL     1      49.042   6.428  15.972  0.00  0.00    +0.000 C 
ATOM     18  O   UNL     1      50.172   6.489  15.492  0.00  0.00    +0.000 OA
ATOM     19  H   UNL     1      47.003   6.682  15.665  0.00  0.00    +0.000 HD
BRANCH  17  20
ATOM     20  C   UNL     1      48.829   5.984  17.353  0.00  0.00    +0.000 A 
ATOM     21  C   UNL     1      49.092   4.665  17.698  0.00  0.00    +0.000 A 
ATOM     22  S   UNL     1      48.813   4.318  19.343  0.00  0.00    +0.000 S 
ATOM     23  C   UNL     1      48.278   5.907  19.643  0.00  0.00    +0.000 A 
ATOM     24  N   UNL     1      47.844   6.278  20.876  0.00  0.00    +0.000 NA
ATOM     25  C   UNL     1      47.420   7.496  20.947  0.00  0.00    +0.000 A 
ATOM     26  N   UNL     1      47.404   8.378  19.901  0.00  0.00    +0.000 N 
ATOM     27  C   UNL     1      47.919   8.079  18.664  0.00  0.00    +0.000 A 
ATOM     28  O   UNL     1      48.043   8.938  17.803  0.00  0.00    +0.000 OA
ATOM     29  C   UNL     1      48.349   6.700  18.511  0.00  0.00    +0.000 A 
ATOM     30  H   UNL     1      47.094   9.330  20.031  0.00  0.00    +0.000 HD
ENDBRANCH  17  20
ENDBRANCH   2  16
TORSDOF 5
ENDMDL
MODEL 5
REMARK VINA RESULT:    -7.320      2.660      4.237
REMARK INTER + INTRA:          -9.986
REMARK INTER:                  -8.914
REMARK INTRA:                  -1.071
REMARK UNBOUND:                -0.526
REMARK  Name = 
REMARK  6 active torsions:
REMARK  status: ('A' for Active; 'I' for Inactive)
REMARK    1  A    between atoms: C_1  and  C_2
REMARK    2  A    between atoms: C_2  and  N_3
REMARK    3  A    between atoms: C_2  and  C_16
REMARK    4  A    between atoms: C_4  and  C_6
REMARK    5  A    between atoms: C_19  and  O_20
REMARK    6  A    between atoms: O_20  and  C_21
REMARK                            x       y       z     vdW  Elec       q    Type
REMARK                         _______ _______ _______ _____ _____    ______ ____
ROOT
ATOM      1  C   UNL     1      47.154   4.538  15.226  0.00  0.00    +0.000 C 
ATOM      2  C   UNL     1      47.035   5.682  14.219  0.00  0.00    +0.000 C 
ENDROOT
BRANCH   2   3
ATOM      3  C   UNL     1      46.344   5.239  12.942  0.00  0.00    +0.000 A 
ATOM      4  C   UNL     1      45.721   3.981  12.910  0.00  0.00    +0.000 A 
ATOM      5  C   UNL     1      45.118   3.507  11.744  0.00  0.00    +0.000 A 
ATOM      6  C   UNL     1      45.078   4.303  10.598  0.00  0.00    +0.000 A 
ATOM      7  C   UNL     1      45.694   5.556  10.612  0.00  0.00    +0.000 A 
ATOM      8  C   UNL     1      46.319   6.023  11.776  0.00  0.00    +0.000 A 
BRANCH   6   9
ATOM      9  O   UNL     1      44.533   3.896   9.400  0.00  0.00    +0.000 OA
BRANCH   9  10
ATOM     10  C   UNL     1      45.344   3.217   8.501  0.00  0.00    +0.000 A 
ATOM     11  N   UNL     1      45.658   1.926   8.730  0.00  0.00    +0.000 NA
ATOM     12  C   UNL     1      46.467   1.340   7.831  0.00  0.00    +0.000 A 
ATOM     13  C   UNL     1      46.936   1.978   6.709  0.00  0.00    +0.000 A 
ATOM     14  C   UNL     1      46.523   3.280   6.549  0.00  0.00    +0.000 A 
ATOM     15  N   UNL     1      45.728   3.923   7.425  0.00  0.00    +0.000 NA
ENDBRANCH   9  10
ENDBRANCH   6   9
ENDBRANCH   2   3
BRANCH   2  16
ATOM     16  N   UNL     1      48.330   6.269  13.941  0.00  0.00    +0.000 N 
ATOM     17  C   UNL     1      48.834   7.304  14.686  0.00  0.00    +0.000 C 
ATOM     18  O   UNL     1      48.201   7.818  15.606  0.00  0.00    +0.000 OA
ATOM     19  H   UNL     1      48.842   5.920  13.138  0.00  0.00    +0.000 HD
BRANCH  17  20
ATOM     20  C   UNL     1      50.199   7.739  14.372  0.00  0.00    +0.000 A 
ATOM     21  C   UNL     1      51.190   7.645  15.340  0.00  0.00    +0.000 A 
ATOM     22  S   UNL     1      52.721   8.170  14.808  0.00  0.00    +0.000 S 
ATOM     23  C   UNL     1      52.103   8.596  13.278  0.00  0.00    +0.000 A 
ATOM     24  N   UNL     1      52.902   9.154  12.331  0.00  0.00    +0.000 NA
ATOM     25  C   UNL     1      52.290   9.473  11.240  0.00  0.00    +0.000 A 
ATOM     26  N   UNL     1      50.957   9.269  11.005  0.00  0.00    +0.000 N 
ATOM     27  C   UNL     1      50.133   8.623  11.891  0.00  0.00    +0.000 A 
ATOM     28  O   UNL     1      48.992   8.308  11.585  0.00  0.00    +0.000 OA
ATOM     29  C   UNL     1      50.755   8.303  13.165  0.00  0.00    +0.000 A 
ATOM     30  H   UNL     1      50.546   9.507  10.113  0.00  0.00    +0.000 HD
ENDBRANCH  17  20
ENDBRANCH   2  16
TORSDOF 5
ENDMDL
MODEL 6
REMARK VINA RESULT:    -7.265      3.227      8.019
REMARK INTER + INTRA:          -9.915
REMARK INTER:                  -8.959
REMARK INTRA:                  -0.956
REMARK UNBOUND:                -0.526
REMARK  Name = 
REMARK  6 active torsions:
REMARK  status: ('A' for Active; 'I' for Inactive)
REMARK    1  A    between atoms: C_1  and  C_2
REMARK    2  A    between atoms: C_2  and  N_3
REMARK    3  A    between atoms: C_2  and  C_16
REMARK    4  A    between atoms: C_4  and  C_6
REMARK    5  A    between atoms: C_19  and  O_20
REMARK    6  A    between atoms: O_20  and  C_21
REMARK                            x       y       z     vdW  Elec       q    Type
REMARK                         _______ _______ _______ _____ _____    ______ ____
ROOT
ATOM      1  C   UNL     1      49.370   7.753  12.702  0.00  0.00    +0.000 C 
ATOM      2  C   UNL     1      48.208   7.212  13.537  0.00  0.00    +0.000 C 
ENDROOT
BRANCH   2   3
ATOM      3  C   UNL     1      48.690   6.588  14.833  0.00  0.00    +0.000 A 
ATOM      4  C   UNL     1      49.918   7.005  15.371  0.00  0.00    +0.000 A 
ATOM      5  C   UNL     1      50.428   6.425  16.533  0.00  0.00    +0.000 A 
ATOM      6  C   UNL     1      49.696   5.450  17.214  0.00  0.00    +0.000 A 
ATOM      7  C   UNL     1      48.474   5.022  16.692  0.00  0.00    +0.000 A 
ATOM      8  C   UNL     1      47.972   5.589  15.513  0.00  0.00    +0.000 A 
BRANCH   6   9
ATOM      9  O   UNL     1      50.144   4.806  18.346  0.00  0.00    +0.000 OA
BRANCH   9  10
ATOM     10  C   UNL     1      51.003   3.725  18.196  0.00  0.00    +0.000 A 
ATOM     11  N   UNL     1      50.601   2.647  17.493  0.00  0.00    +0.000 NA
ATOM     12  C   UNL     1      51.474   1.630  17.410  0.00  0.00    +0.000 A 
ATOM     13  C   UNL     1      52.730   1.665  17.965  0.00  0.00    +0.000 A 
ATOM     14  C   UNL     1      53.055   2.826  18.625  0.00  0.00    +0.000 A 
ATOM     15  N   UNL     1      52.215   3.871  18.756  0.00  0.00    +0.000 NA
ENDBRANCH   9  10
ENDBRANCH   6   9
ENDBRANCH   2   3
BRANCH   2  16
ATOM     16  N   UNL     1      47.405   6.280  12.770  0.00  0.00    +0.000 N 
ATOM     17  C   UNL     1      46.419   6.704  11.915  0.00  0.00    +0.000 C 
ATOM     18  O   UNL     1      46.135   7.892  11.780  0.00  0.00    +0.000 OA
ATOM     19  H   UNL     1      47.561   5.290  12.921  0.00  0.00    +0.000 HD
BRANCH  17  20
ATOM     20  C   UNL     1      45.750   5.670  11.119  0.00  0.00    +0.000 A 
ATOM     21  C   UNL     1      45.820   5.718   9.733  0.00  0.00    +0.000 A 
ATOM     22  S   UNL     1      45.008   4.434   8.960  0.00  0.00    +0.000 S 
ATOM     23  C   UNL     1      44.486   3.797  10.451  0.00  0.00    +0.000 A 
ATOM     24  N   UNL     1      43.697   2.691  10.501  0.00  0.00    +0.000 NA
ATOM     25  C   UNL     1      43.335   2.349  11.693  0.00  0.00    +0.000 A 
ATOM     26  N   UNL     1      43.702   3.004  12.837  0.00  0.00    +0.000 N 
ATOM     27  C   UNL     1      44.573   4.065  12.844  0.00  0.00    +0.000 A 
ATOM     28  O   UNL     1      45.011   4.521  13.890  0.00  0.00    +0.000 OA
ATOM     29  C   UNL     1      44.958   4.532  11.524  0.00  0.00    +0.000 A 
ATOM     30  H   UNL     1      43.415   2.663  13.744  0.00  0.00    +0.000 HD
ENDBRANCH  17  20
ENDBRANCH   2  16
TORSDOF 5
ENDMDL
MODEL 7
REMARK VINA RESULT:    -7.226      2.605      4.023
REMARK INTER + INTRA:          -9.864
REMARK INTER:                  -9.652
REMARK INTRA:                  -0.212
REMARK UNBOUND:                -0.526
REMARK  Name = 
REMARK  6 active torsions:
REMARK  status: ('A' for Active; 'I' for Inactive)
REMARK    1  A    between atoms: C_1  and  C_2
REMARK    2  A    between atoms: C_2  and  N_3
REMARK    3  A    between atoms: C_2  and  C_16
REMARK    4  A    between atoms: C_4  and  C_6
REMARK    5  A    between atoms: C_19  and  O_20
REMARK    6  A    between atoms: O_20  and  C_21
REMARK                            x       y       z     vdW  Elec       q    Type
REMARK                         _______ _______ _______ _____ _____    ______ ____
ROOT
ATOM      1  C   UNL     1      46.911   4.453  14.549  0.00  0.00    +0.000 C 
ATOM      2  C   UNL     1      46.033   5.440  13.778  0.00  0.00    +0.000 C 
ENDROOT
BRANCH   2   3
ATOM      3  C   UNL     1      45.610   4.884  12.431  0.00  0.00    +0.000 A 
ATOM      4  C   UNL     1      45.262   3.528  12.337  0.00  0.00    +0.000 A 
ATOM      5  C   UNL     1      44.915   2.958  11.111  0.00  0.00    +0.000 A 
ATOM      6  C   UNL     1      44.860   3.745   9.959  0.00  0.00    +0.000 A 
ATOM      7  C   UNL     1      45.205   5.095  10.034  0.00  0.00    +0.000 A 
ATOM      8  C   UNL     1      45.574   5.663  11.262  0.00  0.00    +0.000 A 
BRANCH   6   9
ATOM      9  O   UNL     1      44.561   3.252   8.707  0.00  0.00    +0.000 OA
BRANCH   9  10
ATOM     10  C   UNL     1      45.590   2.717   7.944  0.00  0.00    +0.000 A 
ATOM     11  N   UNL     1      46.064   1.488   8.231  0.00  0.00    +0.000 NA
ATOM     12  C   UNL     1      47.075   1.045   7.466  0.00  0.00    +0.000 A 
ATOM     13  C   UNL     1      47.599   1.761   6.418  0.00  0.00    +0.000 A 
ATOM     14  C   UNL     1      47.018   2.984   6.185  0.00  0.00    +0.000 A 
ATOM     15  N   UNL     1      46.014   3.487   6.928  0.00  0.00    +0.000 NA
ENDBRANCH   9  10
ENDBRANCH   6   9
ENDBRANCH   2   3
BRANCH   2  16
ATOM     16  N   UNL     1      46.692   6.723  13.636  0.00  0.00    +0.000 N 
ATOM     17  C   UNL     1      47.982   6.831  13.183  0.00  0.00    +0.000 C 
ATOM     18  O   UNL     1      48.664   5.846  12.909  0.00  0.00    +0.000 OA
ATOM     19  H   UNL     1      46.182   7.549  13.929  0.00  0.00    +0.000 HD
BRANCH  17  20
ATOM     20  C   UNL     1      48.498   8.189  12.982  0.00  0.00    +0.000 A 
ATOM     21  C   UNL     1      48.773   8.637  11.697  0.00  0.00    +0.000 A 
ATOM     22  S   UNL     1      49.345  10.241  11.637  0.00  0.00    +0.000 S 
ATOM     23  C   UNL     1      49.297  10.378  13.334  0.00  0.00    +0.000 A 
ATOM     24  N   UNL     1      49.704  11.516  13.956  0.00  0.00    +0.000 NA
ATOM     25  C   UNL     1      49.663  11.462  15.246  0.00  0.00    +0.000 A 
ATOM     26  N   UNL     1      49.238  10.379  15.967  0.00  0.00    +0.000 N 
ATOM     27  C   UNL     1      48.729   9.246  15.384  0.00  0.00    +0.000 A 
ATOM     28  O   UNL     1      48.204   8.368  16.053  0.00  0.00    +0.000 OA
ATOM     29  C   UNL     1      48.815   9.228  13.934  0.00  0.00    +0.000 A 
ATOM     30  H   UNL     1      49.194  10.414  16.976  0.00  0.00    +0.000 HD
ENDBRANCH  17  20
ENDBRANCH   2  16
TORSDOF 5
ENDMDL
MODEL 8
REMARK VINA RESULT:    -6.924      2.931      8.643
REMARK INTER + INTRA:          -9.474
REMARK INTER:                  -8.568
REMARK INTRA:                  -0.906
REMARK UNBOUND:                -0.526
REMARK  Name = 
REMARK  6 active torsions:
REMARK  status: ('A' for Active; 'I' for Inactive)
REMARK    1  A    between atoms: C_1  and  C_2
REMARK    2  A    between atoms: C_2  and  N_3
REMARK    3  A    between atoms: C_2  and  C_16
REMARK    4  A    between atoms: C_4  and  C_6
REMARK    5  A    between atoms: C_19  and  O_20
REMARK    6  A    between atoms: O_20  and  C_21
REMARK                            x       y       z     vdW  Elec       q    Type
REMARK                         _______ _______ _______ _____ _____    ______ ____
ROOT
ATOM      1  C   UNL     1      48.639   7.893  11.476  0.00  0.00    +0.000 C 
ATOM      2  C   UNL     1      47.527   7.758  12.518  0.00  0.00    +0.000 C 
ENDROOT
BRANCH   2   3
ATOM      3  C   UNL     1      48.066   7.858  13.933  0.00  0.00    +0.000 A 
ATOM      4  C   UNL     1      48.675   6.731  14.507  0.00  0.00    +0.000 A 
ATOM      5  C   UNL     1      49.140   6.757  15.823  0.00  0.00    +0.000 A 
ATOM      6  C   UNL     1      49.053   7.929  16.578  0.00  0.00    +0.000 A 
ATOM      7  C   UNL     1      48.448   9.058  16.022  0.00  0.00    +0.000 A 
ATOM      8  C   UNL     1      47.961   9.025  14.708  0.00  0.00    +0.000 A 
BRANCH   6   9
ATOM      9  O   UNL     1      49.457   8.026  17.891  0.00  0.00    +0.000 OA
BRANCH   9  10
ATOM     10  C   UNL     1      49.118   7.002  18.765  0.00  0.00    +0.000 A 
ATOM     11  N   UNL     1      50.075   6.167  19.217  0.00  0.00    +0.000 NA
ATOM     12  C   UNL     1      49.670   5.185  20.040  0.00  0.00    +0.000 A 
ATOM     13  C   UNL     1      48.369   5.032  20.449  0.00  0.00    +0.000 A 
ATOM     14  C   UNL     1      47.479   5.960  19.962  0.00  0.00    +0.000 A 
ATOM     15  N   UNL     1      47.823   6.955  19.122  0.00  0.00    +0.000 NA
ENDBRANCH   9  10
ENDBRANCH   6   9
ENDBRANCH   2   3
BRANCH   2  16
ATOM     16  N   UNL     1      46.778   6.532  12.324  0.00  0.00    +0.000 N 
ATOM     17  C   UNL     1      45.518   6.529  11.782  0.00  0.00    +0.000 C 
ATOM     18  O   UNL     1      44.938   7.565  11.466  0.00  0.00    +0.000 OA
ATOM     19  H   UNL     1      47.197   5.668  12.649  0.00  0.00    +0.000 HD
BRANCH  17  20
ATOM     20  C   UNL     1      44.909   5.217  11.540  0.00  0.00    +0.000 A 
ATOM     21  C   UNL     1      44.168   4.608  12.544  0.00  0.00    +0.000 A 
ATOM     22  S   UNL     1      43.513   3.100  12.095  0.00  0.00    +0.000 S 
ATOM     23  C   UNL     1      44.243   3.181  10.558  0.00  0.00    +0.000 A 
ATOM     24  N   UNL     1      44.108   2.164   9.666  0.00  0.00    +0.000 NA
ATOM     25  C   UNL     1      44.755   2.336   8.562  0.00  0.00    +0.000 A 
ATOM     26  N   UNL     1      45.511   3.438   8.264  0.00  0.00    +0.000 N 
ATOM     27  C   UNL     1      45.598   4.529   9.092  0.00  0.00    +0.000 A 
ATOM     28  O   UNL     1      46.142   5.562   8.728  0.00  0.00    +0.000 OA
ATOM     29  C   UNL     1      44.943   4.360  10.378  0.00  0.00    +0.000 A 
ATOM     30  H   UNL     1      45.963   3.529   7.366  0.00  0.00    +0.000 HD
ENDBRANCH  17  20
ENDBRANCH   2  16
TORSDOF 5
ENDMDL
MODEL 9
REMARK VINA RESULT:    -6.813      3.989      9.582
REMARK INTER + INTRA:          -9.330
REMARK INTER:                  -8.232
REMARK INTRA:                  -1.099
REMARK UNBOUND:                -0.526
REMARK  Name = 
REMARK  6 active torsions:
REMARK  status: ('A' for Active; 'I' for Inactive)
REMARK    1  A    between atoms: C_1  and  C_2
REMARK    2  A    between atoms: C_2  and  N_3
REMARK    3  A    between atoms: C_2  and  C_16
REMARK    4  A    between atoms: C_4  and  C_6
REMARK    5  A    between atoms: C_19  and  O_20
REMARK    6  A    between atoms: O_20  and  C_21
REMARK                            x       y       z     vdW  Elec       q    Type
REMARK                         _______ _______ _______ _____ _____    ______ ____
ROOT
ATOM      1  C   UNL     1      47.887   2.950  16.521  0.00  0.00    +0.000 C 
ATOM      2  C   UNL     1      48.139   4.414  16.157  0.00  0.00    +0.000 C 
ENDROOT
BRANCH   2   3
ATOM      3  C   UNL     1      48.211   5.296  17.389  0.00  0.00    +0.000 A 
ATOM      4  C   UNL     1      49.133   6.354  17.413  0.00  0.00    +0.000 A 
ATOM      5  C   UNL     1      49.273   7.161  18.542  0.00  0.00    +0.000 A 
ATOM      6  C   UNL     1      48.457   6.960  19.657  0.00  0.00    +0.000 A 
ATOM      7  C   UNL     1      47.536   5.911  19.652  0.00  0.00    +0.000 A 
ATOM      8  C   UNL     1      47.410   5.087  18.525  0.00  0.00    +0.000 A 
BRANCH   6   9
ATOM      9  O   UNL     1      48.556   7.690  20.821  0.00  0.00    +0.000 OA
BRANCH   9  10
ATOM     10  C   UNL     1      48.098   9.001  20.821  0.00  0.00    +0.000 A 
ATOM     11  N   UNL     1      48.984  10.017  20.812  0.00  0.00    +0.000 NA
ATOM     12  C   UNL     1      48.469  11.258  20.836  0.00  0.00    +0.000 A 
ATOM     13  C   UNL     1      47.120  11.516  20.832  0.00  0.00    +0.000 A 
ATOM     14  C   UNL     1      46.304  10.410  20.799  0.00  0.00    +0.000 A 
ATOM     15  N   UNL     1      46.762   9.144  20.791  0.00  0.00    +0.000 NA
ENDBRANCH   9  10
ENDBRANCH   6   9
ENDBRANCH   2   3
BRANCH   2  16
ATOM     16  N   UNL     1      47.143   4.896  15.221  0.00  0.00    +0.000 N 
ATOM     17  C   UNL     1      47.485   5.619  14.105  0.00  0.00    +0.000 C 
ATOM     18  O   UNL     1      48.648   5.930  13.858  0.00  0.00    +0.000 OA
ATOM     19  H   UNL     1      46.168   4.724  15.439  0.00  0.00    +0.000 HD
BRANCH  17  20
ATOM     20  C   UNL     1      46.397   5.958  13.182  0.00  0.00    +0.000 A 
ATOM     21  C   UNL     1      46.155   7.288  12.865  0.00  0.00    +0.000 A 
ATOM     22  S   UNL     1      44.872   7.508  11.764  0.00  0.00    +0.000 S 
ATOM     23  C   UNL     1      44.558   5.834  11.714  0.00  0.00    +0.000 A 
ATOM     24  N   UNL     1      43.535   5.337  10.970  0.00  0.00    +0.000 NA
ATOM     25  C   UNL     1      43.380   4.059  11.066  0.00  0.00    +0.000 A 
ATOM     26  N   UNL     1      44.165   3.233  11.825  0.00  0.00    +0.000 N 
ATOM     27  C   UNL     1      45.265   3.675  12.515  0.00  0.00    +0.000 A 
ATOM     28  O   UNL     1      46.039   2.892  13.046  0.00  0.00    +0.000 OA
ATOM     29  C   UNL     1      45.445   5.116  12.496  0.00  0.00    +0.000 A 
ATOM     30  H   UNL     1      44.014   2.234  11.827  0.00  0.00    +0.000 HD
ENDBRANCH  17  20
ENDBRANCH   2  16
TORSDOF 5
ENDMDL
