MODEL 1
REMARK VINA RESULT:    -7.796      0.000      0.000
REMARK INTER + INTRA:         -10.977
REMARK INTER:                 -10.074
REMARK INTRA:                  -0.903
REMARK UNBOUND:                -0.903
REMARK  Name = 
REMARK  5 active torsions:
REMARK  status: ('A' for Active; 'I' for Inactive)
REMARK    1  A    between atoms: C_2  and  C_17
REMARK    2  A    between atoms: N_3  and  C_4
REMARK    3  A    between atoms: C_4  and  C_5
REMARK    4  A    between atoms: C_8  and  C_9
REMARK    5  A    between atoms: C_9  and  C_10
REMARK                            x       y       z     vdW  Elec       q    Type
REMARK                         _______ _______ _______ _____ _____    ______ ____
ROOT
ATOM      1  O   UNL     1      48.319   7.438  12.706  0.00  0.00    +0.000 OA
ATOM      2  C   UNL     1      47.651   7.081  13.670  0.00  0.00    +0.000 C 
ATOM      3  N   UNL     1      46.281   7.039  13.635  0.00  0.00    +0.000 N 
ATOM      4  H   UNL     1      45.768   6.917  14.502  0.00  0.00    +0.000 HD
ENDROOT
BRANCH   2   5
ATOM      5  C   UNL     1      48.278   6.610  14.910  0.00  0.00    +0.000 A 
ATOM      6  C   UNL     1      49.247   7.387  15.530  0.00  0.00    +0.000 A 
ATOM      7  S   UNL     1      49.896   6.675  16.937  0.00  0.00    +0.000 S 
ATOM      8  C   UNL     1      48.866   5.327  16.798  0.00  0.00    +0.000 A 
ATOM      9  N   UNL     1      48.893   4.327  17.716  0.00  0.00    +0.000 NA
ATOM     10  C   UNL     1      48.027   3.391  17.512  0.00  0.00    +0.000 A 
ATOM     11  N   UNL     1      47.145   3.358  16.465  0.00  0.00    +0.000 N 
ATOM     12  C   UNL     1      47.134   4.308  15.470  0.00  0.00    +0.000 A 
ATOM     13  O   UNL     1      46.420   4.179  14.480  0.00  0.00    +0.000 OA
ATOM     14  C   UNL     1      48.059   5.409  15.677  0.00  0.00    +0.000 A 
ATOM     15  H   UNL     1      46.511   2.581  16.347  0.00  0.00    +0.000 HD
ENDBRANCH   2   5
BRANCH   3  16
ATOM     16  C   UNL     1      45.521   7.516  12.508  0.00  0.00    +0.000 C 
BRANCH  16  17
ATOM     17  C   UNL     1      45.271   6.419  11.518  0.00  0.00    +0.000 A 
ATOM     18  C   UNL     1      44.209   5.531  11.673  0.00  0.00    +0.000 A 
ATOM     19  C   UNL     1      44.028   4.505  10.749  0.00  0.00    +0.000 A 
ATOM     20  C   UNL     1      44.875   4.417   9.648  0.00  0.00    +0.000 A 
ATOM     21  N   UNL     1      45.893   5.291   9.464  0.00  0.00    +0.000 NA
ATOM     22  C   UNL     1      46.072   6.260  10.395  0.00  0.00    +0.000 A 
BRANCH  20  23
ATOM     23  C   UNL     1      44.747   3.291   8.649  0.00  0.00    +0.000 C 
BRANCH  23  24
ATOM     24  C   UNL     1      46.050   2.547   8.300  0.00  0.00    +0.000 C 
ATOM     25  C   UNL     1      46.513   2.712   6.858  0.00  0.00    +0.000 C 
ATOM     26  C   UNL     1      47.367   1.489   6.599  0.00  0.00    +0.000 C 
ATOM     27  C   UNL     1      46.806   0.424   7.524  0.00  0.00    +0.000 C 
ATOM     28  N   UNL     1      45.840   1.090   8.395  0.00  0.00    +0.000 NA
ATOM     29  H   UNL     1      45.942   0.777   9.359  0.00  0.00    +0.000 HD
ENDBRANCH  23  24
ENDBRANCH  20  23
ENDBRANCH  16  17
ENDBRANCH   3  16
TORSDOF 5
ENDMDL
MODEL 2
REMARK VINA RESULT:    -7.787      1.399      1.950
REMARK INTER + INTRA:         -10.967
REMARK INTER:                  -9.816
REMARK INTRA:                  -1.151
REMARK UNBOUND:                -0.903
REMARK  Name = 
REMARK  5 active torsions:
REMARK  status: ('A' for Active; 'I' for Inactive)
REMARK    1  A    between atoms: C_2  and  C_17
REMARK    2  A    between atoms: N_3  and  C_4
REMARK    3  A    between atoms: C_4  and  C_5
REMARK    4  A    between atoms: C_8  and  C_9
REMARK    5  A    between atoms: C_9  and  C_10
REMARK                            x       y       z     vdW  Elec       q    Type
REMARK                         _______ _______ _______ _____ _____    ______ ____
ROOT
ATOM      1  O   UNL     1      49.644   6.980  13.837  0.00  0.00    +0.000 OA
ATOM      2  C   UNL     1      48.801   6.890  14.723  0.00  0.00    +0.000 C 
ATOM      3  N   UNL     1      47.515   7.334  14.557  0.00  0.00    +0.000 N 
ATOM      4  H   UNL     1      46.909   7.407  15.367  0.00  0.00    +0.000 HD
ENDROOT
BRANCH   2   5
ATOM      5  C   UNL     1      49.096   6.238  16.004  0.00  0.00    +0.000 A 
ATOM      6  C   UNL     1      50.071   6.769  16.838  0.00  0.00    +0.000 A 
ATOM      7  S   UNL     1      50.312   5.868  18.266  0.00  0.00    +0.000 S 
ATOM      8  C   UNL     1      49.084   4.767  17.846  0.00  0.00    +0.000 A 
ATOM      9  N   UNL     1      48.755   3.736  18.667  0.00  0.00    +0.000 NA
ATOM     10  C   UNL     1      47.777   3.008  18.245  0.00  0.00    +0.000 A 
ATOM     11  N   UNL     1      47.104   3.209  17.069  0.00  0.00    +0.000 N 
ATOM     12  C   UNL     1      47.452   4.191  16.170  0.00  0.00    +0.000 A 
ATOM     13  O   UNL     1      46.913   4.261  15.069  0.00  0.00    +0.000 OA
ATOM     14  C   UNL     1      48.519   5.069  16.619  0.00  0.00    +0.000 A 
ATOM     15  H   UNL     1      46.364   2.585  16.783  0.00  0.00    +0.000 HD
ENDBRANCH   2   5
BRANCH   3  16
ATOM     16  C   UNL     1      47.086   8.038  13.376  0.00  0.00    +0.000 C 
BRANCH  16  17
ATOM     17  C   UNL     1      46.203   7.181  12.521  0.00  0.00    +0.000 A 
ATOM     18  C   UNL     1      45.025   7.679  11.969  0.00  0.00    +0.000 A 
ATOM     19  C   UNL     1      44.214   6.843  11.206  0.00  0.00    +0.000 A 
ATOM     20  C   UNL     1      44.622   5.536  10.955  0.00  0.00    +0.000 A 
ATOM     21  N   UNL     1      45.779   5.044  11.457  0.00  0.00    +0.000 NA
ATOM     22  C   UNL     1      46.536   5.865  12.226  0.00  0.00    +0.000 A 
BRANCH  20  23
ATOM     23  C   UNL     1      43.750   4.579  10.176  0.00  0.00    +0.000 C 
BRANCH  23  24
ATOM     24  C   UNL     1      44.362   4.008   8.883  0.00  0.00    +0.000 C 
ATOM     25  C   UNL     1      44.999   2.631   9.033  0.00  0.00    +0.000 C 
ATOM     26  C   UNL     1      46.008   2.563   7.906  0.00  0.00    +0.000 C 
ATOM     27  C   UNL     1      46.407   4.007   7.659  0.00  0.00    +0.000 C 
ATOM     28  N   UNL     1      45.507   4.835   8.457  0.00  0.00    +0.000 NA
ATOM     29  H   UNL     1      45.186   5.642   7.925  0.00  0.00    +0.000 HD
ENDBRANCH  23  24
ENDBRANCH  20  23
ENDBRANCH  16  17
ENDBRANCH   3  16
TORSDOF 5
ENDMDL
MODEL 3
REMARK VINA RESULT:    -7.466      2.102      2.836
REMARK INTER + INTRA:         -10.551
REMARK INTER:                  -9.584
REMARK INTRA:                  -0.968
REMARK UNBOUND:                -0.903
REMARK  Name = 
REMARK  5 active torsions:
REMARK  status: ('A' for Active; 'I' for Inactive)
REMARK    1  A    between atoms: C_2  and  C_17
REMARK    2  A    between atoms: N_3  and  C_4
REMARK    3  A    between atoms: C_4  and  C_5
REMARK    4  A    between atoms: C_8  and  C_9
REMARK    5  A    between atoms: C_9  and  C_10
REMARK                            x       y       z     vdW  Elec       q    Type
REMARK                         _______ _______ _______ _____ _____    ______ ____
ROOT
ATOM      1  O   UNL     1      50.428   6.776  15.425  0.00  0.00    +0.000 OA
ATOM      2  C   UNL     1      49.251   6.760  15.769  0.00  0.00    +0.000 C 
ATOM      3  N   UNL     1      48.226   6.637  14.868  0.00  0.00    +0.000 N 
ATOM      4  H   UNL     1      47.275   6.812  15.174  0.00  0.00    +0.000 HD
ENDROOT
BRANCH   2   5
ATOM      5  C   UNL     1      48.862   6.806  17.184  0.00  0.00    +0.000 A 
ATOM      6  C   UNL     1      48.392   7.992  17.731  0.00  0.00    +0.000 A 
ATOM      7  S   UNL     1      48.021   7.878  19.392  0.00  0.00    +0.000 S 
ATOM      8  C   UNL     1      48.424   6.225  19.426  0.00  0.00    +0.000 A 
ATOM      9  N   UNL     1      48.307   5.498  20.567  0.00  0.00    +0.000 NA
ATOM     10  C   UNL     1      48.603   4.248  20.438  0.00  0.00    +0.000 A 
ATOM     11  N   UNL     1      49.018   3.661  19.272  0.00  0.00    +0.000 N 
ATOM     12  C   UNL     1      49.225   4.372  18.112  0.00  0.00    +0.000 A 
ATOM     13  O   UNL     1      49.721   3.838  17.124  0.00  0.00    +0.000 OA
ATOM     14  C   UNL     1      48.863   5.776  18.192  0.00  0.00    +0.000 A 
ATOM     15  H   UNL     1      49.261   2.682  19.245  0.00  0.00    +0.000 HD
ENDBRANCH   2   5
BRANCH   3  16
ATOM     16  C   UNL     1      48.445   6.631  13.444  0.00  0.00    +0.000 C 
BRANCH  16  17
ATOM     17  C   UNL     1      47.250   6.103  12.712  0.00  0.00    +0.000 A 
ATOM     18  C   UNL     1      46.515   5.027  13.205  0.00  0.00    +0.000 A 
ATOM     19  C   UNL     1      45.429   4.544  12.479  0.00  0.00    +0.000 A 
ATOM     20  C   UNL     1      45.054   5.182  11.300  0.00  0.00    +0.000 A 
ATOM     21  N   UNL     1      45.737   6.250  10.822  0.00  0.00    +0.000 NA
ATOM     22  C   UNL     1      46.812   6.680  11.526  0.00  0.00    +0.000 A 
BRANCH  20  23
ATOM     23  C   UNL     1      43.915   4.662  10.455  0.00  0.00    +0.000 C 
BRANCH  23  24
ATOM     24  C   UNL     1      44.314   3.874   9.195  0.00  0.00    +0.000 C 
ATOM     25  C   UNL     1      45.015   2.548   9.467  0.00  0.00    +0.000 C 
ATOM     26  C   UNL     1      45.816   2.285   8.209  0.00  0.00    +0.000 C 
ATOM     27  C   UNL     1      46.116   3.663   7.648  0.00  0.00    +0.000 C 
ATOM     28  N   UNL     1      45.339   4.617   8.437  0.00  0.00    +0.000 NA
ATOM     29  H   UNL     1      44.903   5.316   7.837  0.00  0.00    +0.000 HD
ENDBRANCH  23  24
ENDBRANCH  20  23
ENDBRANCH  16  17
ENDBRANCH   3  16
TORSDOF 5
ENDMDL
MODEL 4
REMARK VINA RESULT:    -6.900      3.365      7.787
REMARK INTER + INTRA:          -9.820
REMARK INTER:                  -9.032
REMARK INTRA:                  -0.789
REMARK UNBOUND:                -0.903
REMARK  Name = 
REMARK  5 active torsions:
REMARK  status: ('A' for Active; 'I' for Inactive)
REMARK    1  A    between atoms: C_2  and  C_17
REMARK    2  A    between atoms: N_3  and  C_4
REMARK    3  A    between atoms: C_4  and  C_5
REMARK    4  A    between atoms: C_8  and  C_9
REMARK    5  A    between atoms: C_9  and  C_10
REMARK                            x       y       z     vdW  Elec       q    Type
REMARK                         _______ _______ _______ _____ _____    ______ ____
ROOT
ATOM      1  O   UNL     1      47.979   6.892  11.874  0.00  0.00    +0.000 OA
ATOM      2  C   UNL     1      47.037   6.804  12.654  0.00  0.00    +0.000 C 
ATOM      3  N   UNL     1      47.128   7.208  13.961  0.00  0.00    +0.000 N 
ATOM      4  H   UNL     1      46.393   6.950  14.611  0.00  0.00    +0.000 HD
ENDROOT
BRANCH   2   5
ATOM      5  C   UNL     1      45.721   6.320  12.222  0.00  0.00    +0.000 A 
ATOM      6  C   UNL     1      44.812   7.205  11.659  0.00  0.00    +0.000 A 
ATOM      7  S   UNL     1      43.322   6.484  11.247  0.00  0.00    +0.000 S 
ATOM      8  C   UNL     1      43.858   4.951  11.757  0.00  0.00    +0.000 A 
ATOM      9  N   UNL     1      43.059   3.858  11.654  0.00  0.00    +0.000 NA
ATOM     10  C   UNL     1      43.610   2.755  12.036  0.00  0.00    +0.000 A 
ATOM     11  N   UNL     1      44.886   2.647  12.522  0.00  0.00    +0.000 N 
ATOM     12  C   UNL     1      45.704   3.736  12.717  0.00  0.00    +0.000 A 
ATOM     13  O   UNL     1      46.791   3.619  13.276  0.00  0.00    +0.000 OA
ATOM     14  C   UNL     1      45.147   4.997  12.260  0.00  0.00    +0.000 A 
ATOM     15  H   UNL     1      45.248   1.756  12.831  0.00  0.00    +0.000 HD
ENDBRANCH   2   5
BRANCH   3  16
ATOM     16  C   UNL     1      48.365   7.660  14.546  0.00  0.00    +0.000 C 
BRANCH  16  17
ATOM     17  C   UNL     1      48.911   6.651  15.510  0.00  0.00    +0.000 A 
ATOM     18  C   UNL     1      50.157   6.822  16.109  0.00  0.00    +0.000 A 
ATOM     19  C   UNL     1      50.645   5.848  16.975  0.00  0.00    +0.000 A 
ATOM     20  C   UNL     1      49.854   4.743  17.280  0.00  0.00    +0.000 A 
ATOM     21  N   UNL     1      48.626   4.576  16.732  0.00  0.00    +0.000 NA
ATOM     22  C   UNL     1      48.187   5.520  15.864  0.00  0.00    +0.000 A 
BRANCH  20  23
ATOM     23  C   UNL     1      50.363   3.637  18.174  0.00  0.00    +0.000 C 
BRANCH  23  24
ATOM     24  C   UNL     1      51.652   2.934  17.712  0.00  0.00    +0.000 C 
ATOM     25  C   UNL     1      51.506   1.440  17.451  0.00  0.00    +0.000 C 
ATOM     26  C   UNL     1      52.908   0.893  17.621  0.00  0.00    +0.000 C 
ATOM     27  C   UNL     1      53.575   1.841  18.602  0.00  0.00    +0.000 C 
ATOM     28  N   UNL     1      52.659   2.965  18.790  0.00  0.00    +0.000 NA
ATOM     29  H   UNL     1      53.163   3.851  18.783  0.00  0.00    +0.000 HD
ENDBRANCH  23  24
ENDBRANCH  20  23
ENDBRANCH  16  17
ENDBRANCH   3  16
TORSDOF 5
ENDMDL
MODEL 5
REMARK VINA RESULT:    -6.806      3.670      8.921
REMARK INTER + INTRA:          -9.698
REMARK INTER:                  -8.831
REMARK INTRA:                  -0.867
REMARK UNBOUND:                -0.903
REMARK  Name = 
REMARK  5 active torsions:
REMARK  status: ('A' for Active; 'I' for Inactive)
REMARK    1  A    between atoms: C_2  and  C_17
REMARK    2  A    between atoms: N_3  and  C_4
REMARK    3  A    between atoms: C_4  and  C_5
REMARK    4  A    between atoms: C_8  and  C_9
REMARK    5  A    between atoms: C_9  and  C_10
REMARK                            x       y       z     vdW  Elec       q    Type
REMARK                         _______ _______ _______ _____ _____    ______ ____
ROOT
ATOM      1  O   UNL     1      47.323   3.065  14.133  0.00  0.00    +0.000 OA
ATOM      2  C   UNL     1      46.905   4.127  14.581  0.00  0.00    +0.000 C 
ATOM      3  N   UNL     1      46.875   4.394  15.925  0.00  0.00    +0.000 N 
ATOM      4  H   UNL     1      46.358   5.200  16.258  0.00  0.00    +0.000 HD
ENDROOT
BRANCH   2   5
ATOM      5  C   UNL     1      46.469   5.217  13.699  0.00  0.00    +0.000 A 
ATOM      6  C   UNL     1      47.299   6.311  13.495  0.00  0.00    +0.000 A 
ATOM      7  S   UNL     1      46.623   7.498  12.474  0.00  0.00    +0.000 S 
ATOM      8  C   UNL     1      45.220   6.567  12.225  0.00  0.00    +0.000 A 
ATOM      9  N   UNL     1      44.222   7.005  11.415  0.00  0.00    +0.000 NA
ATOM     10  C   UNL     1      43.240   6.179  11.282  0.00  0.00    +0.000 A 
ATOM     11  N   UNL     1      43.159   4.957  11.897  0.00  0.00    +0.000 N 
ATOM     12  C   UNL     1      44.107   4.506  12.786  0.00  0.00    +0.000 A 
ATOM     13  O   UNL     1      43.938   3.466  13.417  0.00  0.00    +0.000 OA
ATOM     14  C   UNL     1      45.257   5.380  12.936  0.00  0.00    +0.000 A 
ATOM     15  H   UNL     1      42.348   4.369  11.773  0.00  0.00    +0.000 HD
ENDBRANCH   2   5
BRANCH   3  16
ATOM     16  C   UNL     1      47.223   3.409  16.917  0.00  0.00    +0.000 C 
BRANCH  16  17
ATOM     17  C   UNL     1      48.700   3.390  17.170  0.00  0.00    +0.000 A 
ATOM     18  C   UNL     1      49.449   2.227  17.006  0.00  0.00    +0.000 A 
ATOM     19  C   UNL     1      50.814   2.241  17.283  0.00  0.00    +0.000 A 
ATOM     20  C   UNL     1      51.423   3.434  17.662  0.00  0.00    +0.000 A 
ATOM     21  N   UNL     1      50.717   4.582  17.796  0.00  0.00    +0.000 NA
ATOM     22  C   UNL     1      49.384   4.536  17.556  0.00  0.00    +0.000 A 
BRANCH  20  23
ATOM     23  C   UNL     1      52.890   3.485  18.021  0.00  0.00    +0.000 C 
BRANCH  23  24
ATOM     24  C   UNL     1      53.479   4.889  18.255  0.00  0.00    +0.000 C 
ATOM     25  C   UNL     1      55.000   4.938  18.333  0.00  0.00    +0.000 C 
ATOM     26  C   UNL     1      55.291   6.187  19.137  0.00  0.00    +0.000 C 
ATOM     27  C   UNL     1      54.076   6.363  20.031  0.00  0.00    +0.000 C 
ATOM     28  N   UNL     1      53.083   5.388  19.585  0.00  0.00    +0.000 NA
ATOM     29  H   UNL     1      52.154   5.805  19.548  0.00  0.00    +0.000 HD
ENDBRANCH  23  24
ENDBRANCH  20  23
ENDBRANCH  16  17
ENDBRANCH   3  16
TORSDOF 5
ENDMDL
MODEL 6
REMARK VINA RESULT:    -6.719      2.648      3.522
REMARK INTER + INTRA:          -9.586
REMARK INTER:                  -8.174
REMARK INTRA:                  -1.412
REMARK UNBOUND:                -0.903
REMARK  Name = 
REMARK  5 active torsions:
REMARK  status: ('A' for Active; 'I' for Inactive)
REMARK    1  A    between atoms: C_2  and  C_17
REMARK    2  A    between atoms: N_3  and  C_4
REMARK    3  A    between atoms: C_4  and  C_5
REMARK    4  A    between atoms: C_8  and  C_9
REMARK    5  A    between atoms: C_9  and  C_10
REMARK                            x       y       z     vdW  Elec       q    Type
REMARK                         _______ _______ _______ _____ _____    ______ ____
ROOT
ATOM      1  O   UNL     1      48.660   8.596  15.861  0.00  0.00    +0.000 OA
ATOM      2  C   UNL     1      48.930   7.431  15.589  0.00  0.00    +0.000 C 
ATOM      3  N   UNL     1      49.080   6.997  14.297  0.00  0.00    +0.000 N 
ATOM      4  H   UNL     1      49.121   6.001  14.112  0.00  0.00    +0.000 HD
ENDROOT
BRANCH   2   5
ATOM      5  C   UNL     1      49.179   6.433  16.635  0.00  0.00    +0.000 A 
ATOM      6  C   UNL     1      50.127   6.686  17.616  0.00  0.00    +0.000 A 
ATOM      7  S   UNL     1      50.315   5.407  18.730  0.00  0.00    +0.000 S 
ATOM      8  C   UNL     1      49.095   4.493  17.972  0.00  0.00    +0.000 A 
ATOM      9  N   UNL     1      48.733   3.274  18.450  0.00  0.00    +0.000 NA
ATOM     10  C   UNL     1      47.766   2.714  17.806  0.00  0.00    +0.000 A 
ATOM     11  N   UNL     1      47.134   3.256  16.718  0.00  0.00    +0.000 N 
ATOM     12  C   UNL     1      47.518   4.450  16.152  0.00  0.00    +0.000 A 
ATOM     13  O   UNL     1      47.017   4.843  15.102  0.00  0.00    +0.000 OA
ATOM     14  C   UNL     1      48.574   5.145  16.868  0.00  0.00    +0.000 A 
ATOM     15  H   UNL     1      46.401   2.752  16.241  0.00  0.00    +0.000 HD
ENDBRANCH   2   5
BRANCH   3  16
ATOM     16  C   UNL     1      48.821   7.845  13.162  0.00  0.00    +0.000 C 
BRANCH  16  17
ATOM     17  C   UNL     1      47.430   7.649  12.642  0.00  0.00    +0.000 A 
ATOM     18  C   UNL     1      46.391   8.500  13.012  0.00  0.00    +0.000 A 
ATOM     19  C   UNL     1      45.104   8.267  12.533  0.00  0.00    +0.000 A 
ATOM     20  C   UNL     1      44.885   7.220  11.642  0.00  0.00    +0.000 A 
ATOM     21  N   UNL     1      45.888   6.401  11.246  0.00  0.00    +0.000 NA
ATOM     22  C   UNL     1      47.126   6.626  11.752  0.00  0.00    +0.000 A 
BRANCH  20  23
ATOM     23  C   UNL     1      43.497   6.898  11.137  0.00  0.00    +0.000 C 
BRANCH  23  24
ATOM     24  C   UNL     1      43.007   5.459  11.381  0.00  0.00    +0.000 C 
ATOM     25  C   UNL     1      43.371   4.884  12.745  0.00  0.00    +0.000 C 
ATOM     26  C   UNL     1      43.355   3.385  12.533  0.00  0.00    +0.000 C 
ATOM     27  C   UNL     1      43.698   3.200  11.066  0.00  0.00    +0.000 C 
ATOM     28  N   UNL     1      43.688   4.530  10.460  0.00  0.00    +0.000 NA
ATOM     29  H   UNL     1      43.219   4.515   9.556  0.00  0.00    +0.000 HD
ENDBRANCH  23  24
ENDBRANCH  20  23
ENDBRANCH  16  17
ENDBRANCH   3  16
TORSDOF 5
ENDMDL
MODEL 7
REMARK VINA RESULT:    -6.610      3.538      5.819
REMARK INTER + INTRA:          -9.445
REMARK INTER:                  -8.499
REMARK INTRA:                  -0.946
REMARK UNBOUND:                -0.903
REMARK  Name = 
REMARK  5 active torsions:
REMARK  status: ('A' for Active; 'I' for Inactive)
REMARK    1  A    between atoms: C_2  and  C_17
REMARK    2  A    between atoms: N_3  and  C_4
REMARK    3  A    between atoms: C_4  and  C_5
REMARK    4  A    between atoms: C_8  and  C_9
REMARK    5  A    between atoms: C_9  and  C_10
REMARK                            x       y       z     vdW  Elec       q    Type
REMARK                         _______ _______ _______ _____ _____    ______ ____
ROOT
ATOM      1  O   UNL     1      51.710   6.229  16.855  0.00  0.00    +0.000 OA
ATOM      2  C   UNL     1      51.374   5.289  17.567  0.00  0.00    +0.000 C 
ATOM      3  N   UNL     1      50.065   5.059  17.905  0.00  0.00    +0.000 N 
ATOM      4  H   UNL     1      49.854   4.389  18.637  0.00  0.00    +0.000 HD
ENDROOT
BRANCH   2   5
ATOM      5  C   UNL     1      52.347   4.305  18.055  0.00  0.00    +0.000 A 
ATOM      6  C   UNL     1      53.469   4.733  18.751  0.00  0.00    +0.000 A 
ATOM      7  S   UNL     1      54.512   3.464  19.211  0.00  0.00    +0.000 S 
ATOM      8  C   UNL     1      53.473   2.292  18.544  0.00  0.00    +0.000 A 
ATOM      9  N   UNL     1      53.769   0.969  18.617  0.00  0.00    +0.000 NA
ATOM     10  C   UNL     1      52.871   0.191  18.110  0.00  0.00    +0.000 A 
ATOM     11  N   UNL     1      51.708   0.618  17.526  0.00  0.00    +0.000 N 
ATOM     12  C   UNL     1      51.404   1.950  17.359  0.00  0.00    +0.000 A 
ATOM     13  O   UNL     1      50.417   2.297  16.715  0.00  0.00    +0.000 OA
ATOM     14  C   UNL     1      52.360   2.867  17.953  0.00  0.00    +0.000 A 
ATOM     15  H   UNL     1      51.060  -0.042  17.122  0.00  0.00    +0.000 HD
ENDBRANCH   2   5
BRANCH   3  16
ATOM     16  C   UNL     1      49.003   5.963  17.545  0.00  0.00    +0.000 C 
BRANCH  16  17
ATOM     17  C   UNL     1      48.241   5.461  16.356  0.00  0.00    +0.000 A 
ATOM     18  C   UNL     1      48.269   6.138  15.139  0.00  0.00    +0.000 A 
ATOM     19  C   UNL     1      47.522   5.658  14.066  0.00  0.00    +0.000 A 
ATOM     20  C   UNL     1      46.805   4.473  14.206  0.00  0.00    +0.000 A 
ATOM     21  N   UNL     1      46.792   3.784  15.372  0.00  0.00    +0.000 NA
ATOM     22  C   UNL     1      47.498   4.289  16.414  0.00  0.00    +0.000 A 
BRANCH  20  23
ATOM     23  C   UNL     1      45.941   3.942  13.086  0.00  0.00    +0.000 C 
BRANCH  23  24
ATOM     24  C   UNL     1      44.856   4.899  12.559  0.00  0.00    +0.000 C 
ATOM     25  C   UNL     1      43.452   4.624  13.086  0.00  0.00    +0.000 C 
ATOM     26  C   UNL     1      42.537   5.216  12.035  0.00  0.00    +0.000 C 
ATOM     27  C   UNL     1      43.330   5.132  10.742  0.00  0.00    +0.000 C 
ATOM     28  N   UNL     1      44.683   4.717  11.105  0.00  0.00    +0.000 NA
ATOM     29  H   UNL     1      45.380   5.257  10.593  0.00  0.00    +0.000 HD
ENDBRANCH  23  24
ENDBRANCH  20  23
ENDBRANCH  16  17
ENDBRANCH   3  16
TORSDOF 5
ENDMDL
MODEL 8
REMARK VINA RESULT:    -6.531      3.295      8.574
REMARK INTER + INTRA:          -9.343
REMARK INTER:                  -8.597
REMARK INTRA:                  -0.746
REMARK UNBOUND:                -0.903
REMARK  Name = 
REMARK  5 active torsions:
REMARK  status: ('A' for Active; 'I' for Inactive)
REMARK    1  A    between atoms: C_2  and  C_17
REMARK    2  A    between atoms: N_3  and  C_4
REMARK    3  A    between atoms: C_4  and  C_5
REMARK    4  A    between atoms: C_8  and  C_9
REMARK    5  A    between atoms: C_9  and  C_10
REMARK                            x       y       z     vdW  Elec       q    Type
REMARK                         _______ _______ _______ _____ _____    ______ ____
ROOT
ATOM      1  O   UNL     1      47.459   2.935  14.595  0.00  0.00    +0.000 OA
ATOM      2  C   UNL     1      47.107   4.102  14.729  0.00  0.00    +0.000 C 
ATOM      3  N   UNL     1      46.980   4.690  15.961  0.00  0.00    +0.000 N 
ATOM      4  H   UNL     1      46.515   5.589  16.034  0.00  0.00    +0.000 HD
ENDROOT
BRANCH   2   5
ATOM      5  C   UNL     1      46.860   4.970  13.573  0.00  0.00    +0.000 A 
ATOM      6  C   UNL     1      47.609   6.127  13.408  0.00  0.00    +0.000 A 
ATOM      7  S   UNL     1      47.168   7.036  12.034  0.00  0.00    +0.000 S 
ATOM      8  C   UNL     1      45.996   5.888  11.581  0.00  0.00    +0.000 A 
ATOM      9  N   UNL     1      45.253   6.051  10.455  0.00  0.00    +0.000 NA
ATOM     10  C   UNL     1      44.435   5.083  10.210  0.00  0.00    +0.000 A 
ATOM     11  N   UNL     1      44.284   3.970  10.995  0.00  0.00    +0.000 N 
ATOM     12  C   UNL     1      44.958   3.800  12.183  0.00  0.00    +0.000 A 
ATOM     13  O   UNL     1      44.702   2.856  12.925  0.00  0.00    +0.000 OA
ATOM     14  C   UNL     1      45.925   4.841  12.483  0.00  0.00    +0.000 A 
ATOM     15  H   UNL     1      43.605   3.261  10.761  0.00  0.00    +0.000 HD
ENDBRANCH   2   5
BRANCH   3  16
ATOM     16  C   UNL     1      47.141   3.956  17.189  0.00  0.00    +0.000 C 
BRANCH  16  17
ATOM     17  C   UNL     1      48.517   4.132  17.753  0.00  0.00    +0.000 A 
ATOM     18  C   UNL     1      48.714   4.511  19.080  0.00  0.00    +0.000 A 
ATOM     19  C   UNL     1      50.008   4.696  19.559  0.00  0.00    +0.000 A 
ATOM     20  C   UNL     1      51.092   4.441  18.723  0.00  0.00    +0.000 A 
ATOM     21  N   UNL     1      50.920   4.040  17.440  0.00  0.00    +0.000 NA
ATOM     22  C   UNL     1      49.651   3.901  16.985  0.00  0.00    +0.000 A 
BRANCH  20  23
ATOM     23  C   UNL     1      52.511   4.676  19.184  0.00  0.00    +0.000 C 
BRANCH  23  24
ATOM     24  C   UNL     1      53.481   3.493  19.015  0.00  0.00    +0.000 C 
ATOM     25  C   UNL     1      54.337   3.544  17.756  0.00  0.00    +0.000 C 
ATOM     26  C   UNL     1      54.707   2.098  17.497  0.00  0.00    +0.000 C 
ATOM     27  C   UNL     1      53.563   1.296  18.092  0.00  0.00    +0.000 C 
ATOM     28  N   UNL     1      52.723   2.241  18.825  0.00  0.00    +0.000 NA
ATOM     29  H   UNL     1      52.440   1.855  19.724  0.00  0.00    +0.000 HD
ENDBRANCH  23  24
ENDBRANCH  20  23
ENDBRANCH  16  17
ENDBRANCH   3  16
TORSDOF 5
ENDMDL
MODEL 9
REMARK VINA RESULT:    -6.333      3.965      8.654
REMARK INTER + INTRA:          -9.087
REMARK INTER:                  -7.794
REMARK INTRA:                  -1.293
REMARK UNBOUND:                -0.903
REMARK  Name = 
REMARK  5 active torsions:
REMARK  status: ('A' for Active; 'I' for Inactive)
REMARK    1  A    between atoms: C_2  and  C_17
REMARK    2  A    between atoms: N_3  and  C_4
REMARK    3  A    between atoms: C_4  and  C_5
REMARK    4  A    between atoms: C_8  and  C_9
REMARK    5  A    between atoms: C_9  and  C_10
REMARK                            x       y       z     vdW  Elec       q    Type
REMARK                         _______ _______ _______ _____ _____    ______ ____
ROOT
ATOM      1  O   UNL     1      47.413   2.947  14.400  0.00  0.00    +0.000 OA
ATOM      2  C   UNL     1      47.012   4.032  14.808  0.00  0.00    +0.000 C 
ATOM      3  N   UNL     1      46.974   4.343  16.143  0.00  0.00    +0.000 N 
ATOM      4  H   UNL     1      46.470   5.170  16.443  0.00  0.00    +0.000 HD
ENDROOT
BRANCH   2   5
ATOM      5  C   UNL     1      46.606   5.099  13.887  0.00  0.00    +0.000 A 
ATOM      6  C   UNL     1      45.436   4.966  13.153  0.00  0.00    +0.000 A 
ATOM      7  S   UNL     1      45.134   6.279  12.106  0.00  0.00    +0.000 S 
ATOM      8  C   UNL     1      46.529   7.097  12.637  0.00  0.00    +0.000 A 
ATOM      9  N   UNL     1      46.854   8.320  12.146  0.00  0.00    +0.000 NA
ATOM     10  C   UNL     1      47.912   8.843  12.670  0.00  0.00    +0.000 A 
ATOM     11  N   UNL     1      48.682   8.247  13.634  0.00  0.00    +0.000 N 
ATOM     12  C   UNL     1      48.435   6.977  14.104  0.00  0.00    +0.000 A 
ATOM     13  O   UNL     1      49.219   6.424  14.871  0.00  0.00    +0.000 OA
ATOM     14  C   UNL     1      47.229   6.363  13.579  0.00  0.00    +0.000 A 
ATOM     15  H   UNL     1      49.515   8.698  13.983  0.00  0.00    +0.000 HD
ENDBRANCH   2   5
BRANCH   3  16
ATOM     16  C   UNL     1      47.294   3.385  17.170  0.00  0.00    +0.000 C 
BRANCH  16  17
ATOM     17  C   UNL     1      48.761   3.383  17.475  0.00  0.00    +0.000 A 
ATOM     18  C   UNL     1      49.596   2.367  17.015  0.00  0.00    +0.000 A 
ATOM     19  C   UNL     1      50.948   2.382  17.346  0.00  0.00    +0.000 A 
ATOM     20  C   UNL     1      51.461   3.447  18.083  0.00  0.00    +0.000 A 
ATOM     21  N   UNL     1      50.670   4.460  18.511  0.00  0.00    +0.000 NA
ATOM     22  C   UNL     1      49.350   4.406  18.207  0.00  0.00    +0.000 A 
BRANCH  20  23
ATOM     23  C   UNL     1      52.910   3.481  18.508  0.00  0.00    +0.000 C 
BRANCH  23  24
ATOM     24  C   UNL     1      53.740   4.666  17.982  0.00  0.00    +0.000 C 
ATOM     25  C   UNL     1      54.082   5.720  19.029  0.00  0.00    +0.000 C 
ATOM     26  C   UNL     1      54.317   6.981  18.224  0.00  0.00    +0.000 C 
ATOM     27  C   UNL     1      53.459   6.812  16.983  0.00  0.00    +0.000 C 
ATOM     28  N   UNL     1      52.953   5.441  17.005  0.00  0.00    +0.000 NA
ATOM     29  H   UNL     1      53.011   5.016  16.081  0.00  0.00    +0.000 HD
ENDBRANCH  23  24
ENDBRANCH  20  23
ENDBRANCH  16  17
ENDBRANCH   3  16
TORSDOF 5
ENDMDL
