MODEL 1
REMARK VINA RESULT:    -8.249      0.000      0.000
REMARK INTER + INTRA:         -13.446
REMARK INTER:                 -12.107
REMARK INTRA:                  -1.339
REMARK UNBOUND:                -1.339
REMARK  Name = 
REMARK  9 active torsions:
REMARK  status: ('A' for Active; 'I' for Inactive)
REMARK    1  A    between atoms: C_1  and  O_2
REMARK    2  A    between atoms: O_2  and  C_3
REMARK    3  A    between atoms: C_10  and  C_11
REMARK    4  A    between atoms: N_13  and  C_14
REMARK    5  A    between atoms: C_14  and  C_15
REMARK    6  A    between atoms: C_18  and  C_19
REMARK    7  A    between atoms: C_19  and  O_20
REMARK    8  A    between atoms: O_20  and  C_21
REMARK    9  A    between atoms: C_21  and  C_22
REMARK                            x       y       z     vdW  Elec       q    Type
REMARK                         _______ _______ _______ _____ _____    ______ ____
ROOT
ATOM      1  C   UNL     1      47.903   7.205  13.226  0.00  0.00    +0.000 C 
ENDROOT
BRANCH   1   2
ATOM      2  C   UNL     1      46.861   6.262  12.679  0.00  0.00    +0.000 A 
ATOM      3  C   UNL     1      46.394   6.389  11.364  0.00  0.00    +0.000 A 
ATOM      4  C   UNL     1      45.413   5.522  10.868  0.00  0.00    +0.000 A 
ATOM      5  C   UNL     1      44.872   4.513  11.679  0.00  0.00    +0.000 A 
ATOM      6  C   UNL     1      45.331   4.397  12.998  0.00  0.00    +0.000 A 
ATOM      7  C   UNL     1      46.310   5.265  13.494  0.00  0.00    +0.000 A 
BRANCH   5   8
ATOM      8  C   UNL     1      43.801   3.587  11.152  0.00  0.00    +0.000 C 
BRANCH   8   9
ATOM      9  O   UNL     1      43.985   3.397   9.754  0.00  0.00    +0.000 OA
BRANCH   9  10
ATOM     10  C   UNL     1      44.576   2.130   9.462  0.00  0.00    +0.000 C 
BRANCH  10  11
ATOM     11  C   UNL     1      45.609   2.269   8.369  0.00  0.00    +0.000 A 
ATOM     12  C   UNL     1      45.830   3.500   7.733  0.00  0.00    +0.000 A 
ATOM     13  C   UNL     1      46.816   3.630   6.754  0.00  0.00    +0.000 A 
ATOM     14  C   UNL     1      47.604   2.536   6.406  0.00  0.00    +0.000 A 
ATOM     15  C   UNL     1      47.405   1.310   7.038  0.00  0.00    +0.000 A 
ATOM     16  C   UNL     1      46.418   1.177   8.017  0.00  0.00    +0.000 A 
ENDBRANCH  10  11
ENDBRANCH   9  10
ENDBRANCH   8   9
ENDBRANCH   5   8
ENDBRANCH   1   2
BRANCH   1  19
ATOM     17  C   UNL     1      48.969   6.989  15.437  0.00  0.00    +0.000 C 
ATOM     18  O   UNL     1      50.051   6.715  14.924  0.00  0.00    +0.000 OA
ATOM     19  N   UNL     1      47.864   7.239  14.669  0.00  0.00    +0.000 N 
ATOM     20  H   UNL     1      46.969   7.409  15.105  0.00  0.00    +0.000 HD
BRANCH  17  28
ATOM     21  C   UNL     1      48.854   4.609  17.926  0.00  0.00    +0.000 A 
ATOM     22  N   UNL     1      48.782   3.906  19.074  0.00  0.00    +0.000 NA
ATOM     23  C   UNL     1      48.610   4.577  20.214  0.00  0.00    +0.000 A 
ATOM     24  N   UNL     1      48.496   5.897  20.354  0.00  0.00    +0.000 NA
ATOM     25  C   UNL     1      48.584   6.559  19.189  0.00  0.00    +0.000 A 
ATOM     26  S   UNL     1      48.459   8.252  19.178  0.00  0.00    +0.000 S 
ATOM     27  C   UNL     1      48.647   8.306  17.491  0.00  0.00    +0.000 A 
ATOM     28  C   UNL     1      48.810   7.057  16.901  0.00  0.00    +0.000 A 
ATOM     29  C   UNL     1      48.769   6.012  17.923  0.00  0.00    +0.000 A 
BRANCH  21  31
ATOM     30  C   UNL     1      47.871   3.273  16.284  0.00  0.00    +0.000 C 
ATOM     31  O   UNL     1      49.057   3.910  16.754  0.00  0.00    +0.000 OA
ENDBRANCH  21  31
ENDBRANCH  17  28
ENDBRANCH   1  19
TORSDOF 8
ENDMDL
MODEL 2
REMARK VINA RESULT:    -7.825      1.480      2.682
REMARK INTER + INTRA:         -12.823
REMARK INTER:                 -11.747
REMARK INTRA:                  -1.077
REMARK UNBOUND:                -1.339
REMARK  Name = 
REMARK  9 active torsions:
REMARK  status: ('A' for Active; 'I' for Inactive)
REMARK    1  A    between atoms: C_1  and  O_2
REMARK    2  A    between atoms: O_2  and  C_3
REMARK    3  A    between atoms: C_10  and  C_11
REMARK    4  A    between atoms: N_13  and  C_14
REMARK    5  A    between atoms: C_14  and  C_15
REMARK    6  A    between atoms: C_18  and  C_19
REMARK    7  A    between atoms: C_19  and  O_20
REMARK    8  A    between atoms: O_20  and  C_21
REMARK    9  A    between atoms: C_21  and  C_22
REMARK                            x       y       z     vdW  Elec       q    Type
REMARK                         _______ _______ _______ _____ _____    ______ ____
ROOT
ATOM      1  C   UNL     1      48.090   6.600  13.672  0.00  0.00    +0.000 C 
ENDROOT
BRANCH   1   2
ATOM      2  C   UNL     1      46.885   6.130  12.896  0.00  0.00    +0.000 A 
ATOM      3  C   UNL     1      45.978   5.219  13.455  0.00  0.00    +0.000 A 
ATOM      4  C   UNL     1      44.872   4.773  12.723  0.00  0.00    +0.000 A 
ATOM      5  C   UNL     1      44.652   5.222  11.412  0.00  0.00    +0.000 A 
ATOM      6  C   UNL     1      45.568   6.121  10.850  0.00  0.00    +0.000 A 
ATOM      7  C   UNL     1      46.674   6.565  11.581  0.00  0.00    +0.000 A 
BRANCH   5   8
ATOM      8  C   UNL     1      43.469   4.728  10.613  0.00  0.00    +0.000 C 
BRANCH   8   9
ATOM      9  O   UNL     1      43.924   4.183   9.379  0.00  0.00    +0.000 OA
BRANCH   9  10
ATOM     10  C   UNL     1      44.515   2.895   9.552  0.00  0.00    +0.000 C 
BRANCH  10  11
ATOM     11  C   UNL     1      45.527   2.629   8.463  0.00  0.00    +0.000 A 
ATOM     12  C   UNL     1      46.059   1.346   8.265  0.00  0.00    +0.000 A 
ATOM     13  C   UNL     1      46.962   1.100   7.229  0.00  0.00    +0.000 A 
ATOM     14  C   UNL     1      47.335   2.129   6.368  0.00  0.00    +0.000 A 
ATOM     15  C   UNL     1      46.805   3.405   6.544  0.00  0.00    +0.000 A 
ATOM     16  C   UNL     1      45.903   3.655   7.581  0.00  0.00    +0.000 A 
ENDBRANCH  10  11
ENDBRANCH   9  10
ENDBRANCH   8   9
ENDBRANCH   5   8
ENDBRANCH   1   2
BRANCH   1  19
ATOM     17  C   UNL     1      49.001   6.450  15.957  0.00  0.00    +0.000 C 
ATOM     18  O   UNL     1      50.051   6.982  15.607  0.00  0.00    +0.000 OA
ATOM     19  N   UNL     1      47.989   6.223  15.062  0.00  0.00    +0.000 N 
ATOM     20  H   UNL     1      47.153   5.736  15.352  0.00  0.00    +0.000 HD
BRANCH  17  28
ATOM     21  C   UNL     1      47.867   8.068  18.779  0.00  0.00    +0.000 A 
ATOM     22  N   UNL     1      47.459   8.443  20.007  0.00  0.00    +0.000 NA
ATOM     23  C   UNL     1      47.487   7.536  20.985  0.00  0.00    +0.000 A 
ATOM     24  N   UNL     1      47.882   6.268  20.887  0.00  0.00    +0.000 NA
ATOM     25  C   UNL     1      48.270   5.933  19.645  0.00  0.00    +0.000 A 
ATOM     26  S   UNL     1      48.808   4.352  19.335  0.00  0.00    +0.000 S 
ATOM     27  C   UNL     1      49.088   4.715  17.699  0.00  0.00    +0.000 A 
ATOM     28  C   UNL     1      48.783   6.026  17.352  0.00  0.00    +0.000 A 
ATOM     29  C   UNL     1      48.295   6.754  18.522  0.00  0.00    +0.000 A 
BRANCH  21  31
ATOM     30  C   UNL     1      47.831  10.343  18.260  0.00  0.00    +0.000 C 
ATOM     31  O   UNL     1      47.813   9.004  17.768  0.00  0.00    +0.000 OA
ENDBRANCH  21  31
ENDBRANCH  17  28
ENDBRANCH   1  19
TORSDOF 8
ENDMDL
MODEL 3
REMARK VINA RESULT:    -7.449      1.477      2.152
REMARK INTER + INTRA:         -12.271
REMARK INTER:                 -10.873
REMARK INTRA:                  -1.398
REMARK UNBOUND:                -1.339
REMARK  Name = 
REMARK  9 active torsions:
REMARK  status: ('A' for Active; 'I' for Inactive)
REMARK    1  A    between atoms: C_1  and  O_2
REMARK    2  A    between atoms: O_2  and  C_3
REMARK    3  A    between atoms: C_10  and  C_11
REMARK    4  A    between atoms: N_13  and  C_14
REMARK    5  A    between atoms: C_14  and  C_15
REMARK    6  A    between atoms: C_18  and  C_19
REMARK    7  A    between atoms: C_19  and  O_20
REMARK    8  A    between atoms: O_20  and  C_21
REMARK    9  A    between atoms: C_21  and  C_22
REMARK                            x       y       z     vdW  Elec       q    Type
REMARK                         _______ _______ _______ _____ _____    ______ ____
ROOT
ATOM      1  C   UNL     1      47.640   4.266  15.036  0.00  0.00    +0.000 C 
ENDROOT
BRANCH   1   2
ATOM      2  C   UNL     1      46.637   4.404  13.918  0.00  0.00    +0.000 A 
ATOM      3  C   UNL     1      46.078   5.650  13.601  0.00  0.00    +0.000 A 
ATOM      4  C   UNL     1      45.134   5.768  12.575  0.00  0.00    +0.000 A 
ATOM      5  C   UNL     1      44.722   4.642  11.846  0.00  0.00    +0.000 A 
ATOM      6  C   UNL     1      45.272   3.396  12.173  0.00  0.00    +0.000 A 
ATOM      7  C   UNL     1      46.214   3.277  13.201  0.00  0.00    +0.000 A 
BRANCH   5   8
ATOM      8  C   UNL     1      43.691   4.764  10.749  0.00  0.00    +0.000 C 
BRANCH   8   9
ATOM      9  O   UNL     1      43.968   3.811   9.729  0.00  0.00    +0.000 OA
BRANCH   9  10
ATOM     10  C   UNL     1      44.780   4.362   8.691  0.00  0.00    +0.000 C 
BRANCH  10  11
ATOM     11  C   UNL     1      45.669   3.296   8.096  0.00  0.00    +0.000 A 
ATOM     12  C   UNL     1      46.638   3.615   7.133  0.00  0.00    +0.000 A 
ATOM     13  C   UNL     1      47.484   2.631   6.619  0.00  0.00    +0.000 A 
ATOM     14  C   UNL     1      47.383   1.317   7.070  0.00  0.00    +0.000 A 
ATOM     15  C   UNL     1      46.434   0.987   8.035  0.00  0.00    +0.000 A 
ATOM     16  C   UNL     1      45.585   1.970   8.550  0.00  0.00    +0.000 A 
ENDBRANCH  10  11
ENDBRANCH   9  10
ENDBRANCH   8   9
ENDBRANCH   5   8
ENDBRANCH   1   2
BRANCH   1  19
ATOM     17  C   UNL     1      48.629   6.339  15.927  0.00  0.00    +0.000 C 
ATOM     18  O   UNL     1      49.620   6.211  15.213  0.00  0.00    +0.000 OA
ATOM     19  N   UNL     1      47.613   5.421  15.901  0.00  0.00    +0.000 N 
ATOM     20  H   UNL     1      46.830   5.511  16.532  0.00  0.00    +0.000 HD
BRANCH  17  28
ATOM     21  C   UNL     1      47.815   6.614  19.264  0.00  0.00    +0.000 A 
ATOM     22  N   UNL     1      47.536   7.004  20.523  0.00  0.00    +0.000 NA
ATOM     23  C   UNL     1      47.562   8.309  20.799  0.00  0.00    +0.000 A 
ATOM     24  N   UNL     1      47.836   9.299  19.952  0.00  0.00    +0.000 NA
ATOM     25  C   UNL     1      48.118   8.867  18.712  0.00  0.00    +0.000 A 
ATOM     26  S   UNL     1      48.492   9.994  17.499  0.00  0.00    +0.000 S 
ATOM     27  C   UNL     1      48.696   8.763  16.347  0.00  0.00    +0.000 A 
ATOM     28  C   UNL     1      48.490   7.482  16.848  0.00  0.00    +0.000 A 
ATOM     29  C   UNL     1      48.142   7.549  18.266  0.00  0.00    +0.000 A 
BRANCH  21  31
ATOM     30  C   UNL     1      49.059   4.640  19.288  0.00  0.00    +0.000 C 
ATOM     31  O   UNL     1      47.810   5.262  18.991  0.00  0.00    +0.000 OA
ENDBRANCH  21  31
ENDBRANCH  17  28
ENDBRANCH   1  19
TORSDOF 8
ENDMDL
MODEL 4
REMARK VINA RESULT:    -7.428      1.675      3.176
REMARK INTER + INTRA:         -12.241
REMARK INTER:                 -10.806
REMARK INTRA:                  -1.435
REMARK UNBOUND:                -1.339
REMARK  Name = 
REMARK  9 active torsions:
REMARK  status: ('A' for Active; 'I' for Inactive)
REMARK    1  A    between atoms: C_1  and  O_2
REMARK    2  A    between atoms: O_2  and  C_3
REMARK    3  A    between atoms: C_10  and  C_11
REMARK    4  A    between atoms: N_13  and  C_14
REMARK    5  A    between atoms: C_14  and  C_15
REMARK    6  A    between atoms: C_18  and  C_19
REMARK    7  A    between atoms: C_19  and  O_20
REMARK    8  A    between atoms: O_20  and  C_21
REMARK    9  A    between atoms: C_21  and  C_22
REMARK                            x       y       z     vdW  Elec       q    Type
REMARK                         _______ _______ _______ _____ _____    ______ ____
ROOT
ATOM      1  C   UNL     1      47.246   4.023  15.173  0.00  0.00    +0.000 C 
ENDROOT
BRANCH   1   2
ATOM      2  C   UNL     1      46.387   4.239  13.952  0.00  0.00    +0.000 A 
ATOM      3  C   UNL     1      45.894   5.512  13.633  0.00  0.00    +0.000 A 
ATOM      4  C   UNL     1      45.083   5.702  12.508  0.00  0.00    +0.000 A 
ATOM      5  C   UNL     1      44.740   4.622  11.681  0.00  0.00    +0.000 A 
ATOM      6  C   UNL     1      45.222   3.349  12.009  0.00  0.00    +0.000 A 
ATOM      7  C   UNL     1      46.032   3.158  13.134  0.00  0.00    +0.000 A 
BRANCH   5   8
ATOM      8  C   UNL     1      43.850   4.822  10.477  0.00  0.00    +0.000 C 
BRANCH   8   9
ATOM      9  O   UNL     1      44.121   3.809   9.514  0.00  0.00    +0.000 OA
BRANCH   9  10
ATOM     10  C   UNL     1      44.868   4.313   8.407  0.00  0.00    +0.000 C 
BRANCH  10  11
ATOM     11  C   UNL     1      45.742   3.228   7.823  0.00  0.00    +0.000 A 
ATOM     12  C   UNL     1      46.579   3.482   6.727  0.00  0.00    +0.000 A 
ATOM     13  C   UNL     1      47.415   2.486   6.220  0.00  0.00    +0.000 A 
ATOM     14  C   UNL     1      47.437   1.225   6.811  0.00  0.00    +0.000 A 
ATOM     15  C   UNL     1      46.621   0.960   7.909  0.00  0.00    +0.000 A 
ATOM     16  C   UNL     1      45.781   1.956   8.417  0.00  0.00    +0.000 A 
ENDBRANCH  10  11
ENDBRANCH   9  10
ENDBRANCH   8   9
ENDBRANCH   5   8
ENDBRANCH   1   2
BRANCH   1  19
ATOM     17  C   UNL     1      48.670   5.492  16.547  0.00  0.00    +0.000 C 
ATOM     18  O   UNL     1      49.529   4.620  16.644  0.00  0.00    +0.000 OA
ATOM     19  N   UNL     1      47.515   5.273  15.843  0.00  0.00    +0.000 N 
ATOM     20  H   UNL     1      46.794   5.979  15.817  0.00  0.00    +0.000 HD
BRANCH  17  28
ATOM     21  C   UNL     1      48.764   8.719  15.344  0.00  0.00    +0.000 A 
ATOM     22  N   UNL     1      48.832  10.051  15.151  0.00  0.00    +0.000 NA
ATOM     23  C   UNL     1      49.019  10.833  16.216  0.00  0.00    +0.000 A 
ATOM     24  N   UNL     1      49.151  10.440  17.482  0.00  0.00    +0.000 NA
ATOM     25  C   UNL     1      49.067   9.108  17.630  0.00  0.00    +0.000 A 
ATOM     26  S   UNL     1      49.215   8.428  19.180  0.00  0.00    +0.000 S 
ATOM     27  C   UNL     1      49.019   6.857  18.564  0.00  0.00    +0.000 A 
ATOM     28  C   UNL     1      48.837   6.810  17.186  0.00  0.00    +0.000 A 
ATOM     29  C   UNL     1      48.869   8.161  16.630  0.00  0.00    +0.000 A 
BRANCH  21  31
ATOM     30  C   UNL     1      49.759   7.531  13.599  0.00  0.00    +0.000 C 
ATOM     31  O   UNL     1      48.547   7.919  14.242  0.00  0.00    +0.000 OA
ENDBRANCH  21  31
ENDBRANCH  17  28
ENDBRANCH   1  19
TORSDOF 8
ENDMDL
MODEL 5
REMARK VINA RESULT:    -7.021      1.858      2.262
REMARK INTER + INTRA:         -11.644
REMARK INTER:                 -10.645
REMARK INTRA:                  -0.999
REMARK UNBOUND:                -1.339
REMARK  Name = 
REMARK  9 active torsions:
REMARK  status: ('A' for Active; 'I' for Inactive)
REMARK    1  A    between atoms: C_1  and  O_2
REMARK    2  A    between atoms: O_2  and  C_3
REMARK    3  A    between atoms: C_10  and  C_11
REMARK    4  A    between atoms: N_13  and  C_14
REMARK    5  A    between atoms: C_14  and  C_15
REMARK    6  A    between atoms: C_18  and  C_19
REMARK    7  A    between atoms: C_19  and  O_20
REMARK    8  A    between atoms: O_20  and  C_21
REMARK    9  A    between atoms: C_21  and  C_22
REMARK                            x       y       z     vdW  Elec       q    Type
REMARK                         _______ _______ _______ _____ _____    ______ ____
ROOT
ATOM      1  C   UNL     1      48.244   7.929  12.685  0.00  0.00    +0.000 C 
ENDROOT
BRANCH   1   2
ATOM      2  C   UNL     1      47.119   6.937  12.528  0.00  0.00    +0.000 A 
ATOM      3  C   UNL     1      47.209   5.653  13.083  0.00  0.00    +0.000 A 
ATOM      4  C   UNL     1      46.169   4.730  12.917  0.00  0.00    +0.000 A 
ATOM      5  C   UNL     1      45.020   5.068  12.188  0.00  0.00    +0.000 A 
ATOM      6  C   UNL     1      44.939   6.347  11.623  0.00  0.00    +0.000 A 
ATOM      7  C   UNL     1      45.978   7.269  11.786  0.00  0.00    +0.000 A 
BRANCH   5   8
ATOM      8  C   UNL     1      43.904   4.069  11.993  0.00  0.00    +0.000 C 
BRANCH   8   9
ATOM      9  O   UNL     1      44.263   3.152  10.964  0.00  0.00    +0.000 OA
BRANCH   9  10
ATOM     10  C   UNL     1      44.139   3.734   9.666  0.00  0.00    +0.000 C 
BRANCH  10  11
ATOM     11  C   UNL     1      45.182   3.166   8.733  0.00  0.00    +0.000 A 
ATOM     12  C   UNL     1      45.896   3.995   7.855  0.00  0.00    +0.000 A 
ATOM     13  C   UNL     1      46.889   3.469   7.026  0.00  0.00    +0.000 A 
ATOM     14  C   UNL     1      47.191   2.111   7.072  0.00  0.00    +0.000 A 
ATOM     15  C   UNL     1      46.499   1.277   7.948  0.00  0.00    +0.000 A 
ATOM     16  C   UNL     1      45.504   1.801   8.778  0.00  0.00    +0.000 A 
ENDBRANCH  10  11
ENDBRANCH   9  10
ENDBRANCH   8   9
ENDBRANCH   5   8
ENDBRANCH   1   2
BRANCH   1  19
ATOM     17  C   UNL     1      49.319   7.630  14.882  0.00  0.00    +0.000 C 
ATOM     18  O   UNL     1      48.457   8.309  15.432  0.00  0.00    +0.000 OA
ATOM     19  N   UNL     1      49.286   7.400  13.532  0.00  0.00    +0.000 N 
ATOM     20  H   UNL     1      50.031   6.885  13.085  0.00  0.00    +0.000 HD
BRANCH  17  28
ATOM     21  C   UNL     1      49.528   5.031  17.135  0.00  0.00    +0.000 A 
ATOM     22  N   UNL     1      49.890   4.080  18.018  0.00  0.00    +0.000 NA
ATOM     23  C   UNL     1      51.171   4.015  18.384  0.00  0.00    +0.000 A 
ATOM     24  N   UNL     1      52.161   4.803  17.968  0.00  0.00    +0.000 NA
ATOM     25  C   UNL     1      51.760   5.728  17.081  0.00  0.00    +0.000 A 
ATOM     26  S   UNL     1      52.892   6.822  16.443  0.00  0.00    +0.000 S 
ATOM     27  C   UNL     1      51.700   7.584  15.503  0.00  0.00    +0.000 A 
ATOM     28  C   UNL     1      50.431   7.034  15.646  0.00  0.00    +0.000 A 
ATOM     29  C   UNL     1      50.471   5.923  16.595  0.00  0.00    +0.000 A 
BRANCH  21  31
ATOM     30  C   UNL     1      47.306   4.831  17.822  0.00  0.00    +0.000 C 
ATOM     31  O   UNL     1      48.206   5.077  16.743  0.00  0.00    +0.000 OA
ENDBRANCH  21  31
ENDBRANCH  17  28
ENDBRANCH   1  19
TORSDOF 8
ENDMDL
MODEL 6
REMARK VINA RESULT:    -6.702      4.702      9.333
REMARK INTER + INTRA:         -11.176
REMARK INTER:                 -10.151
REMARK INTRA:                  -1.025
REMARK UNBOUND:                -1.339
REMARK  Name = 
REMARK  9 active torsions:
REMARK  status: ('A' for Active; 'I' for Inactive)
REMARK    1  A    between atoms: C_1  and  O_2
REMARK    2  A    between atoms: O_2  and  C_3
REMARK    3  A    between atoms: C_10  and  C_11
REMARK    4  A    between atoms: N_13  and  C_14
REMARK    5  A    between atoms: C_14  and  C_15
REMARK    6  A    between atoms: C_18  and  C_19
REMARK    7  A    between atoms: C_19  and  O_20
REMARK    8  A    between atoms: O_20  and  C_21
REMARK    9  A    between atoms: C_21  and  C_22
REMARK                            x       y       z     vdW  Elec       q    Type
REMARK                         _______ _______ _______ _____ _____    ______ ____
ROOT
ATOM      1  C   UNL     1      47.192   3.366  16.798  0.00  0.00    +0.000 C 
ENDROOT
BRANCH   1   2
ATOM      2  C   UNL     1      48.669   3.365  17.101  0.00  0.00    +0.000 A 
ATOM      3  C   UNL     1      49.435   2.200  16.949  0.00  0.00    +0.000 A 
ATOM      4  C   UNL     1      50.802   2.201  17.250  0.00  0.00    +0.000 A 
ATOM      5  C   UNL     1      51.433   3.364  17.716  0.00  0.00    +0.000 A 
ATOM      6  C   UNL     1      50.663   4.523  17.880  0.00  0.00    +0.000 A 
ATOM      7  C   UNL     1      49.296   4.522  17.581  0.00  0.00    +0.000 A 
BRANCH   5   8
ATOM      8  C   UNL     1      52.904   3.363  18.057  0.00  0.00    +0.000 C 
BRANCH   8   9
ATOM      9  O   UNL     1      53.206   2.220  18.850  0.00  0.00    +0.000 OA
BRANCH   9  10
ATOM     10  C   UNL     1      54.592   1.882  18.791  0.00  0.00    +0.000 C 
BRANCH  10  11
ATOM     11  C   UNL     1      54.776   0.517  18.170  0.00  0.00    +0.000 A 
ATOM     12  C   UNL     1      55.013  -0.615  18.965  0.00  0.00    +0.000 A 
ATOM     13  C   UNL     1      55.139  -1.879  18.387  0.00  0.00    +0.000 A 
ATOM     14  C   UNL     1      55.017  -2.032  17.008  0.00  0.00    +0.000 A 
ATOM     15  C   UNL     1      54.769  -0.920  16.207  0.00  0.00    +0.000 A 
ATOM     16  C   UNL     1      54.644   0.347  16.783  0.00  0.00    +0.000 A 
ENDBRANCH  10  11
ENDBRANCH   9  10
ENDBRANCH   8   9
ENDBRANCH   5   8
ENDBRANCH   1   2
BRANCH   1  19
ATOM     17  C   UNL     1      46.897   4.235  14.511  0.00  0.00    +0.000 C 
ATOM     18  O   UNL     1      47.233   3.159  14.025  0.00  0.00    +0.000 OA
ATOM     19  N   UNL     1      46.855   4.418  15.868  0.00  0.00    +0.000 N 
ATOM     20  H   UNL     1      46.629   5.324  16.252  0.00  0.00    +0.000 HD
BRANCH  17  28
ATOM     21  C   UNL     1      44.077   5.034  12.699  0.00  0.00    +0.000 A 
ATOM     22  N   UNL     1      43.121   5.586  11.926  0.00  0.00    +0.000 NA
ATOM     23  C   UNL     1      43.380   6.759  11.345  0.00  0.00    +0.000 A 
ATOM     24  N   UNL     1      44.504   7.467  11.441  0.00  0.00    +0.000 NA
ATOM     25  C   UNL     1      45.425   6.887  12.228  0.00  0.00    +0.000 A 
ATOM     26  S   UNL     1      46.924   7.650  12.465  0.00  0.00    +0.000 S 
ATOM     27  C   UNL     1      47.460   6.396  13.476  0.00  0.00    +0.000 A 
ATOM     28  C   UNL     1      46.528   5.380  13.659  0.00  0.00    +0.000 A 
ATOM     29  C   UNL     1      45.310   5.678  12.907  0.00  0.00    +0.000 A 
BRANCH  21  31
ATOM     30  C   UNL     1      43.557   2.781  12.383  0.00  0.00    +0.000 C 
ATOM     31  O   UNL     1      43.794   3.834  13.316  0.00  0.00    +0.000 OA
ENDBRANCH  21  31
ENDBRANCH  17  28
ENDBRANCH   1  19
TORSDOF 8
ENDMDL
MODEL 7
REMARK VINA RESULT:    -6.690      3.741      8.758
REMARK INTER + INTRA:         -11.157
REMARK INTER:                  -9.839
REMARK INTRA:                  -1.318
REMARK UNBOUND:                -1.339
REMARK  Name = 
REMARK  9 active torsions:
REMARK  status: ('A' for Active; 'I' for Inactive)
REMARK    1  A    between atoms: C_1  and  O_2
REMARK    2  A    between atoms: O_2  and  C_3
REMARK    3  A    between atoms: C_10  and  C_11
REMARK    4  A    between atoms: N_13  and  C_14
REMARK    5  A    between atoms: C_14  and  C_15
REMARK    6  A    between atoms: C_18  and  C_19
REMARK    7  A    between atoms: C_19  and  O_20
REMARK    8  A    between atoms: O_20  and  C_21
REMARK    9  A    between atoms: C_21  and  C_22
REMARK                            x       y       z     vdW  Elec       q    Type
REMARK                         _______ _______ _______ _____ _____    ______ ____
ROOT
ATOM      1  C   UNL     1      47.357   3.456  17.044  0.00  0.00    +0.000 C 
ENDROOT
BRANCH   1   2
ATOM      2  C   UNL     1      48.840   3.344  17.291  0.00  0.00    +0.000 A 
ATOM      3  C   UNL     1      49.533   2.163  16.993  0.00  0.00    +0.000 A 
ATOM      4  C   UNL     1      50.907   2.060  17.242  0.00  0.00    +0.000 A 
ATOM      5  C   UNL     1      51.617   3.132  17.801  0.00  0.00    +0.000 A 
ATOM      6  C   UNL     1      50.919   4.307  18.111  0.00  0.00    +0.000 A 
ATOM      7  C   UNL     1      49.546   4.410  17.865  0.00  0.00    +0.000 A 
BRANCH   5   8
ATOM      8  C   UNL     1      53.096   3.017  18.087  0.00  0.00    +0.000 C 
BRANCH   8   9
ATOM      9  O   UNL     1      53.672   4.318  18.136  0.00  0.00    +0.000 OA
BRANCH   9  10
ATOM     10  C   UNL     1      54.707   4.479  17.166  0.00  0.00    +0.000 C 
BRANCH  10  11
ATOM     11  C   UNL     1      54.391   5.634  16.246  0.00  0.00    +0.000 A 
ATOM     12  C   UNL     1      55.214   5.935  15.150  0.00  0.00    +0.000 A 
ATOM     13  C   UNL     1      54.893   6.977  14.280  0.00  0.00    +0.000 A 
ATOM     14  C   UNL     1      53.736   7.725  14.484  0.00  0.00    +0.000 A 
ATOM     15  C   UNL     1      52.901   7.431  15.560  0.00  0.00    +0.000 A 
ATOM     16  C   UNL     1      53.222   6.389  16.434  0.00  0.00    +0.000 A 
ENDBRANCH  10  11
ENDBRANCH   9  10
ENDBRANCH   8   9
ENDBRANCH   5   8
ENDBRANCH   1   2
BRANCH   1  19
ATOM     17  C   UNL     1      47.091   4.276  14.735  0.00  0.00    +0.000 C 
ATOM     18  O   UNL     1      47.367   3.171  14.278  0.00  0.00    +0.000 OA
ATOM     19  N   UNL     1      47.069   4.498  16.087  0.00  0.00    +0.000 N 
ATOM     20  H   UNL     1      46.893   5.424  16.447  0.00  0.00    +0.000 HD
BRANCH  17  28
ATOM     21  C   UNL     1      44.397   5.052  12.732  0.00  0.00    +0.000 A 
ATOM     22  N   UNL     1      43.494   5.596  11.893  0.00  0.00    +0.000 NA
ATOM     23  C   UNL     1      43.786   6.767  11.324  0.00  0.00    +0.000 A 
ATOM     24  N   UNL     1      44.898   7.480  11.493  0.00  0.00    +0.000 NA
ATOM     25  C   UNL     1      45.766   6.909  12.343  0.00  0.00    +0.000 A 
ATOM     26  S   UNL     1      47.242   7.681  12.677  0.00  0.00    +0.000 S 
ATOM     27  C   UNL     1      47.714   6.434  13.730  0.00  0.00    +0.000 A 
ATOM     28  C   UNL     1      46.775   5.415  13.854  0.00  0.00    +0.000 A 
ATOM     29  C   UNL     1      45.610   5.703  13.020  0.00  0.00    +0.000 A 
BRANCH  21  31
ATOM     30  C   UNL     1      43.629   2.873  12.401  0.00  0.00    +0.000 C 
ATOM     31  O   UNL     1      44.078   3.853  13.335  0.00  0.00    +0.000 OA
ENDBRANCH  21  31
ENDBRANCH  17  28
ENDBRANCH   1  19
TORSDOF 8
ENDMDL
MODEL 8
REMARK VINA RESULT:    -6.585      3.498      5.533
REMARK INTER + INTRA:         -11.004
REMARK INTER:                  -9.423
REMARK INTRA:                  -1.581
REMARK UNBOUND:                -1.339
REMARK  Name = 
REMARK  9 active torsions:
REMARK  status: ('A' for Active; 'I' for Inactive)
REMARK    1  A    between atoms: C_1  and  O_2
REMARK    2  A    between atoms: O_2  and  C_3
REMARK    3  A    between atoms: C_10  and  C_11
REMARK    4  A    between atoms: N_13  and  C_14
REMARK    5  A    between atoms: C_14  and  C_15
REMARK    6  A    between atoms: C_18  and  C_19
REMARK    7  A    between atoms: C_19  and  O_20
REMARK    8  A    between atoms: O_20  and  C_21
REMARK    9  A    between atoms: C_21  and  C_22
REMARK                            x       y       z     vdW  Elec       q    Type
REMARK                         _______ _______ _______ _____ _____    ______ ____
ROOT
ATOM      1  C   UNL     1      48.011   3.512  17.539  0.00  0.00    +0.000 C 
ENDROOT
BRANCH   1   2
ATOM      2  C   UNL     1      47.871   4.353  16.295  0.00  0.00    +0.000 A 
ATOM      3  C   UNL     1      48.427   5.638  16.226  0.00  0.00    +0.000 A 
ATOM      4  C   UNL     1      48.277   6.420  15.074  0.00  0.00    +0.000 A 
ATOM      5  C   UNL     1      47.561   5.937  13.969  0.00  0.00    +0.000 A 
ATOM      6  C   UNL     1      46.994   4.659  14.045  0.00  0.00    +0.000 A 
ATOM      7  C   UNL     1      47.142   3.878  15.196  0.00  0.00    +0.000 A 
BRANCH   5   8
ATOM      8  C   UNL     1      47.383   6.786  12.732  0.00  0.00    +0.000 C 
BRANCH   8   9
ATOM      9  O   UNL     1      46.056   7.301  12.697  0.00  0.00    +0.000 OA
BRANCH   9  10
ATOM     10  C   UNL     1      45.390   6.975  11.477  0.00  0.00    +0.000 C 
BRANCH  10  11
ATOM     11  C   UNL     1      44.739   5.616  11.579  0.00  0.00    +0.000 A 
ATOM     12  C   UNL     1      43.891   5.297  12.650  0.00  0.00    +0.000 A 
ATOM     13  C   UNL     1      43.259   4.054  12.715  0.00  0.00    +0.000 A 
ATOM     14  C   UNL     1      43.455   3.117  11.703  0.00  0.00    +0.000 A 
ATOM     15  C   UNL     1      44.285   3.423  10.627  0.00  0.00    +0.000 A 
ATOM     16  C   UNL     1      44.920   4.667  10.561  0.00  0.00    +0.000 A 
ENDBRANCH  10  11
ENDBRANCH   9  10
ENDBRANCH   8   9
ENDBRANCH   5   8
ENDBRANCH   1   2
BRANCH   1  19
ATOM     17  C   UNL     1      50.133   2.332  17.119  0.00  0.00    +0.000 C 
ATOM     18  O   UNL     1      49.631   1.690  16.200  0.00  0.00    +0.000 OA
ATOM     19  N   UNL     1      49.400   3.245  17.829  0.00  0.00    +0.000 N 
ATOM     20  H   UNL     1      49.811   3.726  18.616  0.00  0.00    +0.000 HD
BRANCH  17  28
ATOM     21  C   UNL     1      52.741   4.508  17.700  0.00  0.00    +0.000 A 
ATOM     22  N   UNL     1      53.908   5.118  17.985  0.00  0.00    +0.000 NA
ATOM     23  C   UNL     1      54.958   4.356  18.293  0.00  0.00    +0.000 A 
ATOM     24  N   UNL     1      54.990   3.025  18.351  0.00  0.00    +0.000 NA
ATOM     25  C   UNL     1      53.805   2.459  18.072  0.00  0.00    +0.000 A 
ATOM     26  S   UNL     1      53.661   0.767  18.098  0.00  0.00    +0.000 S 
ATOM     27  C   UNL     1      52.018   0.850  17.671  0.00  0.00    +0.000 A 
ATOM     28  C   UNL     1      51.544   2.147  17.502  0.00  0.00    +0.000 A 
ATOM     29  C   UNL     1      52.620   3.108  17.741  0.00  0.00    +0.000 A 
BRANCH  21  31
ATOM     30  C   UNL     1      52.004   6.450  16.635  0.00  0.00    +0.000 C 
ATOM     31  O   UNL     1      51.652   5.303  17.407  0.00  0.00    +0.000 OA
ENDBRANCH  21  31
ENDBRANCH  17  28
ENDBRANCH   1  19
TORSDOF 8
ENDMDL
MODEL 9
REMARK VINA RESULT:    -6.337      3.890      8.477
REMARK INTER + INTRA:         -10.640
REMARK INTER:                  -8.459
REMARK INTRA:                  -2.181
REMARK UNBOUND:                -1.339
REMARK  Name = 
REMARK  9 active torsions:
REMARK  status: ('A' for Active; 'I' for Inactive)
REMARK    1  A    between atoms: C_1  and  O_2
REMARK    2  A    between atoms: O_2  and  C_3
REMARK    3  A    between atoms: C_10  and  C_11
REMARK    4  A    between atoms: N_13  and  C_14
REMARK    5  A    between atoms: C_14  and  C_15
REMARK    6  A    between atoms: C_18  and  C_19
REMARK    7  A    between atoms: C_19  and  O_20
REMARK    8  A    between atoms: O_20  and  C_21
REMARK    9  A    between atoms: C_21  and  C_22
REMARK                            x       y       z     vdW  Elec       q    Type
REMARK                         _______ _______ _______ _____ _____    ______ ____
ROOT
ATOM      1  C   UNL     1      48.452   8.367  14.486  0.00  0.00    +0.000 C 
ENDROOT
BRANCH   1   2
ATOM      2  C   UNL     1      48.983   7.984  15.844  0.00  0.00    +0.000 A 
ATOM      3  C   UNL     1      48.392   8.480  17.015  0.00  0.00    +0.000 A 
ATOM      4  C   UNL     1      48.901   8.134  18.272  0.00  0.00    +0.000 A 
ATOM      5  C   UNL     1      50.017   7.291  18.388  0.00  0.00    +0.000 A 
ATOM      6  C   UNL     1      50.613   6.809  17.216  0.00  0.00    +0.000 A 
ATOM      7  C   UNL     1      50.106   7.155  15.959  0.00  0.00    +0.000 A 
BRANCH   5   8
ATOM      8  C   UNL     1      50.578   6.932  19.743  0.00  0.00    +0.000 C 
BRANCH   8   9
ATOM      9  O   UNL     1      50.537   5.519  19.913  0.00  0.00    +0.000 OA
BRANCH   9  10
ATOM     10  C   UNL     1      49.202   5.042  20.085  0.00  0.00    +0.000 C 
BRANCH  10  11
ATOM     11  C   UNL     1      48.729   4.340  18.834  0.00  0.00    +0.000 A 
ATOM     12  C   UNL     1      47.526   4.702  18.210  0.00  0.00    +0.000 A 
ATOM     13  C   UNL     1      47.116   4.077  17.031  0.00  0.00    +0.000 A 
ATOM     14  C   UNL     1      47.911   3.091  16.451  0.00  0.00    +0.000 A 
ATOM     15  C   UNL     1      49.114   2.729  17.052  0.00  0.00    +0.000 A 
ATOM     16  C   UNL     1      49.525   3.352  18.233  0.00  0.00    +0.000 A 
ENDBRANCH  10  11
ENDBRANCH   9  10
ENDBRANCH   8   9
ENDBRANCH   5   8
ENDBRANCH   1   2
BRANCH   1  19
ATOM     17  C   UNL     1      47.684   6.356  13.287  0.00  0.00    +0.000 C 
ATOM     18  O   UNL     1      48.827   6.101  12.918  0.00  0.00    +0.000 OA
ATOM     19  N   UNL     1      47.418   7.456  14.058  0.00  0.00    +0.000 N 
ATOM     20  H   UNL     1      46.466   7.682  14.309  0.00  0.00    +0.000 HD
BRANCH  17  28
ATOM     21  C   UNL     1      44.584   6.975  11.918  0.00  0.00    +0.000 A 
ATOM     22  N   UNL     1      43.341   6.931  11.398  0.00  0.00    +0.000 NA
ATOM     23  C   UNL     1      42.741   5.744  11.299  0.00  0.00    +0.000 A 
ATOM     24  N   UNL     1      43.240   4.564  11.666  0.00  0.00    +0.000 NA
ATOM     25  C   UNL     1      44.482   4.652  12.169  0.00  0.00    +0.000 A 
ATOM     26  S   UNL     1      45.275   3.243  12.690  0.00  0.00    +0.000 S 
ATOM     27  C   UNL     1      46.652   4.127  13.146  0.00  0.00    +0.000 A 
ATOM     28  C   UNL     1      46.548   5.494  12.915  0.00  0.00    +0.000 A 
ATOM     29  C   UNL     1      45.244   5.805  12.331  0.00  0.00    +0.000 A 
BRANCH  21  31
ATOM     30  C   UNL     1      44.490   9.225  11.305  0.00  0.00    +0.000 C 
ATOM     31  O   UNL     1      45.207   8.203  11.994  0.00  0.00    +0.000 OA
ENDBRANCH  21  31
ENDBRANCH  17  28
ENDBRANCH   1  19
TORSDOF 8
ENDMDL
