MODEL 1
REMARK VINA RESULT:    -8.241      0.000      0.000
REMARK INTER + INTRA:         -13.357
REMARK INTER:                 -12.095
REMARK INTRA:                  -1.263
REMARK UNBOUND:                -1.263
REMARK  Name = 
REMARK  8 active torsions:
REMARK  status: ('A' for Active; 'I' for Inactive)
REMARK    1  A    between atoms: C_2  and  C_3
REMARK    2  A    between atoms: C_3  and  N_4
REMARK    3  A    between atoms: C_3  and  C_26
REMARK    4  A    between atoms: N_4  and  C_5
REMARK    5  A    between atoms: C_5  and  C_6
REMARK    6  A    between atoms: C_9  and  C_10
REMARK    7  A    between atoms: C_10  and  N_11
REMARK    8  A    between atoms: C_12  and  C_14
REMARK                            x       y       z     vdW  Elec       q    Type
REMARK                         _______ _______ _______ _____ _____    ______ ____
ROOT
ATOM      1  C   UNL     1      45.386   6.746  11.230  0.00  0.00    +0.000 A 
ATOM      2  C   UNL     1      46.711   6.319  11.392  0.00  0.00    +0.000 A 
ATOM      3  C   UNL     1      47.539   6.929  12.330  0.00  0.00    +0.000 A 
ATOM      4  C   UNL     1      47.060   7.986  13.113  0.00  0.00    +0.000 A 
ATOM      5  C   UNL     1      45.761   8.463  12.897  0.00  0.00    +0.000 A 
ATOM      6  C   UNL     1      44.927   7.841  11.971  0.00  0.00    +0.000 A 
ENDROOT
BRANCH   1   7
ATOM      7  C   UNL     1      44.466   6.039  10.269  0.00  0.00    +0.000 C 
BRANCH   7   8
ATOM      8  N   UNL     1      45.234   5.287   9.268  0.00  0.00    +0.000 NA
ATOM      9  H   UNL     1      45.313   5.856   8.427  0.00  0.00    +0.000 HD
BRANCH   8  10
ATOM     10  C   UNL     1      44.620   4.001   8.900  0.00  0.00    +0.000 C 
BRANCH  10  11
ATOM     11  C   UNL     1      45.625   3.058   8.237  0.00  0.00    +0.000 A 
ATOM     12  C   UNL     1      46.531   3.485   7.245  0.00  0.00    +0.000 A 
ATOM     13  C   UNL     1      47.438   2.594   6.682  0.00  0.00    +0.000 A 
ATOM     14  C   UNL     1      47.415   1.283   7.120  0.00  0.00    +0.000 A 
ATOM     15  N   UNL     1      46.553   0.824   8.053  0.00  0.00    +0.000 NA
ATOM     16  C   UNL     1      45.676   1.712   8.581  0.00  0.00    +0.000 A 
ENDBRANCH  10  11
BRANCH  10  18
ATOM     17  N   UNL     1      43.471   2.677  11.059  0.00  0.00    +0.000 NA
ATOM     18  C   UNL     1      43.992   3.277  10.080  0.00  0.00    +0.000 C 
ENDBRANCH  10  18
ENDBRANCH   8  10
ENDBRANCH   7   8
ENDBRANCH   1   7
BRANCH   4  19
ATOM     19  C   UNL     1      47.936   8.622  14.154  0.00  0.00    +0.000 C 
BRANCH  19  20
ATOM     20  N   UNL     1      48.145   7.735  15.266  0.00  0.00    +0.000 N 
ATOM     21  C   UNL     1      49.342   7.092  15.431  0.00  0.00    +0.000 C 
ATOM     22  O   UNL     1      50.291   7.278  14.673  0.00  0.00    +0.000 OA
ATOM     23  H   UNL     1      47.321   7.402  15.757  0.00  0.00    +0.000 HD
BRANCH  21  24
ATOM     24  C   UNL     1      49.456   6.214  16.599  0.00  0.00    +0.000 A 
ATOM     25  C   UNL     1      50.421   6.478  17.561  0.00  0.00    +0.000 A 
ATOM     26  S   UNL     1      50.394   5.387  18.871  0.00  0.00    +0.000 S 
ATOM     27  C   UNL     1      49.122   4.496  18.175  0.00  0.00    +0.000 A 
ATOM     28  N   UNL     1      48.628   3.389  18.787  0.00  0.00    +0.000 NA
ATOM     29  C   UNL     1      47.683   2.796  18.136  0.00  0.00    +0.000 A 
ATOM     30  N   UNL     1      47.184   3.214  16.931  0.00  0.00    +0.000 N 
ATOM     31  C   UNL     1      47.630   4.345  16.289  0.00  0.00    +0.000 A 
ATOM     32  O   UNL     1      47.124   4.717  15.236  0.00  0.00    +0.000 OA
ATOM     33  C   UNL     1      48.707   5.039  16.972  0.00  0.00    +0.000 A 
ATOM     34  H   UNL     1      46.435   2.711  16.478  0.00  0.00    +0.000 HD
ENDBRANCH  21  24
ENDBRANCH  19  20
ENDBRANCH   4  19
TORSDOF 8
ENDMDL
MODEL 2
REMARK VINA RESULT:    -7.857      2.379      3.085
REMARK INTER + INTRA:         -12.794
REMARK INTER:                 -11.777
REMARK INTRA:                  -1.017
REMARK UNBOUND:                -1.263
REMARK  Name = 
REMARK  8 active torsions:
REMARK  status: ('A' for Active; 'I' for Inactive)
REMARK    1  A    between atoms: C_2  and  C_3
REMARK    2  A    between atoms: C_3  and  N_4
REMARK    3  A    between atoms: C_3  and  C_26
REMARK    4  A    between atoms: N_4  and  C_5
REMARK    5  A    between atoms: C_5  and  C_6
REMARK    6  A    between atoms: C_9  and  C_10
REMARK    7  A    between atoms: C_10  and  N_11
REMARK    8  A    between atoms: C_12  and  C_14
REMARK                            x       y       z     vdW  Elec       q    Type
REMARK                         _______ _______ _______ _____ _____    ______ ____
ROOT
ATOM      1  C   UNL     1      45.933   6.002  11.745  0.00  0.00    +0.000 A 
ATOM      2  C   UNL     1      46.054   5.286  12.944  0.00  0.00    +0.000 A 
ATOM      3  C   UNL     1      47.093   5.561  13.828  0.00  0.00    +0.000 A 
ATOM      4  C   UNL     1      48.038   6.548  13.523  0.00  0.00    +0.000 A 
ATOM      5  C   UNL     1      47.961   7.210  12.291  0.00  0.00    +0.000 A 
ATOM      6  C   UNL     1      46.911   6.947  11.413  0.00  0.00    +0.000 A 
ENDROOT
BRANCH   1   7
ATOM      7  C   UNL     1      44.768   5.758  10.822  0.00  0.00    +0.000 C 
BRANCH   7   8
ATOM      8  N   UNL     1      45.231   5.286   9.510  0.00  0.00    +0.000 NA
ATOM      9  H   UNL     1      45.039   6.010   8.821  0.00  0.00    +0.000 HD
BRANCH   8  10
ATOM     10  C   UNL     1      44.580   4.042   9.069  0.00  0.00    +0.000 C 
BRANCH  10  11
ATOM     11  C   UNL     1      45.558   3.109   8.352  0.00  0.00    +0.000 A 
ATOM     12  C   UNL     1      46.442   3.557   7.350  0.00  0.00    +0.000 A 
ATOM     13  C   UNL     1      47.325   2.675   6.737  0.00  0.00    +0.000 A 
ATOM     14  C   UNL     1      47.300   1.352   7.137  0.00  0.00    +0.000 A 
ATOM     15  N   UNL     1      46.459   0.873   8.079  0.00  0.00    +0.000 NA
ATOM     16  C   UNL     1      45.604   1.753   8.656  0.00  0.00    +0.000 A 
ENDBRANCH  10  11
BRANCH  10  18
ATOM     17  N   UNL     1      43.390   2.630  11.148  0.00  0.00    +0.000 NA
ATOM     18  C   UNL     1      43.930   3.270  10.205  0.00  0.00    +0.000 C 
ENDBRANCH  10  18
ENDBRANCH   8  10
ENDBRANCH   7   8
ENDBRANCH   1   7
BRANCH   4  19
ATOM     19  C   UNL     1      49.137   6.878  14.491  0.00  0.00    +0.000 C 
BRANCH  19  20
ATOM     20  N   UNL     1      48.620   7.070  15.817  0.00  0.00    +0.000 N 
ATOM     21  C   UNL     1      49.100   6.335  16.868  0.00  0.00    +0.000 C 
ATOM     22  O   UNL     1      50.013   5.525  16.732  0.00  0.00    +0.000 OA
ATOM     23  H   UNL     1      47.732   7.556  15.904  0.00  0.00    +0.000 HD
BRANCH  21  24
ATOM     24  C   UNL     1      48.509   6.611  18.181  0.00  0.00    +0.000 A 
ATOM     25  C   UNL     1      48.157   5.554  19.008  0.00  0.00    +0.000 A 
ATOM     26  S   UNL     1      47.521   6.046  20.511  0.00  0.00    +0.000 S 
ATOM     27  C   UNL     1      47.651   7.690  20.089  0.00  0.00    +0.000 A 
ATOM     28  N   UNL     1      47.242   8.664  20.943  0.00  0.00    +0.000 NA
ATOM     29  C   UNL     1      47.374   9.864  20.486  0.00  0.00    +0.000 A 
ATOM     30  N   UNL     1      47.884  10.178  19.255  0.00  0.00    +0.000 N 
ATOM     31  C   UNL     1      48.340   9.230  18.370  0.00  0.00    +0.000 A 
ATOM     32  O   UNL     1      48.838   9.552  17.297  0.00  0.00    +0.000 OA
ATOM     33  C   UNL     1      48.196   7.861  18.830  0.00  0.00    +0.000 A 
ATOM     34  H   UNL     1      47.972  11.141  18.960  0.00  0.00    +0.000 HD
ENDBRANCH  21  24
ENDBRANCH  19  20
ENDBRANCH   4  19
TORSDOF 8
ENDMDL
MODEL 3
REMARK VINA RESULT:    -7.447      1.736      2.200
REMARK INTER + INTRA:         -12.192
REMARK INTER:                 -10.863
REMARK INTRA:                  -1.329
REMARK UNBOUND:                -1.263
REMARK  Name = 
REMARK  8 active torsions:
REMARK  status: ('A' for Active; 'I' for Inactive)
REMARK    1  A    between atoms: C_2  and  C_3
REMARK    2  A    between atoms: C_3  and  N_4
REMARK    3  A    between atoms: C_3  and  C_26
REMARK    4  A    between atoms: N_4  and  C_5
REMARK    5  A    between atoms: C_5  and  C_6
REMARK    6  A    between atoms: C_9  and  C_10
REMARK    7  A    between atoms: C_10  and  N_11
REMARK    8  A    between atoms: C_12  and  C_14
REMARK                            x       y       z     vdW  Elec       q    Type
REMARK                         _______ _______ _______ _____ _____    ______ ____
ROOT
ATOM      1  C   UNL     1      45.373   6.546  12.132  0.00  0.00    +0.000 A 
ATOM      2  C   UNL     1      45.667   7.888  11.855  0.00  0.00    +0.000 A 
ATOM      3  C   UNL     1      46.939   8.397  12.101  0.00  0.00    +0.000 A 
ATOM      4  C   UNL     1      47.936   7.575  12.641  0.00  0.00    +0.000 A 
ATOM      5  C   UNL     1      47.620   6.256  12.988  0.00  0.00    +0.000 A 
ATOM      6  C   UNL     1      46.353   5.742  12.726  0.00  0.00    +0.000 A 
ENDROOT
BRANCH   1   7
ATOM      7  C   UNL     1      44.020   5.974  11.798  0.00  0.00    +0.000 C 
BRANCH   7   8
ATOM      8  N   UNL     1      43.957   5.572  10.387  0.00  0.00    +0.000 NA
ATOM      9  H   UNL     1      43.211   6.096   9.934  0.00  0.00    +0.000 HD
BRANCH   8  10
ATOM     10  C   UNL     1      43.693   4.136  10.195  0.00  0.00    +0.000 C 
BRANCH  10  11
ATOM     11  C   UNL     1      44.722   3.486   9.269  0.00  0.00    +0.000 A 
ATOM     12  C   UNL     1      45.478   4.221   8.334  0.00  0.00    +0.000 A 
ATOM     13  C   UNL     1      46.413   3.588   7.523  0.00  0.00    +0.000 A 
ATOM     14  C   UNL     1      46.569   2.222   7.660  0.00  0.00    +0.000 A 
ATOM     15  N   UNL     1      45.855   1.473   8.527  0.00  0.00    +0.000 NA
ATOM     16  C   UNL     1      44.946   2.114   9.302  0.00  0.00    +0.000 A 
ENDBRANCH  10  11
BRANCH  10  18
ATOM     17  N   UNL     1      43.635   2.705  12.579  0.00  0.00    +0.000 NA
ATOM     18  C   UNL     1      43.662   3.354  11.498  0.00  0.00    +0.000 C 
ENDBRANCH  10  18
ENDBRANCH   8  10
ENDBRANCH   7   8
ENDBRANCH   1   7
BRANCH   4  19
ATOM     19  C   UNL     1      49.321   8.107  12.871  0.00  0.00    +0.000 C 
BRANCH  19  20
ATOM     20  N   UNL     1      50.009   7.345  13.876  0.00  0.00    +0.000 N 
ATOM     21  C   UNL     1      50.835   7.960  14.778  0.00  0.00    +0.000 C 
ATOM     22  O   UNL     1      50.985   9.180  14.795  0.00  0.00    +0.000 OA
ATOM     23  H   UNL     1      50.073   6.341  13.736  0.00  0.00    +0.000 HD
BRANCH  21  24
ATOM     24  C   UNL     1      51.483   7.095  15.766  0.00  0.00    +0.000 A 
ATOM     25  C   UNL     1      52.867   7.095  15.873  0.00  0.00    +0.000 A 
ATOM     26  S   UNL     1      53.458   6.063  17.094  0.00  0.00    +0.000 S 
ATOM     27  C   UNL     1      51.887   5.544  17.492  0.00  0.00    +0.000 A 
ATOM     28  N   UNL     1      51.683   4.617  18.464  0.00  0.00    +0.000 NA
ATOM     29  C   UNL     1      50.445   4.296  18.644  0.00  0.00    +0.000 A 
ATOM     30  N   UNL     1      49.392   4.824  17.944  0.00  0.00    +0.000 N 
ATOM     31  C   UNL     1      49.546   5.787  16.975  0.00  0.00    +0.000 A 
ATOM     32  O   UNL     1      48.575   6.274  16.405  0.00  0.00    +0.000 OA
ATOM     33  C   UNL     1      50.923   6.169  16.721  0.00  0.00    +0.000 A 
ATOM     34  H   UNL     1      48.443   4.539  18.142  0.00  0.00    +0.000 HD
ENDBRANCH  21  24
ENDBRANCH  19  20
ENDBRANCH   4  19
TORSDOF 8
ENDMDL
MODEL 4
REMARK VINA RESULT:    -7.349      3.531      4.898
REMARK INTER + INTRA:         -12.049
REMARK INTER:                 -10.800
REMARK INTRA:                  -1.250
REMARK UNBOUND:                -1.263
REMARK  Name = 
REMARK  8 active torsions:
REMARK  status: ('A' for Active; 'I' for Inactive)
REMARK    1  A    between atoms: C_2  and  C_3
REMARK    2  A    between atoms: C_3  and  N_4
REMARK    3  A    between atoms: C_3  and  C_26
REMARK    4  A    between atoms: N_4  and  C_5
REMARK    5  A    between atoms: C_5  and  C_6
REMARK    6  A    between atoms: C_9  and  C_10
REMARK    7  A    between atoms: C_10  and  N_11
REMARK    8  A    between atoms: C_12  and  C_14
REMARK                            x       y       z     vdW  Elec       q    Type
REMARK                         _______ _______ _______ _____ _____    ______ ____
ROOT
ATOM      1  C   UNL     1      45.844   6.130  11.888  0.00  0.00    +0.000 A 
ATOM      2  C   UNL     1      46.350   5.166  12.770  0.00  0.00    +0.000 A 
ATOM      3  C   UNL     1      47.358   5.495  13.672  0.00  0.00    +0.000 A 
ATOM      4  C   UNL     1      47.887   6.792  13.698  0.00  0.00    +0.000 A 
ATOM      5  C   UNL     1      47.433   7.733  12.765  0.00  0.00    +0.000 A 
ATOM      6  C   UNL     1      46.413   7.409  11.874  0.00  0.00    +0.000 A 
ENDROOT
BRANCH   1   7
ATOM      7  C   UNL     1      44.702   5.796  10.963  0.00  0.00    +0.000 C 
BRANCH   7   8
ATOM      8  N   UNL     1      45.203   5.309   9.670  0.00  0.00    +0.000 NA
ATOM      9  H   UNL     1      45.065   6.039   8.975  0.00  0.00    +0.000 HD
BRANCH   8  10
ATOM     10  C   UNL     1      44.528   4.088   9.200  0.00  0.00    +0.000 C 
BRANCH  10  11
ATOM     11  C   UNL     1      45.481   3.166   8.440  0.00  0.00    +0.000 A 
ATOM     12  C   UNL     1      46.313   3.622   7.397  0.00  0.00    +0.000 A 
ATOM     13  C   UNL     1      47.175   2.749   6.744  0.00  0.00    +0.000 A 
ATOM     14  C   UNL     1      47.183   1.426   7.145  0.00  0.00    +0.000 A 
ATOM     15  N   UNL     1      46.392   0.939   8.125  0.00  0.00    +0.000 NA
ATOM     16  C   UNL     1      45.556   1.811   8.741  0.00  0.00    +0.000 A 
ENDBRANCH  10  11
BRANCH  10  18
ATOM     17  N   UNL     1      43.349   2.628  11.252  0.00  0.00    +0.000 NA
ATOM     18  C   UNL     1      43.883   3.290  10.322  0.00  0.00    +0.000 C 
ENDBRANCH  10  18
ENDBRANCH   8  10
ENDBRANCH   7   8
ENDBRANCH   1   7
BRANCH   4  19
ATOM     19  C   UNL     1      48.945   7.165  14.695  0.00  0.00    +0.000 C 
BRANCH  19  20
ATOM     20  N   UNL     1      50.221   7.335  14.057  0.00  0.00    +0.000 N 
ATOM     21  C   UNL     1      50.799   8.573  13.966  0.00  0.00    +0.000 C 
ATOM     22  O   UNL     1      50.280   9.571  14.461  0.00  0.00    +0.000 OA
ATOM     23  H   UNL     1      50.546   6.581  13.458  0.00  0.00    +0.000 HD
BRANCH  21  24
ATOM     24  C   UNL     1      52.103   8.638  13.302  0.00  0.00    +0.000 A 
ATOM     25  C   UNL     1      53.208   9.095  14.007  0.00  0.00    +0.000 A 
ATOM     26  S   UNL     1      54.652   9.071  13.102  0.00  0.00    +0.000 S 
ATOM     27  C   UNL     1      53.842   8.494  11.721  0.00  0.00    +0.000 A 
ATOM     28  N   UNL     1      54.511   8.279  10.559  0.00  0.00    +0.000 NA
ATOM     29  C   UNL     1      53.770   7.866   9.585  0.00  0.00    +0.000 A 
ATOM     30  N   UNL     1      52.422   7.642   9.672  0.00  0.00    +0.000 N 
ATOM     31  C   UNL     1      51.708   7.814  10.834  0.00  0.00    +0.000 A 
ATOM     32  O   UNL     1      50.511   7.555  10.888  0.00  0.00    +0.000 OA
ATOM     33  C   UNL     1      52.493   8.297  11.955  0.00  0.00    +0.000 A 
ATOM     34  H   UNL     1      51.899   7.306   8.875  0.00  0.00    +0.000 HD
ENDBRANCH  21  24
ENDBRANCH  19  20
ENDBRANCH   4  19
TORSDOF 8
ENDMDL
MODEL 5
REMARK VINA RESULT:    -7.241      2.261      2.414
REMARK INTER + INTRA:         -11.891
REMARK INTER:                 -11.047
REMARK INTRA:                  -0.844
REMARK UNBOUND:                -1.263
REMARK  Name = 
REMARK  8 active torsions:
REMARK  status: ('A' for Active; 'I' for Inactive)
REMARK    1  A    between atoms: C_2  and  C_3
REMARK    2  A    between atoms: C_3  and  N_4
REMARK    3  A    between atoms: C_3  and  C_26
REMARK    4  A    between atoms: N_4  and  C_5
REMARK    5  A    between atoms: C_5  and  C_6
REMARK    6  A    between atoms: C_9  and  C_10
REMARK    7  A    between atoms: C_10  and  N_11
REMARK    8  A    between atoms: C_12  and  C_14
REMARK                            x       y       z     vdW  Elec       q    Type
REMARK                         _______ _______ _______ _____ _____    ______ ____
ROOT
ATOM      1  C   UNL     1      45.983   6.113  12.219  0.00  0.00    +0.000 A 
ATOM      2  C   UNL     1      47.266   5.942  12.757  0.00  0.00    +0.000 A 
ATOM      3  C   UNL     1      47.900   6.993  13.414  0.00  0.00    +0.000 A 
ATOM      4  C   UNL     1      47.268   8.236  13.533  0.00  0.00    +0.000 A 
ATOM      5  C   UNL     1      46.019   8.428  12.928  0.00  0.00    +0.000 A 
ATOM      6  C   UNL     1      45.377   7.372  12.286  0.00  0.00    +0.000 A 
ENDROOT
BRANCH   1   7
ATOM      7  C   UNL     1      45.265   4.956  11.573  0.00  0.00    +0.000 C 
BRANCH   7   8
ATOM      8  N   UNL     1      45.273   5.088  10.110  0.00  0.00    +0.000 NA
ATOM      9  H   UNL     1      44.836   5.973   9.863  0.00  0.00    +0.000 HD
BRANCH   8  10
ATOM     10  C   UNL     1      44.551   4.008   9.418  0.00  0.00    +0.000 C 
BRANCH  10  11
ATOM     11  C   UNL     1      45.487   3.152   8.564  0.00  0.00    +0.000 A 
ATOM     12  C   UNL     1      46.285   3.691   7.534  0.00  0.00    +0.000 A 
ATOM     13  C   UNL     1      47.133   2.876   6.794  0.00  0.00    +0.000 A 
ATOM     14  C   UNL     1      47.161   1.527   7.095  0.00  0.00    +0.000 A 
ATOM     15  N   UNL     1      46.402   0.962   8.059  0.00  0.00    +0.000 NA
ATOM     16  C   UNL     1      45.580   1.779   8.762  0.00  0.00    +0.000 A 
ENDBRANCH  10  11
BRANCH  10  18
ATOM     17  N   UNL     1      43.168   2.328  11.151  0.00  0.00    +0.000 NA
ATOM     18  C   UNL     1      43.796   3.090  10.365  0.00  0.00    +0.000 C 
ENDBRANCH  10  18
ENDBRANCH   8  10
ENDBRANCH   7   8
ENDBRANCH   1   7
BRANCH   4  19
ATOM     19  C   UNL     1      47.929   9.362  14.275  0.00  0.00    +0.000 C 
BRANCH  19  20
ATOM     20  N   UNL     1      47.682   9.266  15.688  0.00  0.00    +0.000 N 
ATOM     21  C   UNL     1      48.691   8.941  16.554  0.00  0.00    +0.000 C 
ATOM     22  O   UNL     1      49.846   8.765  16.171  0.00  0.00    +0.000 OA
ATOM     23  H   UNL     1      46.715   9.185  15.986  0.00  0.00    +0.000 HD
BRANCH  21  24
ATOM     24  C   UNL     1      48.337   8.875  17.974  0.00  0.00    +0.000 A 
ATOM     25  C   UNL     1      48.295  10.042  18.723  0.00  0.00    +0.000 A 
ATOM     26  S   UNL     1      47.829   9.796  20.345  0.00  0.00    +0.000 S 
ATOM     27  C   UNL     1      47.713   8.114  20.113  0.00  0.00    +0.000 A 
ATOM     28  N   UNL     1      47.375   7.290  21.139  0.00  0.00    +0.000 NA
ATOM     29  C   UNL     1      47.349   6.036  20.830  0.00  0.00    +0.000 A 
ATOM     30  N   UNL     1      47.624   5.534  19.586  0.00  0.00    +0.000 N 
ATOM     31  C   UNL     1      47.939   6.330  18.510  0.00  0.00    +0.000 A 
ATOM     32  O   UNL     1      48.129   5.848  17.399  0.00  0.00    +0.000 OA
ATOM     33  C   UNL     1      48.000   7.749  18.810  0.00  0.00    +0.000 A 
ATOM     34  H   UNL     1      47.575   4.541  19.406  0.00  0.00    +0.000 HD
ENDBRANCH  21  24
ENDBRANCH  19  20
ENDBRANCH   4  19
TORSDOF 8
ENDMDL
MODEL 6
REMARK VINA RESULT:    -7.179      2.983      4.042
REMARK INTER + INTRA:         -11.798
REMARK INTER:                 -10.605
REMARK INTRA:                  -1.194
REMARK UNBOUND:                -1.263
REMARK  Name = 
REMARK  8 active torsions:
REMARK  status: ('A' for Active; 'I' for Inactive)
REMARK    1  A    between atoms: C_2  and  C_3
REMARK    2  A    between atoms: C_3  and  N_4
REMARK    3  A    between atoms: C_3  and  C_26
REMARK    4  A    between atoms: N_4  and  C_5
REMARK    5  A    between atoms: C_5  and  C_6
REMARK    6  A    between atoms: C_9  and  C_10
REMARK    7  A    between atoms: C_10  and  N_11
REMARK    8  A    between atoms: C_12  and  C_14
REMARK                            x       y       z     vdW  Elec       q    Type
REMARK                         _______ _______ _______ _____ _____    ______ ____
ROOT
ATOM      1  C   UNL     1      47.100   4.974  14.325  0.00  0.00    +0.000 A 
ATOM      2  C   UNL     1      47.145   4.231  15.512  0.00  0.00    +0.000 A 
ATOM      3  C   UNL     1      47.910   4.670  16.590  0.00  0.00    +0.000 A 
ATOM      4  C   UNL     1      48.652   5.853  16.494  0.00  0.00    +0.000 A 
ATOM      5  C   UNL     1      48.667   6.554  15.282  0.00  0.00    +0.000 A 
ATOM      6  C   UNL     1      47.889   6.124  14.209  0.00  0.00    +0.000 A 
ENDROOT
BRANCH   1   7
ATOM      7  C   UNL     1      46.217   4.541  13.184  0.00  0.00    +0.000 C 
BRANCH   7   8
ATOM      8  N   UNL     1      46.116   5.598  12.170  0.00  0.00    +0.000 NA
ATOM      9  H   UNL     1      46.199   6.500  12.635  0.00  0.00    +0.000 HD
BRANCH   8  10
ATOM     10  C   UNL     1      44.849   5.578  11.422  0.00  0.00    +0.000 C 
BRANCH  10  11
ATOM     11  C   UNL     1      44.867   4.545  10.295  0.00  0.00    +0.000 A 
ATOM     12  C   UNL     1      45.559   4.750   9.084  0.00  0.00    +0.000 A 
ATOM     13  C   UNL     1      45.560   3.775   8.093  0.00  0.00    +0.000 A 
ATOM     14  C   UNL     1      44.859   2.608   8.333  0.00  0.00    +0.000 A 
ATOM     15  N   UNL     1      44.167   2.374   9.469  0.00  0.00    +0.000 NA
ATOM     16  C   UNL     1      44.177   3.344  10.415  0.00  0.00    +0.000 A 
ENDBRANCH  10  11
BRANCH  10  18
ATOM     17  N   UNL     1      42.635   5.079  13.029  0.00  0.00    +0.000 NA
ATOM     18  C   UNL     1      43.639   5.305  12.300  0.00  0.00    +0.000 C 
ENDBRANCH  10  18
ENDBRANCH   8  10
ENDBRANCH   7   8
ENDBRANCH   1   7
BRANCH   4  19
ATOM     19  C   UNL     1      49.446   6.353  17.667  0.00  0.00    +0.000 C 
BRANCH  19  20
ATOM     20  N   UNL     1      50.412   5.378  18.092  0.00  0.00    +0.000 N 
ATOM     21  C   UNL     1      51.654   5.327  17.517  0.00  0.00    +0.000 C 
ATOM     22  O   UNL     1      52.006   6.131  16.658  0.00  0.00    +0.000 OA
ATOM     23  H   UNL     1      50.069   4.583  18.623  0.00  0.00    +0.000 HD
BRANCH  21  24
ATOM     24  C   UNL     1      52.567   4.300  18.026  0.00  0.00    +0.000 A 
ATOM     25  C   UNL     1      53.732   4.683  18.676  0.00  0.00    +0.000 A 
ATOM     26  S   UNL     1      54.662   3.369  19.238  0.00  0.00    +0.000 S 
ATOM     27  C   UNL     1      53.563   2.243  18.591  0.00  0.00    +0.000 A 
ATOM     28  N   UNL     1      53.786   0.907  18.701  0.00  0.00    +0.000 NA
ATOM     29  C   UNL     1      52.885   0.168  18.144  0.00  0.00    +0.000 A 
ATOM     30  N   UNL     1      51.779   0.645  17.492  0.00  0.00    +0.000 N 
ATOM     31  C   UNL     1      51.495   1.985  17.382  0.00  0.00    +0.000 A 
ATOM     32  O   UNL     1      50.468   2.373  16.835  0.00  0.00    +0.000 OA
ATOM     33  C   UNL     1      52.488   2.861  17.977  0.00  0.00    +0.000 A 
ATOM     34  H   UNL     1      51.104   0.012  17.086  0.00  0.00    +0.000 HD
ENDBRANCH  21  24
ENDBRANCH  19  20
ENDBRANCH   4  19
TORSDOF 8
ENDMDL
MODEL 7
REMARK VINA RESULT:    -7.077      2.911      8.467
REMARK INTER + INTRA:         -11.650
REMARK INTER:                 -10.016
REMARK INTRA:                  -1.634
REMARK UNBOUND:                -1.263
REMARK  Name = 
REMARK  8 active torsions:
REMARK  status: ('A' for Active; 'I' for Inactive)
REMARK    1  A    between atoms: C_2  and  C_3
REMARK    2  A    between atoms: C_3  and  N_4
REMARK    3  A    between atoms: C_3  and  C_26
REMARK    4  A    between atoms: N_4  and  C_5
REMARK    5  A    between atoms: C_5  and  C_6
REMARK    6  A    between atoms: C_9  and  C_10
REMARK    7  A    between atoms: C_10  and  N_11
REMARK    8  A    between atoms: C_12  and  C_14
REMARK                            x       y       z     vdW  Elec       q    Type
REMARK                         _______ _______ _______ _____ _____    ______ ____
ROOT
ATOM      1  C   UNL     1      48.971   7.882  16.055  0.00  0.00    +0.000 A 
ATOM      2  C   UNL     1      48.293   9.012  15.576  0.00  0.00    +0.000 A 
ATOM      3  C   UNL     1      47.735   9.010  14.300  0.00  0.00    +0.000 A 
ATOM      4  C   UNL     1      47.856   7.883  13.478  0.00  0.00    +0.000 A 
ATOM      5  C   UNL     1      48.598   6.785  13.928  0.00  0.00    +0.000 A 
ATOM      6  C   UNL     1      49.142   6.779  15.210  0.00  0.00    +0.000 A 
ENDROOT
BRANCH   1   7
ATOM      7  C   UNL     1      49.512   7.854  17.461  0.00  0.00    +0.000 C 
BRANCH   7   8
ATOM      8  N   UNL     1      48.453   7.519  18.422  0.00  0.00    +0.000 NA
ATOM      9  H   UNL     1      48.357   8.291  19.079  0.00  0.00    +0.000 HD
BRANCH   8  10
ATOM     10  C   UNL     1      48.719   6.290  19.187  0.00  0.00    +0.000 C 
BRANCH  10  11
ATOM     11  C   UNL     1      48.441   5.033  18.362  0.00  0.00    +0.000 A 
ATOM     12  C   UNL     1      49.452   4.117  18.005  0.00  0.00    +0.000 A 
ATOM     13  C   UNL     1      49.148   2.978  17.267  0.00  0.00    +0.000 A 
ATOM     14  C   UNL     1      47.832   2.782  16.891  0.00  0.00    +0.000 A 
ATOM     15  N   UNL     1      46.835   3.640  17.193  0.00  0.00    +0.000 NA
ATOM     16  C   UNL     1      47.159   4.745  17.908  0.00  0.00    +0.000 A 
ENDBRANCH  10  11
BRANCH  10  18
ATOM     17  N   UNL     1      51.322   6.143  20.154  0.00  0.00    +0.000 NA
ATOM     18  C   UNL     1      50.142   6.210  19.715  0.00  0.00    +0.000 C 
ENDBRANCH  10  18
ENDBRANCH   8  10
ENDBRANCH   7   8
ENDBRANCH   1   7
BRANCH   4  19
ATOM     19  C   UNL     1      47.220   7.860  12.117  0.00  0.00    +0.000 C 
BRANCH  19  20
ATOM     20  N   UNL     1      46.610   6.586  11.852  0.00  0.00    +0.000 N 
ATOM     21  C   UNL     1      45.257   6.483  11.672  0.00  0.00    +0.000 C 
ATOM     22  O   UNL     1      44.522   7.468  11.682  0.00  0.00    +0.000 OA
ATOM     23  H   UNL     1      47.157   5.756  12.062  0.00  0.00    +0.000 HD
BRANCH  21  24
ATOM     24  C   UNL     1      44.735   5.141  11.401  0.00  0.00    +0.000 A 
ATOM     25  C   UNL     1      43.980   4.493  12.368  0.00  0.00    +0.000 A 
ATOM     26  S   UNL     1      43.419   2.959  11.881  0.00  0.00    +0.000 S 
ATOM     27  C   UNL     1      44.205   3.088  10.377  0.00  0.00    +0.000 A 
ATOM     28  N   UNL     1      44.148   2.078   9.471  0.00  0.00    +0.000 NA
ATOM     29  C   UNL     1      44.811   2.298   8.384  0.00  0.00    +0.000 A 
ATOM     30  N   UNL     1      45.519   3.440   8.120  0.00  0.00    +0.000 N 
ATOM     31  C   UNL     1      45.579   4.501   8.992  0.00  0.00    +0.000 A 
ATOM     32  O   UNL     1      46.181   5.529   8.700  0.00  0.00    +0.000 OA
ATOM     33  C   UNL     1      44.865   4.295  10.239  0.00  0.00    +0.000 A 
ATOM     34  H   UNL     1      46.007   3.556   7.243  0.00  0.00    +0.000 HD
ENDBRANCH  21  24
ENDBRANCH  19  20
ENDBRANCH   4  19
TORSDOF 8
ENDMDL
MODEL 8
REMARK VINA RESULT:    -6.871      4.662      6.364
REMARK INTER + INTRA:         -11.347
REMARK INTER:                 -10.080
REMARK INTRA:                  -1.267
REMARK UNBOUND:                -1.263
REMARK  Name = 
REMARK  8 active torsions:
REMARK  status: ('A' for Active; 'I' for Inactive)
REMARK    1  A    between atoms: C_2  and  C_3
REMARK    2  A    between atoms: C_3  and  N_4
REMARK    3  A    between atoms: C_3  and  C_26
REMARK    4  A    between atoms: N_4  and  C_5
REMARK    5  A    between atoms: C_5  and  C_6
REMARK    6  A    between atoms: C_9  and  C_10
REMARK    7  A    between atoms: C_10  and  N_11
REMARK    8  A    between atoms: C_12  and  C_14
REMARK                            x       y       z     vdW  Elec       q    Type
REMARK                         _______ _______ _______ _____ _____    ______ ____
ROOT
ATOM      1  C   UNL     1      45.685   6.136  12.242  0.00  0.00    +0.000 A 
ATOM      2  C   UNL     1      46.527   5.324  13.014  0.00  0.00    +0.000 A 
ATOM      3  C   UNL     1      47.860   5.676  13.209  0.00  0.00    +0.000 A 
ATOM      4  C   UNL     1      48.376   6.839  12.625  0.00  0.00    +0.000 A 
ATOM      5  C   UNL     1      47.554   7.608  11.792  0.00  0.00    +0.000 A 
ATOM      6  C   UNL     1      46.217   7.266  11.610  0.00  0.00    +0.000 A 
ENDROOT
BRANCH   1   7
ATOM      7  C   UNL     1      44.224   5.797  12.090  0.00  0.00    +0.000 C 
BRANCH   7   8
ATOM      8  N   UNL     1      43.881   5.586  10.677  0.00  0.00    +0.000 NA
ATOM      9  H   UNL     1      43.052   6.134  10.461  0.00  0.00    +0.000 HD
BRANCH   8  10
ATOM     10  C   UNL     1      43.607   4.179  10.342  0.00  0.00    +0.000 C 
BRANCH  10  11
ATOM     11  C   UNL     1      44.649   3.607   9.380  0.00  0.00    +0.000 A 
ATOM     12  C   UNL     1      44.932   2.229   9.295  0.00  0.00    +0.000 A 
ATOM     13  C   UNL     1      45.878   1.754   8.393  0.00  0.00    +0.000 A 
ATOM     14  C   UNL     1      46.530   2.674   7.594  0.00  0.00    +0.000 A 
ATOM     15  N   UNL     1      46.306   4.005   7.653  0.00  0.00    +0.000 NA
ATOM     16  C   UNL     1      45.384   4.442   8.545  0.00  0.00    +0.000 A 
ENDBRANCH  10  11
BRANCH  10  18
ATOM     17  N   UNL     1      43.478   2.525  12.574  0.00  0.00    +0.000 NA
ATOM     18  C   UNL     1      43.536   3.275  11.562  0.00  0.00    +0.000 C 
ENDBRANCH  10  18
ENDBRANCH   8  10
ENDBRANCH   7   8
ENDBRANCH   1   7
BRANCH   4  19
ATOM     19  C   UNL     1      49.802   7.245  12.866  0.00  0.00    +0.000 C 
BRANCH  19  20
ATOM     20  N   UNL     1      50.412   7.733  11.660  0.00  0.00    +0.000 N 
ATOM     21  C   UNL     1      51.514   8.544  11.712  0.00  0.00    +0.000 C 
ATOM     22  O   UNL     1      52.049   8.847  12.776  0.00  0.00    +0.000 OA
ATOM     23  H   UNL     1      49.862   7.682  10.807  0.00  0.00    +0.000 HD
BRANCH  21  24
ATOM     24  C   UNL     1      52.063   8.983  10.426  0.00  0.00    +0.000 A 
ATOM     25  C   UNL     1      51.950  10.314  10.053  0.00  0.00    +0.000 A 
ATOM     26  S   UNL     1      52.674  10.665   8.549  0.00  0.00    +0.000 S 
ATOM     27  C   UNL     1      53.121   9.039   8.323  0.00  0.00    +0.000 A 
ATOM     28  N   UNL     1      53.766   8.643   7.195  0.00  0.00    +0.000 NA
ATOM     29  C   UNL     1      54.022   7.378   7.143  0.00  0.00    +0.000 A 
ATOM     30  N   UNL     1      53.698   6.476   8.121  0.00  0.00    +0.000 N 
ATOM     31  C   UNL     1      53.074   6.834   9.293  0.00  0.00    +0.000 A 
ATOM     32  O   UNL     1      52.845   6.006  10.168  0.00  0.00    +0.000 OA
ATOM     33  C   UNL     1      52.747   8.244   9.392  0.00  0.00    +0.000 A 
ATOM     34  H   UNL     1      53.937   5.499   8.025  0.00  0.00    +0.000 HD
ENDBRANCH  21  24
ENDBRANCH  19  20
ENDBRANCH   4  19
TORSDOF 8
ENDMDL
MODEL 9
REMARK VINA RESULT:    -6.849      3.469      7.984
REMARK INTER + INTRA:         -11.314
REMARK INTER:                  -9.246
REMARK INTRA:                  -2.068
REMARK UNBOUND:                -1.263
REMARK  Name = 
REMARK  8 active torsions:
REMARK  status: ('A' for Active; 'I' for Inactive)
REMARK    1  A    between atoms: C_2  and  C_3
REMARK    2  A    between atoms: C_3  and  N_4
REMARK    3  A    between atoms: C_3  and  C_26
REMARK    4  A    between atoms: N_4  and  C_5
REMARK    5  A    between atoms: C_5  and  C_6
REMARK    6  A    between atoms: C_9  and  C_10
REMARK    7  A    between atoms: C_10  and  N_11
REMARK    8  A    between atoms: C_12  and  C_14
REMARK                            x       y       z     vdW  Elec       q    Type
REMARK                         _______ _______ _______ _____ _____    ______ ____
ROOT
ATOM      1  C   UNL     1      51.502   6.925  17.373  0.00  0.00    +0.000 A 
ATOM      2  C   UNL     1      50.528   7.622  18.101  0.00  0.00    +0.000 A 
ATOM      3  C   UNL     1      49.525   8.327  17.442  0.00  0.00    +0.000 A 
ATOM      4  C   UNL     1      49.487   8.359  16.043  0.00  0.00    +0.000 A 
ATOM      5  C   UNL     1      50.504   7.726  15.317  0.00  0.00    +0.000 A 
ATOM      6  C   UNL     1      51.497   7.006  15.976  0.00  0.00    +0.000 A 
ENDROOT
BRANCH   1   7
ATOM      7  C   UNL     1      52.544   6.100  18.083  0.00  0.00    +0.000 C 
BRANCH   7   8
ATOM      8  N   UNL     1      52.643   4.760  17.490  0.00  0.00    +0.000 NA
ATOM      9  H   UNL     1      52.213   4.783  16.568  0.00  0.00    +0.000 HD
BRANCH   8  10
ATOM     10  C   UNL     1      51.977   3.715  18.285  0.00  0.00    +0.000 C 
BRANCH  10  11
ATOM     11  C   UNL     1      50.655   3.274  17.654  0.00  0.00    +0.000 A 
ATOM     12  C   UNL     1      49.450   3.982  17.837  0.00  0.00    +0.000 A 
ATOM     13  C   UNL     1      48.275   3.551  17.231  0.00  0.00    +0.000 A 
ATOM     14  C   UNL     1      48.329   2.408  16.455  0.00  0.00    +0.000 A 
ATOM     15  N   UNL     1      49.454   1.687  16.266  0.00  0.00    +0.000 NA
ATOM     16  C   UNL     1      50.584   2.126  16.873  0.00  0.00    +0.000 A 
ENDBRANCH  10  11
BRANCH  10  18
ATOM     17  N   UNL     1      53.557   1.459  18.672  0.00  0.00    +0.000 NA
ATOM     18  C   UNL     1      52.840   2.482  18.496  0.00  0.00    +0.000 C 
ENDBRANCH  10  18
ENDBRANCH   8  10
ENDBRANCH   7   8
ENDBRANCH   1   7
BRANCH   4  19
ATOM     19  C   UNL     1      48.384   9.084  15.326  0.00  0.00    +0.000 C 
BRANCH  19  20
ATOM     20  N   UNL     1      47.483   8.161  14.694  0.00  0.00    +0.000 N 
ATOM     21  C   UNL     1      47.142   8.308  13.376  0.00  0.00    +0.000 C 
ATOM     22  O   UNL     1      47.622   9.196  12.675  0.00  0.00    +0.000 OA
ATOM     23  H   UNL     1      46.916   7.576  15.300  0.00  0.00    +0.000 HD
BRANCH  21  24
ATOM     24  C   UNL     1      46.221   7.311  12.825  0.00  0.00    +0.000 A 
ATOM     25  C   UNL     1      45.138   7.728  12.064  0.00  0.00    +0.000 A 
ATOM     26  S   UNL     1      44.189   6.443  11.467  0.00  0.00    +0.000 S 
ATOM     27  C   UNL     1      45.166   5.287  12.245  0.00  0.00    +0.000 A 
ATOM     28  N   UNL     1      44.881   3.962  12.161  0.00  0.00    +0.000 NA
ATOM     29  C   UNL     1      45.689   3.199  12.820  0.00  0.00    +0.000 A 
ATOM     30  N   UNL     1      46.760   3.643  13.549  0.00  0.00    +0.000 N 
ATOM     31  C   UNL     1      47.107   4.970  13.638  0.00  0.00    +0.000 A 
ATOM     32  O   UNL     1      48.102   5.326  14.258  0.00  0.00    +0.000 OA
ATOM     33  C   UNL     1      46.217   5.872  12.929  0.00  0.00    +0.000 A 
ATOM     34  H   UNL     1      47.362   2.992  14.034  0.00  0.00    +0.000 HD
ENDBRANCH  21  24
ENDBRANCH  19  20
ENDBRANCH   4  19
TORSDOF 8
ENDMDL
