MODEL 1
REMARK VINA RESULT:    -7.940      0.000      0.000
REMARK INTER + INTRA:         -11.299
REMARK INTER:                 -10.725
REMARK INTRA:                  -0.574
REMARK UNBOUND:                -0.574
REMARK  Name = 
REMARK  8 active torsions:
REMARK  status: ('A' for Active; 'I' for Inactive)
REMARK    1  A    between atoms: C_1  and  C_2
REMARK    2  A    between atoms: C_3  and  O_4
REMARK    3  A    between atoms: O_4  and  C_5
REMARK    4  A    between atoms: C_9  and  C_10
REMARK    5  A    between atoms: C_11  and  C_12
REMARK    6  A    between atoms: C_12  and  N_13
REMARK    7  A    between atoms: C_17  and  C_18
REMARK    8  A    between atoms: C_24  and  C_25
REMARK                            x       y       z     vdW  Elec       q    Type
REMARK                         _______ _______ _______ _____ _____    ______ ____
ROOT
ATOM      1  C   UNL     1      47.898   6.784  14.091  0.00  0.00    +0.000 A 
ATOM      2  C   UNL     1      47.897   8.172  14.215  0.00  0.00    +0.000 A 
ATOM      3  C   UNL     1      47.096   8.952  13.378  0.00  0.00    +0.000 A 
ATOM      4  C   UNL     1      46.322   8.344  12.387  0.00  0.00    +0.000 A 
ATOM      5  C   UNL     1      46.373   6.959  12.214  0.00  0.00    +0.000 A 
ATOM      6  C   UNL     1      47.162   6.180  13.071  0.00  0.00    +0.000 A 
ENDROOT
BRANCH   5   7
ATOM      7  C   UNL     1      45.657   6.314  11.114  0.00  0.00    +0.000 C 
ATOM      8  C   UNL     1      44.546   5.597  11.346  0.00  0.00    +0.000 C 
BRANCH   8   9
ATOM      9  C   UNL     1      43.681   5.009  10.273  0.00  0.00    +0.000 C 
BRANCH   9  10
ATOM     10  N   UNL     1      43.941   3.579  10.210  0.00  0.00    +0.000 N 
ATOM     11  C   UNL     1      44.859   3.223   9.209  0.00  0.00    +0.000 A 
ATOM     12  C   UNL     1      45.212   1.880   9.084  0.00  0.00    +0.000 A 
ATOM     13  C   UNL     1      46.143   1.497   8.116  0.00  0.00    +0.000 A 
ATOM     14  C   UNL     1      46.704   2.466   7.292  0.00  0.00    +0.000 A 
ATOM     15  C   UNL     1      46.307   3.779   7.483  0.00  0.00    +0.000 A 
ATOM     16  N   UNL     1      45.408   4.170   8.419  0.00  0.00    +0.000 NA
ATOM     17  H   UNL     1      43.092   3.038  10.103  0.00  0.00    +0.000 HD
BRANCH  14  18
ATOM     18  C   UNL     1      47.653   2.137   6.278  0.00  0.00    +0.000 C 
ATOM     19  N   UNL     1      48.423   1.865   5.457  0.00  0.00    +0.000 NA
ENDBRANCH  14  18
ENDBRANCH   9  10
ENDBRANCH   8   9
ENDBRANCH   5   7
BRANCH   1  20
ATOM     20  O   UNL     1      48.664   6.095  15.001  0.00  0.00    +0.000 OA
BRANCH  20  23
ATOM     21  C   UNL     1      48.331   5.241  18.504  0.00  0.00    +0.000 C 
ATOM     22  C   UNL     1      48.742   4.706  17.150  0.00  0.00    +0.000 C 
ATOM     23  C   UNL     1      47.986   5.173  15.878  0.00  0.00    +0.000 C 
ATOM     24  O   UNL     1      48.003   3.782  15.395  0.00  0.00    +0.000 OA
ATOM     25  C   UNL     1      48.139   3.339  16.779  0.00  0.00    +0.000 C 
ATOM     26  C   UNL     1      49.038   2.133  16.921  0.00  0.00    +0.000 C 
ENDBRANCH  20  23
ENDBRANCH   1  20
TORSDOF 6
ENDMDL
MODEL 2
REMARK VINA RESULT:    -7.478      1.305      2.005
REMARK INTER + INTRA:         -10.675
REMARK INTER:                 -10.183
REMARK INTRA:                  -0.492
REMARK UNBOUND:                -0.574
REMARK  Name = 
REMARK  8 active torsions:
REMARK  status: ('A' for Active; 'I' for Inactive)
REMARK    1  A    between atoms: C_1  and  C_2
REMARK    2  A    between atoms: C_3  and  O_4
REMARK    3  A    between atoms: O_4  and  C_5
REMARK    4  A    between atoms: C_9  and  C_10
REMARK    5  A    between atoms: C_11  and  C_12
REMARK    6  A    between atoms: C_12  and  N_13
REMARK    7  A    between atoms: C_17  and  C_18
REMARK    8  A    between atoms: C_24  and  C_25
REMARK                            x       y       z     vdW  Elec       q    Type
REMARK                         _______ _______ _______ _____ _____    ______ ____
ROOT
ATOM      1  C   UNL     1      47.526   5.069  15.333  0.00  0.00    +0.000 A 
ATOM      2  C   UNL     1      48.273   6.205  15.028  0.00  0.00    +0.000 A 
ATOM      3  C   UNL     1      48.046   6.895  13.836  0.00  0.00    +0.000 A 
ATOM      4  C   UNL     1      47.096   6.426  12.926  0.00  0.00    +0.000 A 
ATOM      5  C   UNL     1      46.393   5.249  13.196  0.00  0.00    +0.000 A 
ATOM      6  C   UNL     1      46.610   4.572  14.404  0.00  0.00    +0.000 A 
ENDROOT
BRANCH   5   7
ATOM      7  C   UNL     1      45.475   4.681  12.210  0.00  0.00    +0.000 C 
ATOM      8  C   UNL     1      44.610   5.466  11.548  0.00  0.00    +0.000 C 
BRANCH   8   9
ATOM      9  C   UNL     1      43.723   4.993  10.436  0.00  0.00    +0.000 C 
BRANCH   9  10
ATOM     10  N   UNL     1      43.885   3.554  10.304  0.00  0.00    +0.000 N 
ATOM     11  C   UNL     1      44.807   3.185   9.310  0.00  0.00    +0.000 A 
ATOM     12  C   UNL     1      45.069   1.829   9.124  0.00  0.00    +0.000 A 
ATOM     13  C   UNL     1      46.001   1.432   8.163  0.00  0.00    +0.000 A 
ATOM     14  C   UNL     1      46.654   2.400   7.408  0.00  0.00    +0.000 A 
ATOM     15  C   UNL     1      46.343   3.726   7.658  0.00  0.00    +0.000 A 
ATOM     16  N   UNL     1      45.445   4.131   8.589  0.00  0.00    +0.000 NA
ATOM     17  H   UNL     1      43.004   3.081  10.145  0.00  0.00    +0.000 HD
BRANCH  14  18
ATOM     18  C   UNL     1      47.610   2.057   6.404  0.00  0.00    +0.000 C 
ATOM     19  N   UNL     1      48.382   1.774   5.589  0.00  0.00    +0.000 NA
ENDBRANCH  14  18
ENDBRANCH   9  10
ENDBRANCH   8   9
ENDBRANCH   5   7
BRANCH   1  20
ATOM     20  O   UNL     1      47.770   4.494  16.557  0.00  0.00    +0.000 OA
BRANCH  20  23
ATOM     21  C   UNL     1      51.030   3.464  17.750  0.00  0.00    +0.000 C 
ATOM     22  C   UNL     1      49.669   3.958  18.188  0.00  0.00    +0.000 C 
ATOM     23  C   UNL     1      48.903   4.979  17.306  0.00  0.00    +0.000 C 
ATOM     24  O   UNL     1      48.528   5.709  18.529  0.00  0.00    +0.000 OA
ATOM     25  C   UNL     1      49.692   5.127  19.191  0.00  0.00    +0.000 C 
ATOM     26  C   UNL     1      49.431   4.789  20.640  0.00  0.00    +0.000 C 
ENDBRANCH  20  23
ENDBRANCH   1  20
TORSDOF 6
ENDMDL
MODEL 3
REMARK VINA RESULT:    -7.302      4.363      8.872
REMARK INTER + INTRA:         -10.437
REMARK INTER:                  -9.682
REMARK INTRA:                  -0.755
REMARK UNBOUND:                -0.574
REMARK  Name = 
REMARK  8 active torsions:
REMARK  status: ('A' for Active; 'I' for Inactive)
REMARK    1  A    between atoms: C_1  and  C_2
REMARK    2  A    between atoms: C_3  and  O_4
REMARK    3  A    between atoms: O_4  and  C_5
REMARK    4  A    between atoms: C_9  and  C_10
REMARK    5  A    between atoms: C_11  and  C_12
REMARK    6  A    between atoms: C_12  and  N_13
REMARK    7  A    between atoms: C_17  and  C_18
REMARK    8  A    between atoms: C_24  and  C_25
REMARK                            x       y       z     vdW  Elec       q    Type
REMARK                         _______ _______ _______ _____ _____    ______ ____
ROOT
ATOM      1  C   UNL     1      45.091   5.016   9.997  0.00  0.00    +0.000 A 
ATOM      2  C   UNL     1      43.771   4.583  10.110  0.00  0.00    +0.000 A 
ATOM      3  C   UNL     1      43.165   4.497  11.365  0.00  0.00    +0.000 A 
ATOM      4  C   UNL     1      43.893   4.807  12.515  0.00  0.00    +0.000 A 
ATOM      5  C   UNL     1      45.237   5.175  12.412  0.00  0.00    +0.000 A 
ATOM      6  C   UNL     1      45.834   5.280  11.149  0.00  0.00    +0.000 A 
ENDROOT
BRANCH   5   7
ATOM      7  C   UNL     1      46.046   5.397  13.609  0.00  0.00    +0.000 C 
ATOM      8  C   UNL     1      47.275   5.929  13.517  0.00  0.00    +0.000 C 
BRANCH   8   9
ATOM      9  C   UNL     1      48.123   6.307  14.693  0.00  0.00    +0.000 C 
BRANCH   9  10
ATOM     10  N   UNL     1      47.667   5.545  15.846  0.00  0.00    +0.000 N 
ATOM     11  C   UNL     1      48.694   5.239  16.754  0.00  0.00    +0.000 A 
ATOM     12  C   UNL     1      48.362   4.545  17.916  0.00  0.00    +0.000 A 
ATOM     13  C   UNL     1      49.356   4.249  18.852  0.00  0.00    +0.000 A 
ATOM     14  C   UNL     1      50.662   4.657  18.607  0.00  0.00    +0.000 A 
ATOM     15  C   UNL     1      50.910   5.348  17.433  0.00  0.00    +0.000 A 
ATOM     16  N   UNL     1      49.958   5.647  16.515  0.00  0.00    +0.000 NA
ATOM     17  H   UNL     1      47.182   4.697  15.580  0.00  0.00    +0.000 HD
BRANCH  14  18
ATOM     18  C   UNL     1      51.724   4.377  19.519  0.00  0.00    +0.000 C 
ATOM     19  N   UNL     1      52.588   4.148  20.255  0.00  0.00    +0.000 NA
ENDBRANCH  14  18
ENDBRANCH   9  10
ENDBRANCH   8   9
ENDBRANCH   5   7
BRANCH   1  20
ATOM     20  O   UNL     1      45.583   5.134   8.719  0.00  0.00    +0.000 OA
BRANCH  20  23
ATOM     21  C   UNL     1      45.227   1.533   8.831  0.00  0.00    +0.000 C 
ATOM     22  C   UNL     1      46.116   2.658   8.350  0.00  0.00    +0.000 C 
ATOM     23  C   UNL     1      45.478   3.983   7.857  0.00  0.00    +0.000 C 
ATOM     24  O   UNL     1      46.440   3.996   6.742  0.00  0.00    +0.000 OA
ATOM     25  C   UNL     1      46.569   2.548   6.882  0.00  0.00    +0.000 C 
ATOM     26  C   UNL     1      47.978   2.061   6.636  0.00  0.00    +0.000 C 
ENDBRANCH  20  23
ENDBRANCH   1  20
TORSDOF 6
ENDMDL
MODEL 4
REMARK VINA RESULT:    -7.052      1.654      2.054
REMARK INTER + INTRA:         -10.100
REMARK INTER:                  -9.609
REMARK INTRA:                  -0.492
REMARK UNBOUND:                -0.574
REMARK  Name = 
REMARK  8 active torsions:
REMARK  status: ('A' for Active; 'I' for Inactive)
REMARK    1  A    between atoms: C_1  and  C_2
REMARK    2  A    between atoms: C_3  and  O_4
REMARK    3  A    between atoms: O_4  and  C_5
REMARK    4  A    between atoms: C_9  and  C_10
REMARK    5  A    between atoms: C_11  and  C_12
REMARK    6  A    between atoms: C_12  and  N_13
REMARK    7  A    between atoms: C_17  and  C_18
REMARK    8  A    between atoms: C_24  and  C_25
REMARK                            x       y       z     vdW  Elec       q    Type
REMARK                         _______ _______ _______ _____ _____    ______ ____
ROOT
ATOM      1  C   UNL     1      48.258   7.543  13.128  0.00  0.00    +0.000 A 
ATOM      2  C   UNL     1      47.609   8.703  13.547  0.00  0.00    +0.000 A 
ATOM      3  C   UNL     1      46.281   8.936  13.181  0.00  0.00    +0.000 A 
ATOM      4  C   UNL     1      45.612   8.025  12.361  0.00  0.00    +0.000 A 
ATOM      5  C   UNL     1      46.281   6.895  11.883  0.00  0.00    +0.000 A 
ATOM      6  C   UNL     1      47.606   6.656  12.271  0.00  0.00    +0.000 A 
ENDROOT
BRANCH   5   7
ATOM      7  C   UNL     1      45.635   5.986  10.937  0.00  0.00    +0.000 C 
ATOM      8  C   UNL     1      44.327   5.702  11.044  0.00  0.00    +0.000 C 
BRANCH   8   9
ATOM      9  C   UNL     1      43.558   4.885  10.051  0.00  0.00    +0.000 C 
BRANCH   9  10
ATOM     10  N   UNL     1      44.030   3.511  10.126  0.00  0.00    +0.000 N 
ATOM     11  C   UNL     1      44.925   3.172   9.099  0.00  0.00    +0.000 A 
ATOM     12  C   UNL     1      45.471   1.889   9.097  0.00  0.00    +0.000 A 
ATOM     13  C   UNL     1      46.386   1.530   8.104  0.00  0.00    +0.000 A 
ATOM     14  C   UNL     1      46.738   2.462   7.135  0.00  0.00    +0.000 A 
ATOM     15  C   UNL     1      46.157   3.717   7.210  0.00  0.00    +0.000 A 
ATOM     16  N   UNL     1      45.270   4.085   8.167  0.00  0.00    +0.000 NA
ATOM     17  H   UNL     1      43.268   2.844  10.150  0.00  0.00    +0.000 HD
BRANCH  14  18
ATOM     18  C   UNL     1      47.659   2.153   6.089  0.00  0.00    +0.000 C 
ATOM     19  N   UNL     1      48.408   1.897   5.243  0.00  0.00    +0.000 NA
ENDBRANCH  14  18
ENDBRANCH   9  10
ENDBRANCH   8   9
ENDBRANCH   5   7
BRANCH   1  20
ATOM     20  O   UNL     1      49.540   7.365  13.592  0.00  0.00    +0.000 OA
BRANCH  20  23
ATOM     21  C   UNL     1      51.991   8.569  15.969  0.00  0.00    +0.000 C 
ATOM     22  C   UNL     1      51.214   7.348  15.529  0.00  0.00    +0.000 C 
ATOM     23  C   UNL     1      49.760   7.511  15.010  0.00  0.00    +0.000 C 
ATOM     24  O   UNL     1      49.382   6.319  15.787  0.00  0.00    +0.000 OA
ATOM     25  C   UNL     1      50.521   6.572  16.665  0.00  0.00    +0.000 C 
ATOM     26  C   UNL     1      51.192   5.301  17.132  0.00  0.00    +0.000 C 
ENDBRANCH  20  23
ENDBRANCH   1  20
TORSDOF 6
ENDMDL
MODEL 5
REMARK VINA RESULT:    -6.697      4.534      8.327
REMARK INTER + INTRA:          -9.620
REMARK INTER:                  -9.171
REMARK INTRA:                  -0.449
REMARK UNBOUND:                -0.574
REMARK  Name = 
REMARK  8 active torsions:
REMARK  status: ('A' for Active; 'I' for Inactive)
REMARK    1  A    between atoms: C_1  and  C_2
REMARK    2  A    between atoms: C_3  and  O_4
REMARK    3  A    between atoms: O_4  and  C_5
REMARK    4  A    between atoms: C_9  and  C_10
REMARK    5  A    between atoms: C_11  and  C_12
REMARK    6  A    between atoms: C_12  and  N_13
REMARK    7  A    between atoms: C_17  and  C_18
REMARK    8  A    between atoms: C_24  and  C_25
REMARK                            x       y       z     vdW  Elec       q    Type
REMARK                         _______ _______ _______ _____ _____    ______ ____
ROOT
ATOM      1  C   UNL     1      45.051   5.814  12.031  0.00  0.00    +0.000 A 
ATOM      2  C   UNL     1      45.979   6.673  11.444  0.00  0.00    +0.000 A 
ATOM      3  C   UNL     1      47.292   6.717  11.916  0.00  0.00    +0.000 A 
ATOM      4  C   UNL     1      47.671   5.928  13.004  0.00  0.00    +0.000 A 
ATOM      5  C   UNL     1      46.727   5.116  13.639  0.00  0.00    +0.000 A 
ATOM      6  C   UNL     1      45.416   5.060  13.148  0.00  0.00    +0.000 A 
ENDROOT
BRANCH   5   7
ATOM      7  C   UNL     1      47.074   4.367  14.845  0.00  0.00    +0.000 C 
ATOM      8  C   UNL     1      47.658   4.979  15.888  0.00  0.00    +0.000 C 
BRANCH   8   9
ATOM      9  C   UNL     1      47.934   4.321  17.206  0.00  0.00    +0.000 C 
BRANCH   9  10
ATOM     10  N   UNL     1      49.233   4.773  17.678  0.00  0.00    +0.000 N 
ATOM     11  C   UNL     1      50.215   3.769  17.658  0.00  0.00    +0.000 A 
ATOM     12  C   UNL     1      51.509   4.103  18.053  0.00  0.00    +0.000 A 
ATOM     13  C   UNL     1      52.513   3.133  18.018  0.00  0.00    +0.000 A 
ATOM     14  C   UNL     1      52.204   1.849  17.586  0.00  0.00    +0.000 A 
ATOM     15  C   UNL     1      50.896   1.598  17.203  0.00  0.00    +0.000 A 
ATOM     16  N   UNL     1      49.909   2.527  17.227  0.00  0.00    +0.000 NA
ATOM     17  H   UNL     1      49.185   5.185  18.602  0.00  0.00    +0.000 HD
BRANCH  14  18
ATOM     18  C   UNL     1      53.183   0.812  17.536  0.00  0.00    +0.000 C 
ATOM     19  N   UNL     1      53.977  -0.031  17.502  0.00  0.00    +0.000 NA
ENDBRANCH  14  18
ENDBRANCH   9  10
ENDBRANCH   8   9
ENDBRANCH   5   7
BRANCH   1  20
ATOM     20  O   UNL     1      43.802   5.788  11.458  0.00  0.00    +0.000 OA
BRANCH  20  23
ATOM     21  C   UNL     1      43.325   2.221  11.857  0.00  0.00    +0.000 C 
ATOM     22  C   UNL     1      44.117   3.271  11.110  0.00  0.00    +0.000 C 
ATOM     23  C   UNL     1      43.436   4.608  10.714  0.00  0.00    +0.000 C 
ATOM     24  O   UNL     1      44.092   4.517   9.399  0.00  0.00    +0.000 OA
ATOM     25  C   UNL     1      44.187   3.072   9.584  0.00  0.00    +0.000 C 
ATOM     26  C   UNL     1      45.467   2.494   9.029  0.00  0.00    +0.000 C 
ENDBRANCH  20  23
ENDBRANCH   1  20
TORSDOF 6
ENDMDL
MODEL 6
REMARK VINA RESULT:    -6.233      4.059      8.648
REMARK INTER + INTRA:          -8.994
REMARK INTER:                  -8.547
REMARK INTRA:                  -0.447
REMARK UNBOUND:                -0.574
REMARK  Name = 
REMARK  8 active torsions:
REMARK  status: ('A' for Active; 'I' for Inactive)
REMARK    1  A    between atoms: C_1  and  C_2
REMARK    2  A    between atoms: C_3  and  O_4
REMARK    3  A    between atoms: O_4  and  C_5
REMARK    4  A    between atoms: C_9  and  C_10
REMARK    5  A    between atoms: C_11  and  C_12
REMARK    6  A    between atoms: C_12  and  N_13
REMARK    7  A    between atoms: C_17  and  C_18
REMARK    8  A    between atoms: C_24  and  C_25
REMARK                            x       y       z     vdW  Elec       q    Type
REMARK                         _______ _______ _______ _____ _____    ______ ____
ROOT
ATOM      1  C   UNL     1      44.253   3.759  10.908  0.00  0.00    +0.000 A 
ATOM      2  C   UNL     1      43.011   4.185  11.375  0.00  0.00    +0.000 A 
ATOM      3  C   UNL     1      42.860   5.472  11.895  0.00  0.00    +0.000 A 
ATOM      4  C   UNL     1      43.963   6.323  11.985  0.00  0.00    +0.000 A 
ATOM      5  C   UNL     1      45.224   5.877  11.581  0.00  0.00    +0.000 A 
ATOM      6  C   UNL     1      45.365   4.592  11.041  0.00  0.00    +0.000 A 
ENDROOT
BRANCH   5   7
ATOM      7  C   UNL     1      46.410   6.711  11.768  0.00  0.00    +0.000 C 
ATOM      8  C   UNL     1      46.467   7.608  12.766  0.00  0.00    +0.000 C 
BRANCH   8   9
ATOM      9  C   UNL     1      47.683   8.413  13.109  0.00  0.00    +0.000 C 
BRANCH   9  10
ATOM     10  N   UNL     1      47.477   9.016  14.416  0.00  0.00    +0.000 N 
ATOM     11  C   UNL     1      48.126   8.330  15.456  0.00  0.00    +0.000 A 
ATOM     12  C   UNL     1      48.028   8.844  16.748  0.00  0.00    +0.000 A 
ATOM     13  C   UNL     1      48.685   8.200  17.799  0.00  0.00    +0.000 A 
ATOM     14  C   UNL     1      49.429   7.056  17.536  0.00  0.00    +0.000 A 
ATOM     15  C   UNL     1      49.483   6.612  16.224  0.00  0.00    +0.000 A 
ATOM     16  N   UNL     1      48.855   7.226  15.191  0.00  0.00    +0.000 NA
ATOM     17  H   UNL     1      46.495   9.125  14.640  0.00  0.00    +0.000 HD
BRANCH  14  18
ATOM     18  C   UNL     1      50.115   6.347  18.568  0.00  0.00    +0.000 C 
ATOM     19  N   UNL     1      50.667   5.770  19.406  0.00  0.00    +0.000 NA
ENDBRANCH  14  18
ENDBRANCH   9  10
ENDBRANCH   8   9
ENDBRANCH   5   7
BRANCH   1  20
ATOM     20  O   UNL     1      44.293   2.503  10.351  0.00  0.00    +0.000 OA
BRANCH  20  23
ATOM     21  C   UNL     1      46.389   0.772   7.961  0.00  0.00    +0.000 C 
ATOM     22  C   UNL     1      46.012   2.138   8.490  0.00  0.00    +0.000 C 
ATOM     23  C   UNL     1      44.551   2.411   8.936  0.00  0.00    +0.000 C 
ATOM     24  O   UNL     1      44.625   3.720   8.266  0.00  0.00    +0.000 OA
ATOM     25  C   UNL     1      45.681   3.186   7.411  0.00  0.00    +0.000 C 
ATOM     26  C   UNL     1      46.750   4.206   7.098  0.00  0.00    +0.000 C 
ENDBRANCH  20  23
ENDBRANCH   1  20
TORSDOF 6
ENDMDL
MODEL 7
REMARK VINA RESULT:    -6.063      1.762      2.356
REMARK INTER + INTRA:          -8.764
REMARK INTER:                  -8.147
REMARK INTRA:                  -0.617
REMARK UNBOUND:                -0.574
REMARK  Name = 
REMARK  8 active torsions:
REMARK  status: ('A' for Active; 'I' for Inactive)
REMARK    1  A    between atoms: C_1  and  C_2
REMARK    2  A    between atoms: C_3  and  O_4
REMARK    3  A    between atoms: O_4  and  C_5
REMARK    4  A    between atoms: C_9  and  C_10
REMARK    5  A    between atoms: C_11  and  C_12
REMARK    6  A    between atoms: C_12  and  N_13
REMARK    7  A    between atoms: C_17  and  C_18
REMARK    8  A    between atoms: C_24  and  C_25
REMARK                            x       y       z     vdW  Elec       q    Type
REMARK                         _______ _______ _______ _____ _____    ______ ____
ROOT
ATOM      1  C   UNL     1      49.433   7.132  15.381  0.00  0.00    +0.000 A 
ATOM      2  C   UNL     1      50.546   7.537  14.646  0.00  0.00    +0.000 A 
ATOM      3  C   UNL     1      50.400   7.944  13.318  0.00  0.00    +0.000 A 
ATOM      4  C   UNL     1      49.143   7.908  12.710  0.00  0.00    +0.000 A 
ATOM      5  C   UNL     1      48.037   7.437  13.422  0.00  0.00    +0.000 A 
ATOM      6  C   UNL     1      48.186   7.050  14.761  0.00  0.00    +0.000 A 
ENDROOT
BRANCH   5   7
ATOM      7  C   UNL     1      46.736   7.287  12.772  0.00  0.00    +0.000 C 
ATOM      8  C   UNL     1      46.013   6.168  12.935  0.00  0.00    +0.000 C 
BRANCH   8   9
ATOM      9  C   UNL     1      44.621   5.979  12.412  0.00  0.00    +0.000 C 
BRANCH   9  10
ATOM     10  N   UNL     1      44.435   4.568  12.112  0.00  0.00    +0.000 N 
ATOM     11  C   UNL     1      44.845   4.215  10.816  0.00  0.00    +0.000 A 
ATOM     12  C   UNL     1      44.747   2.878  10.434  0.00  0.00    +0.000 A 
ATOM     13  C   UNL     1      45.172   2.490   9.161  0.00  0.00    +0.000 A 
ATOM     14  C   UNL     1      45.688   3.448   8.296  0.00  0.00    +0.000 A 
ATOM     15  C   UNL     1      45.759   4.754   8.752  0.00  0.00    +0.000 A 
ATOM     16  N   UNL     1      45.355   5.148   9.985  0.00  0.00    +0.000 NA
ATOM     17  H   UNL     1      43.481   4.265  12.263  0.00  0.00    +0.000 HD
BRANCH  14  18
ATOM     18  C   UNL     1      46.130   3.117   6.980  0.00  0.00    +0.000 C 
ATOM     19  N   UNL     1      46.483   2.845   5.911  0.00  0.00    +0.000 NA
ENDBRANCH  14  18
ENDBRANCH   9  10
ENDBRANCH   8   9
ENDBRANCH   5   7
BRANCH   1  20
ATOM     20  O   UNL     1      49.661   6.814  16.699  0.00  0.00    +0.000 OA
BRANCH  20  23
ATOM     21  C   UNL     1      47.161   4.208  16.965  0.00  0.00    +0.000 C 
ATOM     22  C   UNL     1      48.166   5.021  17.750  0.00  0.00    +0.000 C 
ATOM     23  C   UNL     1      49.506   5.433  17.086  0.00  0.00    +0.000 C 
ATOM     24  O   UNL     1      50.197   5.096  18.342  0.00  0.00    +0.000 OA
ATOM     25  C   UNL     1      49.090   4.202  18.671  0.00  0.00    +0.000 C 
ATOM     26  C   UNL     1      48.759   4.200  20.145  0.00  0.00    +0.000 C 
ENDBRANCH  20  23
ENDBRANCH   1  20
TORSDOF 6
ENDMDL
MODEL 8
REMARK VINA RESULT:    -6.012      4.180      8.181
REMARK INTER + INTRA:          -8.695
REMARK INTER:                  -7.914
REMARK INTRA:                  -0.781
REMARK UNBOUND:                -0.574
REMARK  Name = 
REMARK  8 active torsions:
REMARK  status: ('A' for Active; 'I' for Inactive)
REMARK    1  A    between atoms: C_1  and  C_2
REMARK    2  A    between atoms: C_3  and  O_4
REMARK    3  A    between atoms: O_4  and  C_5
REMARK    4  A    between atoms: C_9  and  C_10
REMARK    5  A    between atoms: C_11  and  C_12
REMARK    6  A    between atoms: C_12  and  N_13
REMARK    7  A    between atoms: C_17  and  C_18
REMARK    8  A    between atoms: C_24  and  C_25
REMARK                            x       y       z     vdW  Elec       q    Type
REMARK                         _______ _______ _______ _____ _____    ______ ____
ROOT
ATOM      1  C   UNL     1      44.280   3.882  10.674  0.00  0.00    +0.000 A 
ATOM      2  C   UNL     1      43.101   3.816  11.415  0.00  0.00    +0.000 A 
ATOM      3  C   UNL     1      42.848   4.755  12.417  0.00  0.00    +0.000 A 
ATOM      4  C   UNL     1      43.794   5.741  12.706  0.00  0.00    +0.000 A 
ATOM      5  C   UNL     1      45.007   5.769  12.013  0.00  0.00    +0.000 A 
ATOM      6  C   UNL     1      45.246   4.838  10.994  0.00  0.00    +0.000 A 
ENDROOT
BRANCH   5   7
ATOM      7  C   UNL     1      46.054   6.723  12.374  0.00  0.00    +0.000 C 
ATOM      8  C   UNL     1      45.784   8.035  12.468  0.00  0.00    +0.000 C 
BRANCH   8   9
ATOM      9  C   UNL     1      46.760   9.064  12.952  0.00  0.00    +0.000 C 
BRANCH   9  10
ATOM     10  N   UNL     1      46.981   8.851  14.373  0.00  0.00    +0.000 N 
ATOM     11  C   UNL     1      48.289   8.443  14.679  0.00  0.00    +0.000 A 
ATOM     12  C   UNL     1      48.623   8.246  16.018  0.00  0.00    +0.000 A 
ATOM     13  C   UNL     1      49.924   7.867  16.357  0.00  0.00    +0.000 A 
ATOM     14  C   UNL     1      50.866   7.694  15.349  0.00  0.00    +0.000 A 
ATOM     15  C   UNL     1      50.458   7.915  14.044  0.00  0.00    +0.000 A 
ATOM     16  N   UNL     1      49.201   8.287  13.697  0.00  0.00    +0.000 NA
ATOM     17  H   UNL     1      46.317   8.198  14.772  0.00  0.00    +0.000 HD
BRANCH  14  18
ATOM     18  C   UNL     1      52.208   7.299  15.630  0.00  0.00    +0.000 C 
ATOM     19  N   UNL     1      53.297   6.974  15.854  0.00  0.00    +0.000 NA
ENDBRANCH  14  18
ENDBRANCH   9  10
ENDBRANCH   8   9
ENDBRANCH   5   7
BRANCH   1  20
ATOM     20  O   UNL     1      44.413   2.960   9.664  0.00  0.00    +0.000 OA
BRANCH  20  23
ATOM     21  C   UNL     1      46.847   4.346   7.370  0.00  0.00    +0.000 C 
ATOM     22  C   UNL     1      46.014   3.120   7.673  0.00  0.00    +0.000 C 
ATOM     23  C   UNL     1      45.739   2.725   9.148  0.00  0.00    +0.000 C 
ATOM     24  O   UNL     1      45.988   1.320   8.787  0.00  0.00    +0.000 OA
ATOM     25  C   UNL     1      46.787   1.787   7.657  0.00  0.00    +0.000 C 
ATOM     26  C   UNL     1      46.628   0.920   6.431  0.00  0.00    +0.000 C 
ENDBRANCH  20  23
ENDBRANCH   1  20
TORSDOF 6
ENDMDL
MODEL 9
REMARK VINA RESULT:    -5.925      5.015      6.620
REMARK INTER + INTRA:          -8.578
REMARK INTER:                  -7.669
REMARK INTRA:                  -0.909
REMARK UNBOUND:                -0.574
REMARK  Name = 
REMARK  8 active torsions:
REMARK  status: ('A' for Active; 'I' for Inactive)
REMARK    1  A    between atoms: C_1  and  C_2
REMARK    2  A    between atoms: C_3  and  O_4
REMARK    3  A    between atoms: O_4  and  C_5
REMARK    4  A    between atoms: C_9  and  C_10
REMARK    5  A    between atoms: C_11  and  C_12
REMARK    6  A    between atoms: C_12  and  N_13
REMARK    7  A    between atoms: C_17  and  C_18
REMARK    8  A    between atoms: C_24  and  C_25
REMARK                            x       y       z     vdW  Elec       q    Type
REMARK                         _______ _______ _______ _____ _____    ______ ____
ROOT
ATOM      1  C   UNL     1      46.792   6.957  12.930  0.00  0.00    +0.000 A 
ATOM      2  C   UNL     1      45.991   8.093  13.034  0.00  0.00    +0.000 A 
ATOM      3  C   UNL     1      46.432   9.314  12.519  0.00  0.00    +0.000 A 
ATOM      4  C   UNL     1      47.695   9.409  11.933  0.00  0.00    +0.000 A 
ATOM      5  C   UNL     1      48.530   8.289  11.888  0.00  0.00    +0.000 A 
ATOM      6  C   UNL     1      48.074   7.062  12.387  0.00  0.00    +0.000 A 
ENDROOT
BRANCH   5   7
ATOM      7  C   UNL     1      49.896   8.394  11.378  0.00  0.00    +0.000 C 
ATOM      8  C   UNL     1      50.908   8.730  12.194  0.00  0.00    +0.000 C 
BRANCH   8   9
ATOM      9  C   UNL     1      52.351   8.738  11.789  0.00  0.00    +0.000 C 
BRANCH   9  10
ATOM     10  N   UNL     1      52.762   7.366  11.536  0.00  0.00    +0.000 N 
ATOM     11  C   UNL     1      53.046   7.109  10.185  0.00  0.00    +0.000 A 
ATOM     12  C   UNL     1      53.487   5.834   9.835  0.00  0.00    +0.000 A 
ATOM     13  C   UNL     1      53.804   5.554   8.504  0.00  0.00    +0.000 A 
ATOM     14  C   UNL     1      53.675   6.557   7.549  0.00  0.00    +0.000 A 
ATOM     15  C   UNL     1      53.238   7.799   7.978  0.00  0.00    +0.000 A 
ATOM     16  N   UNL     1      52.929   8.090   9.266  0.00  0.00    +0.000 NA
ATOM     17  H   UNL     1      52.086   6.693  11.878  0.00  0.00    +0.000 HD
BRANCH  14  18
ATOM     18  C   UNL     1      53.974   6.331   6.172  0.00  0.00    +0.000 C 
ATOM     19  N   UNL     1      54.212   6.146   5.054  0.00  0.00    +0.000 NA
ENDBRANCH  14  18
ENDBRANCH   9  10
ENDBRANCH   8   9
ENDBRANCH   5   7
BRANCH   1  20
ATOM     20  O   UNL     1      46.249   5.787  13.403  0.00  0.00    +0.000 OA
BRANCH  20  23
ATOM     21  C   UNL     1      45.388   5.099   9.954  0.00  0.00    +0.000 C 
ATOM     22  C   UNL     1      45.001   4.816  11.389  0.00  0.00    +0.000 C 
ATOM     23  C   UNL     1      46.107   4.695  12.471  0.00  0.00    +0.000 C 
ATOM     24  O   UNL     1      45.389   3.537  13.030  0.00  0.00    +0.000 OA
ATOM     25  C   UNL     1      44.775   3.330  11.722  0.00  0.00    +0.000 C 
ATOM     26  C   UNL     1      43.341   2.862  11.818  0.00  0.00    +0.000 C 
ENDBRANCH  20  23
ENDBRANCH   1  20
TORSDOF 6
ENDMDL
