MODEL 1
REMARK VINA RESULT:    -8.061      0.000      0.000
REMARK INTER + INTRA:         -10.705
REMARK INTER:                  -9.946
REMARK INTRA:                  -0.760
REMARK UNBOUND:                -0.760
REMARK  Name = 
REMARK  5 active torsions:
REMARK  status: ('A' for Active; 'I' for Inactive)
REMARK    1  A    between atoms: C_1  and  C_2
REMARK    2  A    between atoms: C_2  and  N_3
REMARK    3  A    between atoms: C_2  and  C_13
REMARK    4  A    between atoms: N_3  and  C_4
REMARK    5  A    between atoms: C_7  and  C_8
REMARK                            x       y       z     vdW  Elec       q    Type
REMARK                         _______ _______ _______ _____ _____    ______ ____
ROOT
ATOM      1  C   UNL     1      44.669   4.063   9.255  0.00  0.00    +0.000 A 
ATOM      2  C   UNL     1      45.641   4.555   8.374  0.00  0.00    +0.000 A 
ATOM      3  C   UNL     1      46.469   3.692   7.652  0.00  0.00    +0.000 A 
ATOM      4  C   UNL     1      46.382   2.313   7.845  0.00  0.00    +0.000 A 
ATOM      5  C   UNL     1      45.466   1.809   8.773  0.00  0.00    +0.000 A 
ATOM      6  C   UNL     1      44.622   2.682   9.475  0.00  0.00    +0.000 A 
ENDROOT
BRANCH   4   7
ATOM      7  C   UNL     1      47.257   1.436   7.019  0.00  0.00    +0.000 C 
ATOM      8  N   UNL     1      48.279   2.026   6.330  0.00  0.00    +0.000 N 
ATOM      9  O   UNL     1      47.057   0.234   6.929  0.00  0.00    +0.000 OA
ATOM     10  H   UNL     1      48.364   3.023   6.207  0.00  0.00    +0.000 HD
ATOM     11  H   UNL     1      48.794   1.424   5.701  0.00  0.00    +0.000 HD
ENDBRANCH   4   7
BRANCH   1  12
ATOM     12  N   UNL     1      43.889   4.997   9.942  0.00  0.00    +0.000 N 
ATOM     13  H   UNL     1      44.225   5.922   9.677  0.00  0.00    +0.000 HD
BRANCH  12  15
ATOM     14  C   UNL     1      42.267   5.469  11.734  0.00  0.00    +0.000 C 
ATOM     15  C   UNL     1      43.648   4.889  11.393  0.00  0.00    +0.000 C 
BRANCH  15  16
ATOM     16  C   UNL     1      44.773   5.633  12.186  0.00  0.00    +0.000 C 
ATOM     17  C   UNL     1      45.423   6.778  11.382  0.00  0.00    +0.000 C 
ATOM     18  C   UNL     1      46.607   7.418  12.103  0.00  0.00    +0.000 C 
ATOM     19  C   UNL     1      47.634   6.373  12.517  0.00  0.00    +0.000 C 
ATOM     20  C   UNL     1      46.997   5.331  13.426  0.00  0.00    +0.000 C 
ATOM     21  C   UNL     1      45.822   4.643  12.736  0.00  0.00    +0.000 C 
ENDBRANCH  15  16
ENDBRANCH  12  15
ENDBRANCH   1  12
TORSDOF 4
ENDMDL
MODEL 2
REMARK VINA RESULT:    -7.779      1.012      1.942
REMARK INTER + INTRA:         -10.357
REMARK INTER:                  -9.693
REMARK INTRA:                  -0.664
REMARK UNBOUND:                -0.760
REMARK  Name = 
REMARK  5 active torsions:
REMARK  status: ('A' for Active; 'I' for Inactive)
REMARK    1  A    between atoms: C_1  and  C_2
REMARK    2  A    between atoms: C_2  and  N_3
REMARK    3  A    between atoms: C_2  and  C_13
REMARK    4  A    between atoms: N_3  and  C_4
REMARK    5  A    between atoms: C_7  and  C_8
REMARK                            x       y       z     vdW  Elec       q    Type
REMARK                         _______ _______ _______ _____ _____    ______ ____
ROOT
ATOM      1  C   UNL     1      44.613   3.984   9.161  0.00  0.00    +0.000 A 
ATOM      2  C   UNL     1      44.444   2.616   9.411  0.00  0.00    +0.000 A 
ATOM      3  C   UNL     1      45.277   1.662   8.822  0.00  0.00    +0.000 A 
ATOM      4  C   UNL     1      46.264   2.058   7.918  0.00  0.00    +0.000 A 
ATOM      5  C   UNL     1      46.400   3.412   7.603  0.00  0.00    +0.000 A 
ATOM      6  C   UNL     1      45.573   4.365   8.217  0.00  0.00    +0.000 A 
ENDROOT
BRANCH   4   7
ATOM      7  C   UNL     1      47.154   1.005   7.353  0.00  0.00    +0.000 C 
ATOM      8  N   UNL     1      46.868  -0.297   7.654  0.00  0.00    +0.000 N 
ATOM      9  O   UNL     1      48.125   1.288   6.668  0.00  0.00    +0.000 OA
ATOM     10  H   UNL     1      46.213  -0.572   8.369  0.00  0.00    +0.000 HD
ATOM     11  H   UNL     1      47.544  -0.981   7.340  0.00  0.00    +0.000 HD
ENDBRANCH   4   7
BRANCH   1  12
ATOM     12  N   UNL     1      43.729   4.868   9.786  0.00  0.00    +0.000 N 
ATOM     13  H   UNL     1      43.652   5.689   9.187  0.00  0.00    +0.000 HD
BRANCH  12  15
ATOM     14  C   UNL     1      42.615   5.976  11.683  0.00  0.00    +0.000 C 
ATOM     15  C   UNL     1      43.873   5.232  11.208  0.00  0.00    +0.000 C 
BRANCH  15  16
ATOM     16  C   UNL     1      45.150   6.113  11.416  0.00  0.00    +0.000 C 
ATOM     17  C   UNL     1      46.150   5.498  12.417  0.00  0.00    +0.000 C 
ATOM     18  C   UNL     1      47.332   6.415  12.721  0.00  0.00    +0.000 C 
ATOM     19  C   UNL     1      46.864   7.791  13.173  0.00  0.00    +0.000 C 
ATOM     20  C   UNL     1      45.990   8.435  12.104  0.00  0.00    +0.000 C 
ATOM     21  C   UNL     1      44.778   7.564  11.786  0.00  0.00    +0.000 C 
ENDBRANCH  15  16
ENDBRANCH  12  15
ENDBRANCH   1  12
TORSDOF 4
ENDMDL
MODEL 3
REMARK VINA RESULT:    -6.636      2.879      5.943
REMARK INTER + INTRA:          -8.948
REMARK INTER:                  -8.718
REMARK INTRA:                  -0.230
REMARK UNBOUND:                -0.760
REMARK  Name = 
REMARK  5 active torsions:
REMARK  status: ('A' for Active; 'I' for Inactive)
REMARK    1  A    between atoms: C_1  and  C_2
REMARK    2  A    between atoms: C_2  and  N_3
REMARK    3  A    between atoms: C_2  and  C_13
REMARK    4  A    between atoms: N_3  and  C_4
REMARK    5  A    between atoms: C_7  and  C_8
REMARK                            x       y       z     vdW  Elec       q    Type
REMARK                         _______ _______ _______ _____ _____    ______ ____
ROOT
ATOM      1  C   UNL     1      45.114   5.213  10.922  0.00  0.00    +0.000 A 
ATOM      2  C   UNL     1      46.062   6.191  10.598  0.00  0.00    +0.000 A 
ATOM      3  C   UNL     1      46.941   6.695  11.561  0.00  0.00    +0.000 A 
ATOM      4  C   UNL     1      46.846   6.272  12.887  0.00  0.00    +0.000 A 
ATOM      5  C   UNL     1      45.858   5.348  13.240  0.00  0.00    +0.000 A 
ATOM      6  C   UNL     1      44.996   4.830  12.262  0.00  0.00    +0.000 A 
ENDROOT
BRANCH   4   7
ATOM      7  C   UNL     1      47.835   6.808  13.862  0.00  0.00    +0.000 C 
ATOM      8  N   UNL     1      47.530   7.978  14.499  0.00  0.00    +0.000 N 
ATOM      9  O   UNL     1      48.898   6.244  14.071  0.00  0.00    +0.000 OA
ATOM     10  H   UNL     1      46.773   8.583  14.219  0.00  0.00    +0.000 HD
ATOM     11  H   UNL     1      48.260   8.369  15.080  0.00  0.00    +0.000 HD
ENDBRANCH   4   7
BRANCH   1  12
ATOM     12  N   UNL     1      44.270   4.769   9.900  0.00  0.00    +0.000 N 
ATOM     13  H   UNL     1      43.341   5.140  10.096  0.00  0.00    +0.000 HD
BRANCH  12  15
ATOM     14  C   UNL     1      43.936   2.467  10.709  0.00  0.00    +0.000 C 
ATOM     15  C   UNL     1      44.226   3.354   9.488  0.00  0.00    +0.000 C 
BRANCH  15  16
ATOM     16  C   UNL     1      45.577   2.944   8.813  0.00  0.00    +0.000 C 
ATOM     17  C   UNL     1      45.927   3.812   7.587  0.00  0.00    +0.000 C 
ATOM     18  C   UNL     1      47.175   3.330   6.850  0.00  0.00    +0.000 C 
ATOM     19  C   UNL     1      47.066   1.859   6.480  0.00  0.00    +0.000 C 
ATOM     20  C   UNL     1      46.861   1.009   7.726  0.00  0.00    +0.000 C 
ATOM     21  C   UNL     1      45.606   1.436   8.483  0.00  0.00    +0.000 C 
ENDBRANCH  15  16
ENDBRANCH  12  15
ENDBRANCH   1  12
TORSDOF 4
ENDMDL
MODEL 4
REMARK VINA RESULT:    -6.268      3.342      6.007
REMARK INTER + INTRA:          -8.493
REMARK INTER:                  -7.844
REMARK INTRA:                  -0.650
REMARK UNBOUND:                -0.760
REMARK  Name = 
REMARK  5 active torsions:
REMARK  status: ('A' for Active; 'I' for Inactive)
REMARK    1  A    between atoms: C_1  and  C_2
REMARK    2  A    between atoms: C_2  and  N_3
REMARK    3  A    between atoms: C_2  and  C_13
REMARK    4  A    between atoms: N_3  and  C_4
REMARK    5  A    between atoms: C_7  and  C_8
REMARK                            x       y       z     vdW  Elec       q    Type
REMARK                         _______ _______ _______ _____ _____    ______ ____
ROOT
ATOM      1  C   UNL     1      46.133   5.527  12.441  0.00  0.00    +0.000 A 
ATOM      2  C   UNL     1      46.521   6.595  11.622  0.00  0.00    +0.000 A 
ATOM      3  C   UNL     1      47.701   7.302  11.864  0.00  0.00    +0.000 A 
ATOM      4  C   UNL     1      48.489   6.991  12.973  0.00  0.00    +0.000 A 
ATOM      5  C   UNL     1      48.080   5.974  13.840  0.00  0.00    +0.000 A 
ATOM      6  C   UNL     1      46.905   5.254  13.575  0.00  0.00    +0.000 A 
ENDROOT
BRANCH   4   7
ATOM      7  C   UNL     1      49.759   7.746  13.159  0.00  0.00    +0.000 C 
ATOM      8  N   UNL     1      50.509   7.466  14.267  0.00  0.00    +0.000 N 
ATOM      9  O   UNL     1      50.113   8.609  12.370  0.00  0.00    +0.000 OA
ATOM     10  H   UNL     1      50.171   6.920  15.044  0.00  0.00    +0.000 HD
ATOM     11  H   UNL     1      51.313   8.061  14.419  0.00  0.00    +0.000 HD
ENDBRANCH   4   7
BRANCH   1  12
ATOM     12  N   UNL     1      44.933   4.879  12.132  0.00  0.00    +0.000 N 
ATOM     13  H   UNL     1      45.126   3.879  12.121  0.00  0.00    +0.000 HD
BRANCH  12  15
ATOM     14  C   UNL     1      42.633   5.412  11.429  0.00  0.00    +0.000 C 
ATOM     15  C   UNL     1      44.100   5.295  10.988  0.00  0.00    +0.000 C 
BRANCH  15  16
ATOM     16  C   UNL     1      44.245   4.273   9.812  0.00  0.00    +0.000 C 
ATOM     17  C   UNL     1      44.349   2.810  10.292  0.00  0.00    +0.000 C 
ATOM     18  C   UNL     1      44.623   1.826   9.157  0.00  0.00    +0.000 C 
ATOM     19  C   UNL     1      45.846   2.238   8.350  0.00  0.00    +0.000 C 
ATOM     20  C   UNL     1      45.658   3.633   7.770  0.00  0.00    +0.000 C 
ATOM     21  C   UNL     1      45.408   4.658   8.872  0.00  0.00    +0.000 C 
ENDBRANCH  15  16
ENDBRANCH  12  15
ENDBRANCH   1  12
TORSDOF 4
ENDMDL
MODEL 5
REMARK VINA RESULT:    -6.256      3.155      6.300
REMARK INTER + INTRA:          -8.478
REMARK INTER:                  -8.199
REMARK INTRA:                  -0.279
REMARK UNBOUND:                -0.760
REMARK  Name = 
REMARK  5 active torsions:
REMARK  status: ('A' for Active; 'I' for Inactive)
REMARK    1  A    between atoms: C_1  and  C_2
REMARK    2  A    between atoms: C_2  and  N_3
REMARK    3  A    between atoms: C_2  and  C_13
REMARK    4  A    between atoms: N_3  and  C_4
REMARK    5  A    between atoms: C_7  and  C_8
REMARK                            x       y       z     vdW  Elec       q    Type
REMARK                         _______ _______ _______ _____ _____    ______ ____
ROOT
ATOM      1  C   UNL     1      44.417   5.352  10.265  0.00  0.00    +0.000 A 
ATOM      2  C   UNL     1      43.521   6.003  11.122  0.00  0.00    +0.000 A 
ATOM      3  C   UNL     1      43.947   7.018  11.982  0.00  0.00    +0.000 A 
ATOM      4  C   UNL     1      45.298   7.362  12.044  0.00  0.00    +0.000 A 
ATOM      5  C   UNL     1      46.217   6.674  11.246  0.00  0.00    +0.000 A 
ATOM      6  C   UNL     1      45.775   5.672  10.369  0.00  0.00    +0.000 A 
ENDROOT
BRANCH   4   7
ATOM      7  C   UNL     1      45.692   8.480  12.944  0.00  0.00    +0.000 C 
ATOM      8  N   UNL     1      44.924   9.610  12.928  0.00  0.00    +0.000 N 
ATOM      9  O   UNL     1      46.684   8.412  13.654  0.00  0.00    +0.000 OA
ATOM     10  H   UNL     1      44.226   9.799  12.226  0.00  0.00    +0.000 HD
ATOM     11  H   UNL     1      45.270  10.389  13.474  0.00  0.00    +0.000 HD
ENDBRANCH   4   7
BRANCH   1  12
ATOM     12  N   UNL     1      43.907   4.343   9.443  0.00  0.00    +0.000 N 
ATOM     13  H   UNL     1      42.891   4.404   9.489  0.00  0.00    +0.000 HD
BRANCH  12  15
ATOM     14  C   UNL     1      44.649   2.590  11.007  0.00  0.00    +0.000 C 
ATOM     15  C   UNL     1      44.384   2.951   9.537  0.00  0.00    +0.000 C 
BRANCH  15  16
ATOM     16  C   UNL     1      45.678   2.761   8.677  0.00  0.00    +0.000 C 
ATOM     17  C   UNL     1      45.689   3.632   7.404  0.00  0.00    +0.000 C 
ATOM     18  C   UNL     1      46.887   3.352   6.499  0.00  0.00    +0.000 C 
ATOM     19  C   UNL     1      46.994   1.872   6.164  0.00  0.00    +0.000 C 
ATOM     20  C   UNL     1      47.122   1.045   7.436  0.00  0.00    +0.000 C 
ATOM     21  C   UNL     1      45.930   1.271   8.362  0.00  0.00    +0.000 C 
ENDBRANCH  15  16
ENDBRANCH  12  15
ENDBRANCH   1  12
TORSDOF 4
ENDMDL
MODEL 6
REMARK VINA RESULT:    -5.861      3.327      6.162
REMARK INTER + INTRA:          -7.991
REMARK INTER:                  -7.320
REMARK INTRA:                  -0.672
REMARK UNBOUND:                -0.760
REMARK  Name = 
REMARK  5 active torsions:
REMARK  status: ('A' for Active; 'I' for Inactive)
REMARK    1  A    between atoms: C_1  and  C_2
REMARK    2  A    between atoms: C_2  and  N_3
REMARK    3  A    between atoms: C_2  and  C_13
REMARK    4  A    between atoms: N_3  and  C_4
REMARK    5  A    between atoms: C_7  and  C_8
REMARK                            x       y       z     vdW  Elec       q    Type
REMARK                         _______ _______ _______ _____ _____    ______ ____
ROOT
ATOM      1  C   UNL     1      45.563   5.940  12.476  0.00  0.00    +0.000 A 
ATOM      2  C   UNL     1      46.959   5.940  12.586  0.00  0.00    +0.000 A 
ATOM      3  C   UNL     1      47.694   7.124  12.486  0.00  0.00    +0.000 A 
ATOM      4  C   UNL     1      47.047   8.329  12.212  0.00  0.00    +0.000 A 
ATOM      5  C   UNL     1      45.661   8.335  12.029  0.00  0.00    +0.000 A 
ATOM      6  C   UNL     1      44.929   7.145  12.154  0.00  0.00    +0.000 A 
ENDROOT
BRANCH   4   7
ATOM      7  C   UNL     1      47.872   9.567  12.160  0.00  0.00    +0.000 C 
ATOM      8  N   UNL     1      47.449  10.645  12.886  0.00  0.00    +0.000 N 
ATOM      9  O   UNL     1      48.879   9.637  11.470  0.00  0.00    +0.000 OA
ATOM     10  H   UNL     1      46.533  10.710  13.303  0.00  0.00    +0.000 HD
ATOM     11  H   UNL     1      47.972  11.500  12.754  0.00  0.00    +0.000 HD
ENDBRANCH   4   7
BRANCH   1  12
ATOM     12  N   UNL     1      44.907   4.710  12.580  0.00  0.00    +0.000 N 
ATOM     13  H   UNL     1      45.568   4.051  12.990  0.00  0.00    +0.000 HD
BRANCH  12  15
ATOM     14  C   UNL     1      43.384   2.891  11.916  0.00  0.00    +0.000 C 
ATOM     15  C   UNL     1      44.173   4.122  11.444  0.00  0.00    +0.000 C 
BRANCH  15  16
ATOM     16  C   UNL     1      45.166   3.738  10.297  0.00  0.00    +0.000 C 
ATOM     17  C   UNL     1      45.306   4.840   9.226  0.00  0.00    +0.000 C 
ATOM     18  C   UNL     1      46.171   4.416   8.041  0.00  0.00    +0.000 C 
ATOM     19  C   UNL     1      45.679   3.109   7.437  0.00  0.00    +0.000 C 
ATOM     20  C   UNL     1      45.683   2.003   8.483  0.00  0.00    +0.000 C 
ATOM     21  C   UNL     1      44.808   2.371   9.677  0.00  0.00    +0.000 C 
ENDBRANCH  15  16
ENDBRANCH  12  15
ENDBRANCH   1  12
TORSDOF 4
ENDMDL
MODEL 7
REMARK VINA RESULT:    -5.543      2.836      5.068
REMARK INTER + INTRA:          -7.599
REMARK INTER:                  -6.867
REMARK INTRA:                  -0.732
REMARK UNBOUND:                -0.760
REMARK  Name = 
REMARK  5 active torsions:
REMARK  status: ('A' for Active; 'I' for Inactive)
REMARK    1  A    between atoms: C_1  and  C_2
REMARK    2  A    between atoms: C_2  and  N_3
REMARK    3  A    between atoms: C_2  and  C_13
REMARK    4  A    between atoms: N_3  and  C_4
REMARK    5  A    between atoms: C_7  and  C_8
REMARK                            x       y       z     vdW  Elec       q    Type
REMARK                         _______ _______ _______ _____ _____    ______ ____
ROOT
ATOM      1  C   UNL     1      46.402   6.108  12.946  0.00  0.00    +0.000 A 
ATOM      2  C   UNL     1      45.696   4.943  13.272  0.00  0.00    +0.000 A 
ATOM      3  C   UNL     1      45.014   4.211  12.297  0.00  0.00    +0.000 A 
ATOM      4  C   UNL     1      44.975   4.668  10.979  0.00  0.00    +0.000 A 
ATOM      5  C   UNL     1      45.615   5.866  10.651  0.00  0.00    +0.000 A 
ATOM      6  C   UNL     1      46.317   6.582  11.633  0.00  0.00    +0.000 A 
ENDROOT
BRANCH   4   7
ATOM      7  C   UNL     1      44.271   3.827   9.971  0.00  0.00    +0.000 C 
ATOM      8  N   UNL     1      44.151   4.323   8.703  0.00  0.00    +0.000 N 
ATOM      9  O   UNL     1      43.789   2.744  10.265  0.00  0.00    +0.000 OA
ATOM     10  H   UNL     1      44.346   5.281   8.459  0.00  0.00    +0.000 HD
ATOM     11  H   UNL     1      43.585   3.777   8.066  0.00  0.00    +0.000 HD
ENDBRANCH   4   7
BRANCH   1  12
ATOM     12  N   UNL     1      47.049   6.782  13.986  0.00  0.00    +0.000 N 
ATOM     13  H   UNL     1      46.701   7.740  13.986  0.00  0.00    +0.000 HD
BRANCH  12  15
ATOM     14  C   UNL     1      48.862   6.634  15.647  0.00  0.00    +0.000 C 
ATOM     15  C   UNL     1      48.514   6.726  14.153  0.00  0.00    +0.000 C 
BRANCH  15  16
ATOM     16  C   UNL     1      49.183   7.982  13.503  0.00  0.00    +0.000 C 
ATOM     17  C   UNL     1      48.261   9.219  13.491  0.00  0.00    +0.000 C 
ATOM     18  C   UNL     1      48.862  10.405  12.741  0.00  0.00    +0.000 C 
ATOM     19  C   UNL     1      49.288  10.012  11.334  0.00  0.00    +0.000 C 
ATOM     20  C   UNL     1      50.307   8.881  11.382  0.00  0.00    +0.000 C 
ATOM     21  C   UNL     1      49.740   7.660  12.100  0.00  0.00    +0.000 C 
ENDBRANCH  15  16
ENDBRANCH  12  15
ENDBRANCH   1  12
TORSDOF 4
ENDMDL
MODEL 8
REMARK VINA RESULT:    -5.412      3.332      5.259
REMARK INTER + INTRA:          -7.437
REMARK INTER:                  -6.897
REMARK INTRA:                  -0.540
REMARK UNBOUND:                -0.760
REMARK  Name = 
REMARK  5 active torsions:
REMARK  status: ('A' for Active; 'I' for Inactive)
REMARK    1  A    between atoms: C_1  and  C_2
REMARK    2  A    between atoms: C_2  and  N_3
REMARK    3  A    between atoms: C_2  and  C_13
REMARK    4  A    between atoms: N_3  and  C_4
REMARK    5  A    between atoms: C_7  and  C_8
REMARK                            x       y       z     vdW  Elec       q    Type
REMARK                         _______ _______ _______ _____ _____    ______ ____
ROOT
ATOM      1  C   UNL     1      46.496   6.086  12.239  0.00  0.00    +0.000 A 
ATOM      2  C   UNL     1      45.950   6.056  10.949  0.00  0.00    +0.000 A 
ATOM      3  C   UNL     1      45.149   4.993  10.525  0.00  0.00    +0.000 A 
ATOM      4  C   UNL     1      44.928   3.904  11.369  0.00  0.00    +0.000 A 
ATOM      5  C   UNL     1      45.523   3.885  12.633  0.00  0.00    +0.000 A 
ATOM      6  C   UNL     1      46.307   4.969  13.058  0.00  0.00    +0.000 A 
ENDROOT
BRANCH   4   7
ATOM      7  C   UNL     1      44.031   2.818  10.884  0.00  0.00    +0.000 C 
ATOM      8  N   UNL     1      44.436   2.096   9.797  0.00  0.00    +0.000 N 
ATOM      9  O   UNL     1      42.954   2.592  11.415  0.00  0.00    +0.000 OA
ATOM     10  H   UNL     1      45.205   2.368   9.204  0.00  0.00    +0.000 HD
ATOM     11  H   UNL     1      43.765   1.434   9.430  0.00  0.00    +0.000 HD
ENDBRANCH   4   7
BRANCH   1  12
ATOM     12  N   UNL     1      47.291   7.185  12.577  0.00  0.00    +0.000 N 
ATOM     13  H   UNL     1      46.927   7.988  12.066  0.00  0.00    +0.000 HD
BRANCH  12  15
ATOM     14  C   UNL     1      49.337   7.284  13.947  0.00  0.00    +0.000 C 
ATOM     15  C   UNL     1      48.764   7.120  12.530  0.00  0.00    +0.000 C 
BRANCH  15  16
ATOM     16  C   UNL     1      49.326   8.224  11.574  0.00  0.00    +0.000 C 
ATOM     17  C   UNL     1      50.863   8.344  11.627  0.00  0.00    +0.000 C 
ATOM     18  C   UNL     1      51.400   9.507  10.795  0.00  0.00    +0.000 C 
ATOM     19  C   UNL     1      50.725  10.817  11.173  0.00  0.00    +0.000 C 
ATOM     20  C   UNL     1      49.218  10.715  10.978  0.00  0.00    +0.000 C 
ATOM     21  C   UNL     1      48.630   9.581  11.813  0.00  0.00    +0.000 C 
ENDBRANCH  15  16
ENDBRANCH  12  15
ENDBRANCH   1  12
TORSDOF 4
ENDMDL
MODEL 9
REMARK VINA RESULT:    -5.327      4.074      6.942
REMARK INTER + INTRA:          -7.332
REMARK INTER:                  -6.652
REMARK INTRA:                  -0.680
REMARK UNBOUND:                -0.760
REMARK  Name = 
REMARK  5 active torsions:
REMARK  status: ('A' for Active; 'I' for Inactive)
REMARK    1  A    between atoms: C_1  and  C_2
REMARK    2  A    between atoms: C_2  and  N_3
REMARK    3  A    between atoms: C_2  and  C_13
REMARK    4  A    between atoms: N_3  and  C_4
REMARK    5  A    between atoms: C_7  and  C_8
REMARK                            x       y       z     vdW  Elec       q    Type
REMARK                         _______ _______ _______ _____ _____    ______ ____
ROOT
ATOM      1  C   UNL     1      47.434   5.963  13.402  0.00  0.00    +0.000 A 
ATOM      2  C   UNL     1      46.896   4.781  13.928  0.00  0.00    +0.000 A 
ATOM      3  C   UNL     1      47.146   4.395  15.247  0.00  0.00    +0.000 A 
ATOM      4  C   UNL     1      47.995   5.157  16.051  0.00  0.00    +0.000 A 
ATOM      5  C   UNL     1      48.597   6.300  15.519  0.00  0.00    +0.000 A 
ATOM      6  C   UNL     1      48.320   6.693  14.201  0.00  0.00    +0.000 A 
ENDROOT
BRANCH   4   7
ATOM      7  C   UNL     1      48.193   4.724  17.462  0.00  0.00    +0.000 C 
ATOM      8  N   UNL     1      47.164   4.065  18.075  0.00  0.00    +0.000 N 
ATOM      9  O   UNL     1      49.224   4.971  18.069  0.00  0.00    +0.000 OA
ATOM     10  H   UNL     1      46.231   4.016  17.697  0.00  0.00    +0.000 HD
ATOM     11  H   UNL     1      47.288   3.872  19.060  0.00  0.00    +0.000 HD
ENDBRANCH   4   7
BRANCH   1  12
ATOM     12  N   UNL     1      47.139   6.270  12.071  0.00  0.00    +0.000 N 
ATOM     13  H   UNL     1      48.002   6.595  11.639  0.00  0.00    +0.000 HD
BRANCH  12  15
ATOM     14  C   UNL     1      45.589   7.995  12.901  0.00  0.00    +0.000 C 
ATOM     15  C   UNL     1      45.985   7.113  11.707  0.00  0.00    +0.000 C 
BRANCH  15  16
ATOM     16  C   UNL     1      44.782   6.220  11.253  0.00  0.00    +0.000 C 
ATOM     17  C   UNL     1      43.825   5.864  12.409  0.00  0.00    +0.000 C 
ATOM     18  C   UNL     1      42.726   4.887  11.997  0.00  0.00    +0.000 C 
ATOM     19  C   UNL     1      43.309   3.639  11.350  0.00  0.00    +0.000 C 
ATOM     20  C   UNL     1      44.136   4.010  10.127  0.00  0.00    +0.000 C 
ATOM     21  C   UNL     1      45.267   4.966  10.495  0.00  0.00    +0.000 C 
ENDBRANCH  15  16
ENDBRANCH  12  15
ENDBRANCH   1  12
TORSDOF 4
ENDMDL
