MODEL 1
REMARK VINA RESULT:    -8.125      0.000      0.000
REMARK INTER + INTRA:         -12.261
REMARK INTER:                 -11.450
REMARK INTRA:                  -0.812
REMARK UNBOUND:                -0.812
REMARK  Name = 
REMARK  7 active torsions:
REMARK  status: ('A' for Active; 'I' for Inactive)
REMARK    1  A    between atoms: C_2  and  C_19
REMARK    2  A    between atoms: N_3  and  C_4
REMARK    3  A    between atoms: C_4  and  C_5
REMARK    4  A    between atoms: C_8  and  C_9
REMARK    5  A    between atoms: C_9  and  N_10
REMARK    6  A    between atoms: N_10  and  C_11
REMARK    7  A    between atoms: C_11  and  C_12
REMARK                            x       y       z     vdW  Elec       q    Type
REMARK                         _______ _______ _______ _____ _____    ______ ____
ROOT
ATOM      1  C   UNL     1      46.753   7.928  12.979  0.00  0.00    +0.000 C 
ENDROOT
BRANCH   1   2
ATOM      2  C   UNL     1      45.978   6.845  12.276  0.00  0.00    +0.000 A 
ATOM      3  C   UNL     1      44.900   6.229  12.900  0.00  0.00    +0.000 A 
ATOM      4  N   UNL     1      44.167   5.255  12.309  0.00  0.00    +0.000 NA
ATOM      5  C   UNL     1      44.541   4.916  11.046  0.00  0.00    +0.000 A 
ATOM      6  C   UNL     1      45.647   5.503  10.439  0.00  0.00    +0.000 A 
ATOM      7  N   UNL     1      46.382   6.473  11.032  0.00  0.00    +0.000 NA
BRANCH   5   8
ATOM      8  C   UNL     1      43.734   3.872  10.301  0.00  0.00    +0.000 C 
BRANCH   8   9
ATOM      9  N   UNL     1      44.243   2.493  10.418  0.00  0.00    +0.000 NA
ATOM     10  H   UNL     1      43.520   1.955  10.903  0.00  0.00    +0.000 HD
BRANCH   9  11
ATOM     11  C   UNL     1      44.462   1.875   9.099  0.00  0.00    +0.000 C 
BRANCH  11  12
ATOM     12  C   UNL     1      45.893   2.126   8.590  0.00  0.00    +0.000 C 
ATOM     13  C   UNL     1      45.965   3.130   7.450  0.00  0.00    +0.000 C 
ATOM     14  C   UNL     1      47.324   2.844   6.846  0.00  0.00    +0.000 C 
ATOM     15  C   UNL     1      47.538   1.354   7.077  0.00  0.00    +0.000 C 
ATOM     16  N   UNL     1      46.491   0.916   8.003  0.00  0.00    +0.000 NA
ATOM     17  H   UNL     1      46.879   0.321   8.734  0.00  0.00    +0.000 HD
ENDBRANCH  11  12
ENDBRANCH   9  11
ENDBRANCH   8   9
ENDBRANCH   5   8
ENDBRANCH   1   2
BRANCH   1  20
ATOM     18  O   UNL     1      48.796   6.074  13.426  0.00  0.00    +0.000 OA
ATOM     19  C   UNL     1      48.274   6.611  14.398  0.00  0.00    +0.000 C 
ATOM     20  N   UNL     1      47.238   7.498  14.269  0.00  0.00    +0.000 N 
ATOM     21  H   UNL     1      46.994   8.099  15.052  0.00  0.00    +0.000 HD
BRANCH  19  22
ATOM     22  C   UNL     1      48.693   6.299  15.767  0.00  0.00    +0.000 A 
ATOM     23  C   UNL     1      49.383   7.243  16.517  0.00  0.00    +0.000 A 
ATOM     24  S   UNL     1      49.773   6.709  18.090  0.00  0.00    +0.000 S 
ATOM     25  C   UNL     1      49.003   5.213  17.834  0.00  0.00    +0.000 A 
ATOM     26  N   UNL     1      48.931   4.278  18.820  0.00  0.00    +0.000 NA
ATOM     27  C   UNL     1      48.286   3.206  18.497  0.00  0.00    +0.000 A 
ATOM     28  N   UNL     1      47.720   2.979  17.270  0.00  0.00    +0.000 N 
ATOM     29  C   UNL     1      47.827   3.862  16.225  0.00  0.00    +0.000 A 
ATOM     30  O   UNL     1      47.419   3.574  15.105  0.00  0.00    +0.000 OA
ATOM     31  C   UNL     1      48.492   5.108  16.554  0.00  0.00    +0.000 A 
ATOM     32  H   UNL     1      47.262   2.097  17.066  0.00  0.00    +0.000 HD
ENDBRANCH  19  22
ENDBRANCH   1  20
TORSDOF 7
ENDMDL
MODEL 2
REMARK VINA RESULT:    -7.706      2.177      3.239
REMARK INTER + INTRA:         -11.671
REMARK INTER:                 -10.915
REMARK INTRA:                  -0.756
REMARK UNBOUND:                -0.812
REMARK  Name = 
REMARK  7 active torsions:
REMARK  status: ('A' for Active; 'I' for Inactive)
REMARK    1  A    between atoms: C_2  and  C_19
REMARK    2  A    between atoms: N_3  and  C_4
REMARK    3  A    between atoms: C_4  and  C_5
REMARK    4  A    between atoms: C_8  and  C_9
REMARK    5  A    between atoms: C_9  and  N_10
REMARK    6  A    between atoms: N_10  and  C_11
REMARK    7  A    between atoms: C_11  and  C_12
REMARK                            x       y       z     vdW  Elec       q    Type
REMARK                         _______ _______ _______ _____ _____    ______ ____
ROOT
ATOM      1  C   UNL     1      47.466   3.255  14.890  0.00  0.00    +0.000 C 
ENDROOT
BRANCH   1   2
ATOM      2  C   UNL     1      46.798   3.943  13.730  0.00  0.00    +0.000 A 
ATOM      3  C   UNL     1      47.120   5.255  13.405  0.00  0.00    +0.000 A 
ATOM      4  N   UNL     1      46.553   5.917  12.369  0.00  0.00    +0.000 NA
ATOM      5  C   UNL     1      45.645   5.212  11.641  0.00  0.00    +0.000 A 
ATOM      6  C   UNL     1      45.292   3.913  11.993  0.00  0.00    +0.000 A 
ATOM      7  N   UNL     1      45.856   3.254  13.032  0.00  0.00    +0.000 NA
BRANCH   5   8
ATOM      8  C   UNL     1      45.009   5.869  10.433  0.00  0.00    +0.000 C 
BRANCH   8   9
ATOM      9  N   UNL     1      45.484   5.368   9.131  0.00  0.00    +0.000 NA
ATOM     10  H   UNL     1      46.448   5.058   9.272  0.00  0.00    +0.000 HD
BRANCH   9  11
ATOM     11  C   UNL     1      44.698   4.212   8.667  0.00  0.00    +0.000 C 
BRANCH  11  12
ATOM     12  C   UNL     1      45.495   3.352   7.670  0.00  0.00    +0.000 C 
ATOM     13  C   UNL     1      45.934   2.013   8.240  0.00  0.00    +0.000 C 
ATOM     14  C   UNL     1      47.045   1.601   7.294  0.00  0.00    +0.000 C 
ATOM     15  C   UNL     1      47.668   2.916   6.844  0.00  0.00    +0.000 C 
ATOM     16  N   UNL     1      46.770   3.983   7.290  0.00  0.00    +0.000 NA
ATOM     17  H   UNL     1      46.620   4.666   6.548  0.00  0.00    +0.000 HD
ENDBRANCH  11  12
ENDBRANCH   9  11
ENDBRANCH   8   9
ENDBRANCH   5   8
ENDBRANCH   1   2
BRANCH   1  20
ATOM     18  O   UNL     1      46.540   3.137  17.525  0.00  0.00    +0.000 OA
ATOM     19  C   UNL     1      47.335   4.023  17.225  0.00  0.00    +0.000 C 
ATOM     20  N   UNL     1      47.804   4.178  15.947  0.00  0.00    +0.000 N 
ATOM     21  H   UNL     1      48.627   4.751  15.783  0.00  0.00    +0.000 HD
BRANCH  19  22
ATOM     22  C   UNL     1      47.795   5.008  18.208  0.00  0.00    +0.000 A 
ATOM     23  C   UNL     1      46.877   5.684  19.001  0.00  0.00    +0.000 A 
ATOM     24  S   UNL     1      47.598   6.775  20.096  0.00  0.00    +0.000 S 
ATOM     25  C   UNL     1      49.162   6.357  19.571  0.00  0.00    +0.000 A 
ATOM     26  N   UNL     1      50.269   6.907  20.141  0.00  0.00    +0.000 NA
ATOM     27  C   UNL     1      51.390   6.470  19.668  0.00  0.00    +0.000 A 
ATOM     28  N   UNL     1      51.502   5.542  18.666  0.00  0.00    +0.000 N 
ATOM     29  C   UNL     1      50.415   5.012  18.016  0.00  0.00    +0.000 A 
ATOM     30  O   UNL     1      50.552   4.283  17.041  0.00  0.00    +0.000 OA
ATOM     31  C   UNL     1      49.132   5.427  18.548  0.00  0.00    +0.000 A 
ATOM     32  H   UNL     1      52.412   5.271  18.312  0.00  0.00    +0.000 HD
ENDBRANCH  19  22
ENDBRANCH   1  20
TORSDOF 7
ENDMDL
MODEL 3
REMARK VINA RESULT:    -7.529      2.145      3.481
REMARK INTER + INTRA:         -11.421
REMARK INTER:                 -10.493
REMARK INTRA:                  -0.928
REMARK UNBOUND:                -0.812
REMARK  Name = 
REMARK  7 active torsions:
REMARK  status: ('A' for Active; 'I' for Inactive)
REMARK    1  A    between atoms: C_2  and  C_19
REMARK    2  A    between atoms: N_3  and  C_4
REMARK    3  A    between atoms: C_4  and  C_5
REMARK    4  A    between atoms: C_8  and  C_9
REMARK    5  A    between atoms: C_9  and  N_10
REMARK    6  A    between atoms: N_10  and  C_11
REMARK    7  A    between atoms: C_11  and  C_12
REMARK                            x       y       z     vdW  Elec       q    Type
REMARK                         _______ _______ _______ _____ _____    ______ ____
ROOT
ATOM      1  C   UNL     1      47.365   4.042  15.023  0.00  0.00    +0.000 C 
ENDROOT
BRANCH   1   2
ATOM      2  C   UNL     1      46.526   4.283  13.796  0.00  0.00    +0.000 A 
ATOM      3  C   UNL     1      46.278   5.576  13.352  0.00  0.00    +0.000 A 
ATOM      4  N   UNL     1      45.536   5.847  12.253  0.00  0.00    +0.000 NA
ATOM      5  C   UNL     1      45.049   4.765  11.585  0.00  0.00    +0.000 A 
ATOM      6  C   UNL     1      45.263   3.473  12.054  0.00  0.00    +0.000 A 
ATOM      7  N   UNL     1      46.001   3.204  13.157  0.00  0.00    +0.000 NA
BRANCH   5   8
ATOM      8  C   UNL     1      44.256   4.989  10.314  0.00  0.00    +0.000 C 
BRANCH   8   9
ATOM      9  N   UNL     1      45.057   5.006   9.076  0.00  0.00    +0.000 NA
ATOM     10  H   UNL     1      46.038   5.039   9.364  0.00  0.00    +0.000 HD
BRANCH   9  11
ATOM     11  C   UNL     1      44.858   3.786   8.276  0.00  0.00    +0.000 C 
BRANCH  11  12
ATOM     12  C   UNL     1      46.201   3.130   7.906  0.00  0.00    +0.000 C 
ATOM     13  C   UNL     1      46.530   3.214   6.424  0.00  0.00    +0.000 C 
ATOM     14  C   UNL     1      47.584   2.137   6.261  0.00  0.00    +0.000 C 
ATOM     15  C   UNL     1      47.216   1.083   7.296  0.00  0.00    +0.000 C 
ATOM     16  N   UNL     1      46.198   1.681   8.163  0.00  0.00    +0.000 NA
ATOM     17  H   UNL     1      46.401   1.494   9.144  0.00  0.00    +0.000 HD
ENDBRANCH  11  12
ENDBRANCH   9  11
ENDBRANCH   8   9
ENDBRANCH   5   8
ENDBRANCH   1   2
BRANCH   1  20
ATOM     18  O   UNL     1      49.503   4.704  16.697  0.00  0.00    +0.000 OA
ATOM     19  C   UNL     1      48.557   5.484  16.623  0.00  0.00    +0.000 C 
ATOM     20  N   UNL     1      47.452   5.215  15.860  0.00  0.00    +0.000 N 
ATOM     21  H   UNL     1      46.810   5.968  15.628  0.00  0.00    +0.000 HD
BRANCH  19  22
ATOM     22  C   UNL     1      48.529   6.733  17.388  0.00  0.00    +0.000 A 
ATOM     23  C   UNL     1      48.522   6.700  18.776  0.00  0.00    +0.000 A 
ATOM     24  S   UNL     1      48.505   8.249  19.493  0.00  0.00    +0.000 S 
ATOM     25  C   UNL     1      48.541   9.015  17.973  0.00  0.00    +0.000 A 
ATOM     26  N   UNL     1      48.585  10.371  17.867  0.00  0.00    +0.000 NA
ATOM     27  C   UNL     1      48.645  10.812  16.653  0.00  0.00    +0.000 A 
ATOM     28  N   UNL     1      48.651  10.018  15.537  0.00  0.00    +0.000 N 
ATOM     29  C   UNL     1      48.538   8.651  15.593  0.00  0.00    +0.000 A 
ATOM     30  O   UNL     1      48.418   7.981  14.574  0.00  0.00    +0.000 OA
ATOM     31  C   UNL     1      48.525   8.102  16.935  0.00  0.00    +0.000 A 
ATOM     32  H   UNL     1      48.659  10.429  14.609  0.00  0.00    +0.000 HD
ENDBRANCH  19  22
ENDBRANCH   1  20
TORSDOF 7
ENDMDL
MODEL 4
REMARK VINA RESULT:    -7.480      2.495      3.341
REMARK INTER + INTRA:         -11.353
REMARK INTER:                 -10.626
REMARK INTRA:                  -0.727
REMARK UNBOUND:                -0.812
REMARK  Name = 
REMARK  7 active torsions:
REMARK  status: ('A' for Active; 'I' for Inactive)
REMARK    1  A    between atoms: C_2  and  C_19
REMARK    2  A    between atoms: N_3  and  C_4
REMARK    3  A    between atoms: C_4  and  C_5
REMARK    4  A    between atoms: C_8  and  C_9
REMARK    5  A    between atoms: C_9  and  N_10
REMARK    6  A    between atoms: N_10  and  C_11
REMARK    7  A    between atoms: C_11  and  C_12
REMARK                            x       y       z     vdW  Elec       q    Type
REMARK                         _______ _______ _______ _____ _____    ______ ____
ROOT
ATOM      1  C   UNL     1      47.133   4.367  14.904  0.00  0.00    +0.000 C 
ENDROOT
BRANCH   1   2
ATOM      2  C   UNL     1      46.231   4.410  13.700  0.00  0.00    +0.000 A 
ATOM      3  C   UNL     1      45.689   5.614  13.267  0.00  0.00    +0.000 A 
ATOM      4  N   UNL     1      44.877   5.709  12.187  0.00  0.00    +0.000 NA
ATOM      5  C   UNL     1      44.629   4.544  11.529  0.00  0.00    +0.000 A 
ATOM      6  C   UNL     1      45.138   3.334  11.988  0.00  0.00    +0.000 A 
ATOM      7  N   UNL     1      45.945   3.240  13.071  0.00  0.00    +0.000 NA
BRANCH   5   8
ATOM      8  C   UNL     1      43.773   4.580  10.278  0.00  0.00    +0.000 C 
BRANCH   8   9
ATOM      9  N   UNL     1      44.186   3.647   9.215  0.00  0.00    +0.000 NA
ATOM     10  H   UNL     1      43.366   3.498   8.622  0.00  0.00    +0.000 HD
BRANCH   9  11
ATOM     11  C   UNL     1      45.258   4.209   8.376  0.00  0.00    +0.000 C 
BRANCH  11  12
ATOM     12  C   UNL     1      45.902   3.130   7.486  0.00  0.00    +0.000 C 
ATOM     13  C   UNL     1      46.132   1.809   8.203  0.00  0.00    +0.000 C 
ATOM     14  C   UNL     1      47.155   1.128   7.317  0.00  0.00    +0.000 C 
ATOM     15  C   UNL     1      47.972   2.272   6.730  0.00  0.00    +0.000 C 
ATOM     16  N   UNL     1      47.256   3.509   7.049  0.00  0.00    +0.000 NA
ATOM     17  H   UNL     1      47.207   4.121   6.235  0.00  0.00    +0.000 HD
ENDBRANCH  11  12
ENDBRANCH   9  11
ENDBRANCH   8   9
ENDBRANCH   5   8
ENDBRANCH   1   2
BRANCH   1  20
ATOM     18  O   UNL     1      49.246   4.947  16.641  0.00  0.00    +0.000 OA
ATOM     19  C   UNL     1      48.624   5.883  16.146  0.00  0.00    +0.000 C 
ATOM     20  N   UNL     1      47.549   5.685  15.319  0.00  0.00    +0.000 N 
ATOM     21  H   UNL     1      47.215   6.452  14.743  0.00  0.00    +0.000 HD
BRANCH  19  22
ATOM     22  C   UNL     1      48.962   7.276  16.448  0.00  0.00    +0.000 A 
ATOM     23  C   UNL     1      49.750   8.008  15.570  0.00  0.00    +0.000 A 
ATOM     24  S   UNL     1      50.023   9.614  16.079  0.00  0.00    +0.000 S 
ATOM     25  C   UNL     1      49.070   9.395  17.471  0.00  0.00    +0.000 A 
ATOM     26  N   UNL     1      48.849  10.416  18.343  0.00  0.00    +0.000 NA
ATOM     27  C   UNL     1      48.077  10.116  19.336  0.00  0.00    +0.000 A 
ATOM     28  N   UNL     1      47.518   8.882  19.541  0.00  0.00    +0.000 N 
ATOM     29  C   UNL     1      47.769   7.805  18.727  0.00  0.00    +0.000 A 
ATOM     30  O   UNL     1      47.357   6.686  19.010  0.00  0.00    +0.000 OA
ATOM     31  C   UNL     1      48.584   8.104  17.566  0.00  0.00    +0.000 A 
ATOM     32  H   UNL     1      46.953   8.700  20.364  0.00  0.00    +0.000 HD
ENDBRANCH  19  22
ENDBRANCH   1  20
TORSDOF 7
ENDMDL
MODEL 5
REMARK VINA RESULT:    -7.429      3.180      4.365
REMARK INTER + INTRA:         -11.281
REMARK INTER:                 -10.341
REMARK INTRA:                  -0.940
REMARK UNBOUND:                -0.812
REMARK  Name = 
REMARK  7 active torsions:
REMARK  status: ('A' for Active; 'I' for Inactive)
REMARK    1  A    between atoms: C_2  and  C_19
REMARK    2  A    between atoms: N_3  and  C_4
REMARK    3  A    between atoms: C_4  and  C_5
REMARK    4  A    between atoms: C_8  and  C_9
REMARK    5  A    between atoms: C_9  and  N_10
REMARK    6  A    between atoms: N_10  and  C_11
REMARK    7  A    between atoms: C_11  and  C_12
REMARK                            x       y       z     vdW  Elec       q    Type
REMARK                         _______ _______ _______ _____ _____    ______ ____
ROOT
ATOM      1  C   UNL     1      49.075   6.011  17.342  0.00  0.00    +0.000 C 
ENDROOT
BRANCH   1   2
ATOM      2  C   UNL     1      48.276   5.518  16.166  0.00  0.00    +0.000 A 
ATOM      3  C   UNL     1      47.490   4.377  16.275  0.00  0.00    +0.000 A 
ATOM      4  N   UNL     1      46.748   3.895  15.249  0.00  0.00    +0.000 NA
ATOM      5  C   UNL     1      46.803   4.608  14.091  0.00  0.00    +0.000 A 
ATOM      6  C   UNL     1      47.623   5.725  13.972  0.00  0.00    +0.000 A 
ATOM      7  N   UNL     1      48.368   6.204  14.996  0.00  0.00    +0.000 NA
BRANCH   5   8
ATOM      8  C   UNL     1      45.956   4.159  12.918  0.00  0.00    +0.000 C 
BRANCH   8   9
ATOM      9  N   UNL     1      44.559   3.828  13.250  0.00  0.00    +0.000 NA
ATOM     10  H   UNL     1      44.188   4.623  13.777  0.00  0.00    +0.000 HD
BRANCH   9  11
ATOM     11  C   UNL     1      43.733   3.657  12.043  0.00  0.00    +0.000 C 
BRANCH  11  12
ATOM     12  C   UNL     1      44.602   3.525  10.779  0.00  0.00    +0.000 C 
ATOM     13  C   UNL     1      44.172   4.445   9.647  0.00  0.00    +0.000 C 
ATOM     14  C   UNL     1      44.829   3.808   8.439  0.00  0.00    +0.000 C 
ATOM     15  C   UNL     1      44.857   2.320   8.761  0.00  0.00    +0.000 C 
ATOM     16  N   UNL     1      44.500   2.187  10.175  0.00  0.00    +0.000 NA
ATOM     17  H   UNL     1      45.126   1.536  10.648  0.00  0.00    +0.000 HD
ENDBRANCH  11  12
ENDBRANCH   9  11
ENDBRANCH   8   9
ENDBRANCH   5   8
ENDBRANCH   1   2
BRANCH   1  20
ATOM     18  O   UNL     1      51.754   6.216  16.573  0.00  0.00    +0.000 OA
ATOM     19  C   UNL     1      51.430   5.293  17.314  0.00  0.00    +0.000 C 
ATOM     20  N   UNL     1      50.131   5.096  17.704  0.00  0.00    +0.000 N 
ATOM     21  H   UNL     1      49.934   4.488  18.493  0.00  0.00    +0.000 HD
BRANCH  19  22
ATOM     22  C   UNL     1      52.406   4.310  17.791  0.00  0.00    +0.000 A 
ATOM     23  C   UNL     1      53.609   4.732  18.342  0.00  0.00    +0.000 A 
ATOM     24  S   UNL     1      54.609   3.449  18.857  0.00  0.00    +0.000 S 
ATOM     25  C   UNL     1      53.454   2.288  18.392  0.00  0.00    +0.000 A 
ATOM     26  N   UNL     1      53.667   0.960  18.599  0.00  0.00    +0.000 NA
ATOM     27  C   UNL     1      52.691   0.197  18.230  0.00  0.00    +0.000 A 
ATOM     28  N   UNL     1      51.528   0.643  17.660  0.00  0.00    +0.000 N 
ATOM     29  C   UNL     1      51.299   1.966  17.369  0.00  0.00    +0.000 A 
ATOM     30  O   UNL     1      50.304   2.316  16.745  0.00  0.00    +0.000 OA
ATOM     31  C   UNL     1      52.340   2.870  17.816  0.00  0.00    +0.000 A 
ATOM     32  H   UNL     1      50.816  -0.012  17.354  0.00  0.00    +0.000 HD
ENDBRANCH  19  22
ENDBRANCH   1  20
TORSDOF 7
ENDMDL
MODEL 6
REMARK VINA RESULT:    -7.148      2.568      3.413
REMARK INTER + INTRA:         -10.885
REMARK INTER:                 -10.004
REMARK INTRA:                  -0.880
REMARK UNBOUND:                -0.812
REMARK  Name = 
REMARK  7 active torsions:
REMARK  status: ('A' for Active; 'I' for Inactive)
REMARK    1  A    between atoms: C_2  and  C_19
REMARK    2  A    between atoms: N_3  and  C_4
REMARK    3  A    between atoms: C_4  and  C_5
REMARK    4  A    between atoms: C_8  and  C_9
REMARK    5  A    between atoms: C_9  and  N_10
REMARK    6  A    between atoms: N_10  and  C_11
REMARK    7  A    between atoms: C_11  and  C_12
REMARK                            x       y       z     vdW  Elec       q    Type
REMARK                         _______ _______ _______ _____ _____    ______ ____
ROOT
ATOM      1  C   UNL     1      46.767   4.191  15.920  0.00  0.00    +0.000 C 
ENDROOT
BRANCH   1   2
ATOM      2  C   UNL     1      46.526   4.668  14.512  0.00  0.00    +0.000 A 
ATOM      3  C   UNL     1      47.369   5.607  13.931  0.00  0.00    +0.000 A 
ATOM      4  N   UNL     1      47.200   6.065  12.668  0.00  0.00    +0.000 NA
ATOM      5  C   UNL     1      46.151   5.535  11.981  0.00  0.00    +0.000 A 
ATOM      6  C   UNL     1      45.283   4.627  12.579  0.00  0.00    +0.000 A 
ATOM      7  N   UNL     1      45.450   4.174  13.844  0.00  0.00    +0.000 NA
BRANCH   5   8
ATOM      8  C   UNL     1      45.932   5.959  10.543  0.00  0.00    +0.000 C 
BRANCH   8   9
ATOM      9  N   UNL     1      45.346   4.923   9.672  0.00  0.00    +0.000 NA
ATOM     10  H   UNL     1      44.370   5.189   9.519  0.00  0.00    +0.000 HD
BRANCH   9  11
ATOM     11  C   UNL     1      46.013   4.866   8.361  0.00  0.00    +0.000 C 
BRANCH  11  12
ATOM     12  C   UNL     1      45.950   3.451   7.757  0.00  0.00    +0.000 C 
ATOM     13  C   UNL     1      45.716   2.361   8.790  0.00  0.00    +0.000 C 
ATOM     14  C   UNL     1      46.159   1.112   8.055  0.00  0.00    +0.000 C 
ATOM     15  C   UNL     1      47.264   1.591   7.123  0.00  0.00    +0.000 C 
ATOM     16  N   UNL     1      47.226   3.055   7.141  0.00  0.00    +0.000 NA
ATOM     17  H   UNL     1      47.296   3.431   6.196  0.00  0.00    +0.000 HD
ENDBRANCH  11  12
ENDBRANCH   9  11
ENDBRANCH   8   9
ENDBRANCH   5   8
ENDBRANCH   1   2
BRANCH   1  20
ATOM     18  O   UNL     1      47.902   4.749  18.413  0.00  0.00    +0.000 OA
ATOM     19  C   UNL     1      48.642   4.386  17.503  0.00  0.00    +0.000 C 
ATOM     20  N   UNL     1      48.173   4.134  16.241  0.00  0.00    +0.000 N 
ATOM     21  H   UNL     1      48.751   3.612  15.588  0.00  0.00    +0.000 HD
BRANCH  19  22
ATOM     22  C   UNL     1      50.088   4.247  17.697  0.00  0.00    +0.000 A 
ATOM     23  C   UNL     1      50.843   5.335  18.114  0.00  0.00    +0.000 A 
ATOM     24  S   UNL     1      52.502   4.979  18.302  0.00  0.00    +0.000 S 
ATOM     25  C   UNL     1      52.260   3.352  17.865  0.00  0.00    +0.000 A 
ATOM     26  N   UNL     1      53.290   2.462  17.862  0.00  0.00    +0.000 NA
ATOM     27  C   UNL     1      52.954   1.255  17.545  0.00  0.00    +0.000 A 
ATOM     28  N   UNL     1      51.683   0.862  17.217  0.00  0.00    +0.000 N 
ATOM     29  C   UNL     1      50.628   1.737  17.140  0.00  0.00    +0.000 A 
ATOM     30  O   UNL     1      49.534   1.378  16.721  0.00  0.00    +0.000 OA
ATOM     31  C   UNL     1      50.941   3.094  17.543  0.00  0.00    +0.000 A 
ATOM     32  H   UNL     1      51.493  -0.095  16.938  0.00  0.00    +0.000 HD
ENDBRANCH  19  22
ENDBRANCH   1  20
TORSDOF 7
ENDMDL
MODEL 7
REMARK VINA RESULT:    -7.067      3.074      7.501
REMARK INTER + INTRA:         -10.771
REMARK INTER:                  -9.208
REMARK INTRA:                  -1.562
REMARK UNBOUND:                -0.812
REMARK  Name = 
REMARK  7 active torsions:
REMARK  status: ('A' for Active; 'I' for Inactive)
REMARK    1  A    between atoms: C_2  and  C_19
REMARK    2  A    between atoms: N_3  and  C_4
REMARK    3  A    between atoms: C_4  and  C_5
REMARK    4  A    between atoms: C_8  and  C_9
REMARK    5  A    between atoms: C_9  and  N_10
REMARK    6  A    between atoms: N_10  and  C_11
REMARK    7  A    between atoms: C_11  and  C_12
REMARK                            x       y       z     vdW  Elec       q    Type
REMARK                         _______ _______ _______ _____ _____    ______ ____
ROOT
ATOM      1  C   UNL     1      48.272   8.120  12.189  0.00  0.00    +0.000 C 
ENDROOT
BRANCH   1   2
ATOM      2  C   UNL     1      48.485   7.974  13.672  0.00  0.00    +0.000 A 
ATOM      3  C   UNL     1      49.094   6.837  14.190  0.00  0.00    +0.000 A 
ATOM      4  N   UNL     1      49.314   6.659  15.514  0.00  0.00    +0.000 NA
ATOM      5  C   UNL     1      48.912   7.677  16.323  0.00  0.00    +0.000 A 
ATOM      6  C   UNL     1      48.264   8.794  15.808  0.00  0.00    +0.000 A 
ATOM      7  N   UNL     1      48.040   8.969  14.484  0.00  0.00    +0.000 NA
BRANCH   5   8
ATOM      8  C   UNL     1      49.175   7.572  17.812  0.00  0.00    +0.000 C 
BRANCH   8   9
ATOM      9  N   UNL     1      49.109   6.205  18.360  0.00  0.00    +0.000 NA
ATOM     10  H   UNL     1      49.531   6.244  19.291  0.00  0.00    +0.000 HD
BRANCH   9  11
ATOM     11  C   UNL     1      47.720   5.739  18.509  0.00  0.00    +0.000 C 
BRANCH  11  12
ATOM     12  C   UNL     1      47.488   4.412  17.763  0.00  0.00    +0.000 C 
ATOM     13  C   UNL     1      48.725   3.530  17.694  0.00  0.00    +0.000 C 
ATOM     14  C   UNL     1      48.388   2.581  16.562  0.00  0.00    +0.000 C 
ATOM     15  C   UNL     1      47.509   3.400  15.626  0.00  0.00    +0.000 C 
ATOM     16  N   UNL     1      47.154   4.625  16.346  0.00  0.00    +0.000 NA
ATOM     17  H   UNL     1      46.161   4.832  16.243  0.00  0.00    +0.000 HD
ENDBRANCH  11  12
ENDBRANCH   9  11
ENDBRANCH   8   9
ENDBRANCH   5   8
ENDBRANCH   1   2
BRANCH   1  20
ATOM     18  O   UNL     1      45.514   7.988  11.749  0.00  0.00    +0.000 OA
ATOM     19  C   UNL     1      46.205   7.031  11.411  0.00  0.00    +0.000 C 
ATOM     20  N   UNL     1      47.557   6.997  11.630  0.00  0.00    +0.000 N 
ATOM     21  H   UNL     1      48.126   6.319  11.132  0.00  0.00    +0.000 HD
BRANCH  19  22
ATOM     22  C   UNL     1      45.618   5.839  10.795  0.00  0.00    +0.000 A 
ATOM     23  C   UNL     1      45.854   5.558   9.455  0.00  0.00    +0.000 A 
ATOM     24  S   UNL     1      45.105   4.122   8.919  0.00  0.00    +0.000 S 
ATOM     25  C   UNL     1      44.467   3.810  10.466  0.00  0.00    +0.000 A 
ATOM     26  N   UNL     1      43.740   2.687  10.716  0.00  0.00    +0.000 NA
ATOM     27  C   UNL     1      43.351   2.563  11.942  0.00  0.00    +0.000 A 
ATOM     28  N   UNL     1      43.612   3.468  12.937  0.00  0.00    +0.000 N 
ATOM     29  C   UNL     1      44.281   4.647  12.716  0.00  0.00    +0.000 A 
ATOM     30  O   UNL     1      44.386   5.492  13.597  0.00  0.00    +0.000 OA
ATOM     31  C   UNL     1      44.789   4.807  11.368  0.00  0.00    +0.000 A 
ATOM     32  H   UNL     1      43.242   3.332  13.871  0.00  0.00    +0.000 HD
ENDBRANCH  19  22
ENDBRANCH   1  20
TORSDOF 7
ENDMDL
MODEL 8
REMARK VINA RESULT:    -7.048      2.007      2.519
REMARK INTER + INTRA:         -10.745
REMARK INTER:                  -9.885
REMARK INTRA:                  -0.859
REMARK UNBOUND:                -0.812
REMARK  Name = 
REMARK  7 active torsions:
REMARK  status: ('A' for Active; 'I' for Inactive)
REMARK    1  A    between atoms: C_2  and  C_19
REMARK    2  A    between atoms: N_3  and  C_4
REMARK    3  A    between atoms: C_4  and  C_5
REMARK    4  A    between atoms: C_8  and  C_9
REMARK    5  A    between atoms: C_9  and  N_10
REMARK    6  A    between atoms: N_10  and  C_11
REMARK    7  A    between atoms: C_11  and  C_12
REMARK                            x       y       z     vdW  Elec       q    Type
REMARK                         _______ _______ _______ _____ _____    ______ ____
ROOT
ATOM      1  C   UNL     1      45.771   8.713  12.944  0.00  0.00    +0.000 C 
ENDROOT
BRANCH   1   2
ATOM      2  C   UNL     1      45.483   7.299  12.515  0.00  0.00    +0.000 A 
ATOM      3  C   UNL     1      44.559   7.041  11.510  0.00  0.00    +0.000 A 
ATOM      4  N   UNL     1      44.268   5.789  11.083  0.00  0.00    +0.000 NA
ATOM      5  C   UNL     1      44.950   4.781  11.692  0.00  0.00    +0.000 A 
ATOM      6  C   UNL     1      45.843   5.039  12.727  0.00  0.00    +0.000 A 
ATOM      7  N   UNL     1      46.130   6.290  13.156  0.00  0.00    +0.000 NA
BRANCH   5   8
ATOM      8  C   UNL     1      44.717   3.357  11.229  0.00  0.00    +0.000 C 
BRANCH   8   9
ATOM      9  N   UNL     1      43.990   3.230   9.953  0.00  0.00    +0.000 NA
ATOM     10  H   UNL     1      44.210   4.067   9.407  0.00  0.00    +0.000 HD
BRANCH   9  11
ATOM     11  C   UNL     1      44.433   2.055   9.183  0.00  0.00    +0.000 C 
BRANCH  11  12
ATOM     12  C   UNL     1      45.862   2.243   8.642  0.00  0.00    +0.000 C 
ATOM     13  C   UNL     1      45.947   3.211   7.473  0.00  0.00    +0.000 C 
ATOM     14  C   UNL     1      47.286   2.861   6.854  0.00  0.00    +0.000 C 
ATOM     15  C   UNL     1      47.453   1.372   7.125  0.00  0.00    +0.000 C 
ATOM     16  N   UNL     1      46.408   0.996   8.080  0.00  0.00    +0.000 NA
ATOM     17  H   UNL     1      46.789   0.409   8.822  0.00  0.00    +0.000 HD
ENDBRANCH  11  12
ENDBRANCH   9  11
ENDBRANCH   8   9
ENDBRANCH   5   8
ENDBRANCH   1   2
BRANCH   1  20
ATOM     18  O   UNL     1      48.387   9.683  12.770  0.00  0.00    +0.000 OA
ATOM     19  C   UNL     1      47.980   9.297  13.862  0.00  0.00    +0.000 C 
ATOM     20  N   UNL     1      46.727   8.768  14.025  0.00  0.00    +0.000 N 
ATOM     21  H   UNL     1      46.337   8.686  14.959  0.00  0.00    +0.000 HD
BRANCH  19  22
ATOM     22  C   UNL     1      48.830   9.331  15.055  0.00  0.00    +0.000 A 
ATOM     23  C   UNL     1      49.145  10.544  15.652  0.00  0.00    +0.000 A 
ATOM     24  S   UNL     1      50.128  10.386  17.038  0.00  0.00    +0.000 S 
ATOM     25  C   UNL     1      50.136   8.689  16.907  0.00  0.00    +0.000 A 
ATOM     26  N   UNL     1      50.775   7.913  17.825  0.00  0.00    +0.000 NA
ATOM     27  C   UNL     1      50.668   6.642  17.620  0.00  0.00    +0.000 A 
ATOM     28  N   UNL     1      49.990   6.077  16.571  0.00  0.00    +0.000 N 
ATOM     29  C   UNL     1      49.390   6.820  15.585  0.00  0.00    +0.000 A 
ATOM     30  O   UNL     1      48.903   6.286  14.595  0.00  0.00    +0.000 OA
ATOM     31  C   UNL     1      49.433   8.253  15.799  0.00  0.00    +0.000 A 
ATOM     32  H   UNL     1      49.978   5.071  16.445  0.00  0.00    +0.000 HD
ENDBRANCH  19  22
ENDBRANCH   1  20
TORSDOF 7
ENDMDL
MODEL 9
REMARK VINA RESULT:    -6.975      4.302      9.063
REMARK INTER + INTRA:         -10.641
REMARK INTER:                  -9.951
REMARK INTRA:                  -0.690
REMARK UNBOUND:                -0.812
REMARK  Name = 
REMARK  7 active torsions:
REMARK  status: ('A' for Active; 'I' for Inactive)
REMARK    1  A    between atoms: C_2  and  C_19
REMARK    2  A    between atoms: N_3  and  C_4
REMARK    3  A    between atoms: C_4  and  C_5
REMARK    4  A    between atoms: C_8  and  C_9
REMARK    5  A    between atoms: C_9  and  N_10
REMARK    6  A    between atoms: N_10  and  C_11
REMARK    7  A    between atoms: C_11  and  C_12
REMARK                            x       y       z     vdW  Elec       q    Type
REMARK                         _______ _______ _______ _____ _____    ______ ____
ROOT
ATOM      1  C   UNL     1      47.172   3.296  16.848  0.00  0.00    +0.000 C 
ENDROOT
BRANCH   1   2
ATOM      2  C   UNL     1      48.644   3.145  17.124  0.00  0.00    +0.000 A 
ATOM      3  C   UNL     1      49.345   4.144  17.787  0.00  0.00    +0.000 A 
ATOM      4  N   UNL     1      50.668   4.054  18.064  0.00  0.00    +0.000 NA
ATOM      5  C   UNL     1      51.281   2.907  17.664  0.00  0.00    +0.000 A 
ATOM      6  C   UNL     1      50.587   1.926  16.963  0.00  0.00    +0.000 A 
ATOM      7  N   UNL     1      49.266   2.019  16.682  0.00  0.00    +0.000 NA
BRANCH   5   8
ATOM      8  C   UNL     1      52.748   2.712  17.989  0.00  0.00    +0.000 C 
BRANCH   8   9
ATOM      9  N   UNL     1      53.088   1.398  18.564  0.00  0.00    +0.000 NA
ATOM     10  H   UNL     1      52.254   0.814  18.470  0.00  0.00    +0.000 HD
BRANCH   9  11
ATOM     11  C   UNL     1      54.187   0.745  17.832  0.00  0.00    +0.000 C 
BRANCH  11  12
ATOM     12  C   UNL     1      54.533  -0.626  18.441  0.00  0.00    +0.000 C 
ATOM     13  C   UNL     1      54.955  -1.659  17.409  0.00  0.00    +0.000 C 
ATOM     14  C   UNL     1      54.774  -2.964  18.159  0.00  0.00    +0.000 C 
ATOM     15  C   UNL     1      53.614  -2.699  19.109  0.00  0.00    +0.000 C 
ATOM     16  N   UNL     1      53.368  -1.256  19.084  0.00  0.00    +0.000 NA
ATOM     17  H   UNL     1      53.244  -0.892  20.027  0.00  0.00    +0.000 HD
ENDBRANCH  11  12
ENDBRANCH   9  11
ENDBRANCH   8   9
ENDBRANCH   5   8
ENDBRANCH   1   2
BRANCH   1  20
ATOM     18  O   UNL     1      47.276   3.062  14.064  0.00  0.00    +0.000 OA
ATOM     19  C   UNL     1      46.938   4.140  14.547  0.00  0.00    +0.000 C 
ATOM     20  N   UNL     1      46.903   4.351  15.900  0.00  0.00    +0.000 N 
ATOM     21  H   UNL     1      46.397   5.152  16.267  0.00  0.00    +0.000 HD
BRANCH  19  22
ATOM     22  C   UNL     1      46.599   5.288  13.702  0.00  0.00    +0.000 A 
ATOM     23  C   UNL     1      47.517   6.314  13.518  0.00  0.00    +0.000 A 
ATOM     24  S   UNL     1      46.953   7.555  12.492  0.00  0.00    +0.000 S 
ATOM     25  C   UNL     1      45.478   6.747  12.232  0.00  0.00    +0.000 A 
ATOM     26  N   UNL     1      44.531   7.257  11.398  0.00  0.00    +0.000 NA
ATOM     27  C   UNL     1      43.477   6.520  11.268  0.00  0.00    +0.000 A 
ATOM     28  N   UNL     1      43.280   5.326  11.909  0.00  0.00    +0.000 N 
ATOM     29  C   UNL     1      44.175   4.807  12.812  0.00  0.00    +0.000 A 
ATOM     30  O   UNL     1      43.911   3.802  13.462  0.00  0.00    +0.000 OA
ATOM     31  C   UNL     1      45.401   5.568  12.950  0.00  0.00    +0.000 A 
ATOM     32  H   UNL     1      42.411   4.814  11.795  0.00  0.00    +0.000 HD
ENDBRANCH  19  22
ENDBRANCH   1  20
TORSDOF 7
ENDMDL
