MODEL 1
REMARK VINA RESULT:    -8.585      0.000      0.000
REMARK INTER + INTRA:         -11.421
REMARK INTER:                 -10.592
REMARK INTRA:                  -0.829
REMARK UNBOUND:                -0.829
REMARK  Name = 
REMARK  7 active torsions:
REMARK  status: ('A' for Active; 'I' for Inactive)
REMARK    1  A    between atoms: C_1  and  C_2
REMARK    2  A    between atoms: C_2  and  C_3
REMARK    3  A    between atoms: C_2  and  C_4
REMARK    4  A    between atoms: C_2  and  C_5
REMARK    5  A    between atoms: C_7  and  C_8
REMARK    6  A    between atoms: C_8  and  N_9
REMARK    7  A    between atoms: C_14  and  C_15
REMARK                            x       y       z     vdW  Elec       q    Type
REMARK                         _______ _______ _______ _____ _____    ______ ____
ROOT
ATOM      1  N   UNL     1      44.198   4.457  10.448  0.00  0.00    +0.000 N 
ATOM      2  N   UNL     1      43.500   3.458  11.043  0.00  0.00    +0.000 NA
ATOM      3  C   UNL     1      43.938   2.356  10.431  0.00  0.00    +0.000 A 
ATOM      4  C   UNL     1      44.874   2.634   9.415  0.00  0.00    +0.000 A 
ATOM      5  C   UNL     1      45.672   1.876   8.556  0.00  0.00    +0.000 A 
ATOM      6  C   UNL     1      46.479   2.595   7.685  0.00  0.00    +0.000 A 
ATOM      7  N   UNL     1      46.494   3.957   7.578  0.00  0.00    +0.000 NA
ATOM      8  C   UNL     1      45.718   4.685   8.418  0.00  0.00    +0.000 A 
ATOM      9  C   UNL     1      44.944   4.023   9.368  0.00  0.00    +0.000 A 
ENDROOT
BRANCH   6  10
ATOM     10  C   UNL     1      47.456   1.838   6.827  0.00  0.00    +0.000 C 
ATOM     11  N   UNL     1      48.529   2.552   6.370  0.00  0.00    +0.000 N 
ATOM     12  O   UNL     1      47.322   0.650   6.565  0.00  0.00    +0.000 OA
ATOM     13  H   UNL     1      48.637   3.528   6.627  0.00  0.00    +0.000 HD
ATOM     14  H   UNL     1      49.242   2.082   5.831  0.00  0.00    +0.000 HD
ENDBRANCH   6  10
BRANCH   1  15
ATOM     15  C   UNL     1      44.424   5.684  11.214  0.00  0.00    +0.000 C 
BRANCH  15  18
ATOM     16  C   UNL     1      47.784   6.779  12.677  0.00  0.00    +0.000 A 
ATOM     17  C   UNL     1      46.642   6.754  11.865  0.00  0.00    +0.000 A 
ATOM     18  C   UNL     1      45.705   5.716  12.005  0.00  0.00    +0.000 A 
ATOM     19  C   UNL     1      45.938   4.744  12.979  0.00  0.00    +0.000 A 
ATOM     20  C   UNL     1      47.078   4.844  13.753  0.00  0.00    +0.000 A 
ATOM     21  N   UNL     1      47.989   5.826  13.620  0.00  0.00    +0.000 NA
BRANCH  16  23
ATOM     22  C   UNL     1      49.739   7.939  13.797  0.00  0.00    +0.000 C 
ATOM     23  C   UNL     1      48.865   7.858  12.531  0.00  0.00    +0.000 C 
ATOM     24  C   UNL     1      48.208   9.226  12.269  0.00  0.00    +0.000 C 
ATOM     25  C   UNL     1      49.803   7.555  11.337  0.00  0.00    +0.000 C 
ENDBRANCH  16  23
ENDBRANCH  15  18
ENDBRANCH   1  15
TORSDOF 4
ENDMDL
MODEL 2
REMARK VINA RESULT:    -7.371      1.091      1.455
REMARK INTER + INTRA:          -9.924
REMARK INTER:                  -9.079
REMARK INTRA:                  -0.845
REMARK UNBOUND:                -0.829
REMARK  Name = 
REMARK  7 active torsions:
REMARK  status: ('A' for Active; 'I' for Inactive)
REMARK    1  A    between atoms: C_1  and  C_2
REMARK    2  A    between atoms: C_2  and  C_3
REMARK    3  A    between atoms: C_2  and  C_4
REMARK    4  A    between atoms: C_2  and  C_5
REMARK    5  A    between atoms: C_7  and  C_8
REMARK    6  A    between atoms: C_8  and  N_9
REMARK    7  A    between atoms: C_14  and  C_15
REMARK                            x       y       z     vdW  Elec       q    Type
REMARK                         _______ _______ _______ _____ _____    ______ ____
ROOT
ATOM      1  N   UNL     1      43.957   5.313  11.458  0.00  0.00    +0.000 N 
ATOM      2  N   UNL     1      43.115   4.526  12.173  0.00  0.00    +0.000 NA
ATOM      3  C   UNL     1      43.270   3.318  11.629  0.00  0.00    +0.000 A 
ATOM      4  C   UNL     1      44.164   3.323  10.539  0.00  0.00    +0.000 A 
ATOM      5  C   UNL     1      44.722   2.356   9.700  0.00  0.00    +0.000 A 
ATOM      6  C   UNL     1      45.591   2.828   8.726  0.00  0.00    +0.000 A 
ATOM      7  N   UNL     1      45.877   4.145   8.507  0.00  0.00    +0.000 NA
ATOM      8  C   UNL     1      45.333   5.076   9.329  0.00  0.00    +0.000 A 
ATOM      9  C   UNL     1      44.514   4.659  10.374  0.00  0.00    +0.000 A 
ENDROOT
BRANCH   6  10
ATOM     10  C   UNL     1      46.324   1.826   7.877  0.00  0.00    +0.000 C 
ATOM     11  N   UNL     1      47.017   2.335   6.814  0.00  0.00    +0.000 N 
ATOM     12  O   UNL     1      46.326   0.627   8.124  0.00  0.00    +0.000 OA
ATOM     13  H   UNL     1      47.027   3.336   6.646  0.00  0.00    +0.000 HD
ATOM     14  H   UNL     1      47.567   1.713   6.239  0.00  0.00    +0.000 HD
ENDBRANCH   6  10
BRANCH   1  15
ATOM     15  C   UNL     1      44.487   6.514  12.105  0.00  0.00    +0.000 C 
BRANCH  15  18
ATOM     16  C   UNL     1      48.186   7.293  12.690  0.00  0.00    +0.000 A 
ATOM     17  C   UNL     1      46.879   7.385  12.192  0.00  0.00    +0.000 A 
ATOM     18  C   UNL     1      45.924   6.419  12.548  0.00  0.00    +0.000 A 
ATOM     19  C   UNL     1      46.310   5.399  13.418  0.00  0.00    +0.000 A 
ATOM     20  C   UNL     1      47.611   5.382  13.881  0.00  0.00    +0.000 A 
ATOM     21  N   UNL     1      48.540   6.294  13.537  0.00  0.00    +0.000 NA
BRANCH  16  23
ATOM     22  C   UNL     1      50.282   7.646  11.310  0.00  0.00    +0.000 C 
ATOM     23  C   UNL     1      49.283   8.289  12.291  0.00  0.00    +0.000 C 
ATOM     24  C   UNL     1      50.033   8.773  13.547  0.00  0.00    +0.000 C 
ATOM     25  C   UNL     1      48.685   9.536  11.595  0.00  0.00    +0.000 C 
ENDBRANCH  16  23
ENDBRANCH  15  18
ENDBRANCH   1  15
TORSDOF 4
ENDMDL
MODEL 3
REMARK VINA RESULT:    -6.138      3.551      5.981
REMARK INTER + INTRA:          -8.403
REMARK INTER:                  -7.785
REMARK INTRA:                  -0.617
REMARK UNBOUND:                -0.829
REMARK  Name = 
REMARK  7 active torsions:
REMARK  status: ('A' for Active; 'I' for Inactive)
REMARK    1  A    between atoms: C_1  and  C_2
REMARK    2  A    between atoms: C_2  and  C_3
REMARK    3  A    between atoms: C_2  and  C_4
REMARK    4  A    between atoms: C_2  and  C_5
REMARK    5  A    between atoms: C_7  and  C_8
REMARK    6  A    between atoms: C_8  and  N_9
REMARK    7  A    between atoms: C_14  and  C_15
REMARK                            x       y       z     vdW  Elec       q    Type
REMARK                         _______ _______ _______ _____ _____    ______ ____
ROOT
ATOM      1  N   UNL     1      47.779   6.945  13.387  0.00  0.00    +0.000 N 
ATOM      2  N   UNL     1      48.026   7.663  12.264  0.00  0.00    +0.000 NA
ATOM      3  C   UNL     1      47.193   7.140  11.363  0.00  0.00    +0.000 A 
ATOM      4  C   UNL     1      46.445   6.061  11.875  0.00  0.00    +0.000 A 
ATOM      5  C   UNL     1      45.416   5.243  11.403  0.00  0.00    +0.000 A 
ATOM      6  C   UNL     1      44.960   4.273  12.283  0.00  0.00    +0.000 A 
ATOM      7  N   UNL     1      45.481   4.036  13.523  0.00  0.00    +0.000 NA
ATOM      8  C   UNL     1      46.478   4.836  13.975  0.00  0.00    +0.000 A 
ATOM      9  C   UNL     1      46.926   5.878  13.168  0.00  0.00    +0.000 A 
ENDROOT
BRANCH   6  10
ATOM     10  C   UNL     1      43.767   3.448  11.882  0.00  0.00    +0.000 C 
ATOM     11  N   UNL     1      43.663   2.220  12.473  0.00  0.00    +0.000 N 
ATOM     12  O   UNL     1      42.922   3.850  11.093  0.00  0.00    +0.000 OA
ATOM     13  H   UNL     1      44.358   1.921  13.149  0.00  0.00    +0.000 HD
ATOM     14  H   UNL     1      42.856   1.644  12.278  0.00  0.00    +0.000 HD
ENDBRANCH   6  10
BRANCH   1  15
ATOM     15  C   UNL     1      48.050   7.579  14.678  0.00  0.00    +0.000 C 
BRANCH  15  18
ATOM     16  C   UNL     1      49.856   5.147  17.014  0.00  0.00    +0.000 A 
ATOM     17  C   UNL     1      48.823   5.786  16.314  0.00  0.00    +0.000 A 
ATOM     18  C   UNL     1      49.107   6.903  15.512  0.00  0.00    +0.000 A 
ATOM     19  C   UNL     1      50.433   7.331  15.421  0.00  0.00    +0.000 A 
ATOM     20  C   UNL     1      51.400   6.641  16.127  0.00  0.00    +0.000 A 
ATOM     21  N   UNL     1      51.139   5.576  16.909  0.00  0.00    +0.000 NA
BRANCH  16  23
ATOM     22  C   UNL     1      49.645   4.391  19.423  0.00  0.00    +0.000 C 
ATOM     23  C   UNL     1      49.595   3.956  17.946  0.00  0.00    +0.000 C 
ATOM     24  C   UNL     1      50.642   2.855  17.696  0.00  0.00    +0.000 C 
ATOM     25  C   UNL     1      48.199   3.338  17.690  0.00  0.00    +0.000 C 
ENDBRANCH  16  23
ENDBRANCH  15  18
ENDBRANCH   1  15
TORSDOF 4
ENDMDL
MODEL 4
REMARK VINA RESULT:    -5.911      4.122      6.462
REMARK INTER + INTRA:          -8.122
REMARK INTER:                  -7.275
REMARK INTRA:                  -0.848
REMARK UNBOUND:                -0.829
REMARK  Name = 
REMARK  7 active torsions:
REMARK  status: ('A' for Active; 'I' for Inactive)
REMARK    1  A    between atoms: C_1  and  C_2
REMARK    2  A    between atoms: C_2  and  C_3
REMARK    3  A    between atoms: C_2  and  C_4
REMARK    4  A    between atoms: C_2  and  C_5
REMARK    5  A    between atoms: C_7  and  C_8
REMARK    6  A    between atoms: C_8  and  N_9
REMARK    7  A    between atoms: C_14  and  C_15
REMARK                            x       y       z     vdW  Elec       q    Type
REMARK                         _______ _______ _______ _____ _____    ______ ____
ROOT
ATOM      1  N   UNL     1      48.111   7.603  13.424  0.00  0.00    +0.000 N 
ATOM      2  N   UNL     1      47.603   8.825  13.125  0.00  0.00    +0.000 NA
ATOM      3  C   UNL     1      46.319   8.577  12.858  0.00  0.00    +0.000 A 
ATOM      4  C   UNL     1      46.002   7.206  12.934  0.00  0.00    +0.000 A 
ATOM      5  C   UNL     1      44.837   6.443  12.830  0.00  0.00    +0.000 A 
ATOM      6  C   UNL     1      44.996   5.072  12.982  0.00  0.00    +0.000 A 
ATOM      7  N   UNL     1      46.193   4.439  13.158  0.00  0.00    +0.000 NA
ATOM      8  C   UNL     1      47.318   5.189  13.260  0.00  0.00    +0.000 A 
ATOM      9  C   UNL     1      47.214   6.576  13.195  0.00  0.00    +0.000 A 
ENDROOT
BRANCH   6  10
ATOM     10  C   UNL     1      43.764   4.210  13.011  0.00  0.00    +0.000 C 
ATOM     11  N   UNL     1      43.950   2.889  12.710  0.00  0.00    +0.000 N 
ATOM     12  O   UNL     1      42.659   4.646  13.308  0.00  0.00    +0.000 OA
ATOM     13  H   UNL     1      44.880   2.543  12.498  0.00  0.00    +0.000 HD
ATOM     14  H   UNL     1      43.166   2.255  12.763  0.00  0.00    +0.000 HD
ENDBRANCH   6  10
BRANCH   1  15
ATOM     15  C   UNL     1      49.280   7.545  14.303  0.00  0.00    +0.000 C 
BRANCH  15  18
ATOM     16  C   UNL     1      48.856   5.753  17.655  0.00  0.00    +0.000 A 
ATOM     17  C   UNL     1      49.074   5.960  16.286  0.00  0.00    +0.000 A 
ATOM     18  C   UNL     1      48.979   7.255  15.750  0.00  0.00    +0.000 A 
ATOM     19  C   UNL     1      48.688   8.309  16.617  0.00  0.00    +0.000 A 
ATOM     20  C   UNL     1      48.502   8.030  17.957  0.00  0.00    +0.000 A 
ATOM     21  N   UNL     1      48.577   6.792  18.482  0.00  0.00    +0.000 NA
BRANCH  16  23
ATOM     22  C   UNL     1      48.806   4.437  19.820  0.00  0.00    +0.000 C 
ATOM     23  C   UNL     1      48.894   4.354  18.285  0.00  0.00    +0.000 C 
ATOM     24  C   UNL     1      50.193   3.632  17.880  0.00  0.00    +0.000 C 
ATOM     25  C   UNL     1      47.708   3.486  17.797  0.00  0.00    +0.000 C 
ENDBRANCH  16  23
ENDBRANCH  15  18
ENDBRANCH   1  15
TORSDOF 4
ENDMDL
MODEL 5
REMARK VINA RESULT:    -5.746      4.282      8.160
REMARK INTER + INTRA:          -7.919
REMARK INTER:                  -7.200
REMARK INTRA:                  -0.719
REMARK UNBOUND:                -0.829
REMARK  Name = 
REMARK  7 active torsions:
REMARK  status: ('A' for Active; 'I' for Inactive)
REMARK    1  A    between atoms: C_1  and  C_2
REMARK    2  A    between atoms: C_2  and  C_3
REMARK    3  A    between atoms: C_2  and  C_4
REMARK    4  A    between atoms: C_2  and  C_5
REMARK    5  A    between atoms: C_7  and  C_8
REMARK    6  A    between atoms: C_8  and  N_9
REMARK    7  A    between atoms: C_14  and  C_15
REMARK                            x       y       z     vdW  Elec       q    Type
REMARK                         _______ _______ _______ _____ _____    ______ ____
ROOT
ATOM      1  N   UNL     1      48.750   6.809  14.211  0.00  0.00    +0.000 N 
ATOM      2  N   UNL     1      49.667   7.805  14.285  0.00  0.00    +0.000 NA
ATOM      3  C   UNL     1      50.167   7.685  15.516  0.00  0.00    +0.000 A 
ATOM      4  C   UNL     1      49.553   6.655  16.255  0.00  0.00    +0.000 A 
ATOM      5  C   UNL     1      49.742   6.075  17.511  0.00  0.00    +0.000 A 
ATOM      6  C   UNL     1      48.874   5.044  17.841  0.00  0.00    +0.000 A 
ATOM      7  N   UNL     1      47.838   4.616  17.060  0.00  0.00    +0.000 NA
ATOM      8  C   UNL     1      47.663   5.183  15.841  0.00  0.00    +0.000 A 
ATOM      9  C   UNL     1      48.550   6.170  15.421  0.00  0.00    +0.000 A 
ENDROOT
BRANCH   6  10
ATOM     10  C   UNL     1      49.110   4.294  19.123  0.00  0.00    +0.000 C 
ATOM     11  N   UNL     1      48.365   3.161  19.300  0.00  0.00    +0.000 N 
ATOM     12  O   UNL     1      49.933   4.652  19.955  0.00  0.00    +0.000 OA
ATOM     13  H   UNL     1      47.711   2.866  18.581  0.00  0.00    +0.000 HD
ATOM     14  H   UNL     1      48.517   2.592  20.120  0.00  0.00    +0.000 HD
ENDBRANCH   6  10
BRANCH   1  15
ATOM     15  C   UNL     1      48.433   6.268  12.888  0.00  0.00    +0.000 C 
BRANCH  15  18
ATOM     16  C   UNL     1      44.788   5.896  11.788  0.00  0.00    +0.000 A 
ATOM     17  C   UNL     1      46.091   5.558  12.179  0.00  0.00    +0.000 A 
ATOM     18  C   UNL     1      47.043   6.569  12.391  0.00  0.00    +0.000 A 
ATOM     19  C   UNL     1      46.645   7.896  12.223  0.00  0.00    +0.000 A 
ATOM     20  C   UNL     1      45.339   8.152  11.851  0.00  0.00    +0.000 A 
ATOM     21  N   UNL     1      44.421   7.192  11.633  0.00  0.00    +0.000 NA
BRANCH  16  23
ATOM     22  C   UNL     1      43.843   4.321  10.041  0.00  0.00    +0.000 C 
ATOM     23  C   UNL     1      43.724   4.830  11.490  0.00  0.00    +0.000 C 
ATOM     24  C   UNL     1      42.318   5.416  11.718  0.00  0.00    +0.000 C 
ATOM     25  C   UNL     1      43.877   3.607  12.427  0.00  0.00    +0.000 C 
ENDBRANCH  16  23
ENDBRANCH  15  18
ENDBRANCH   1  15
TORSDOF 4
ENDMDL
MODEL 6
REMARK VINA RESULT:    -5.666      3.192      5.524
REMARK INTER + INTRA:          -7.820
REMARK INTER:                  -7.207
REMARK INTRA:                  -0.613
REMARK UNBOUND:                -0.829
REMARK  Name = 
REMARK  7 active torsions:
REMARK  status: ('A' for Active; 'I' for Inactive)
REMARK    1  A    between atoms: C_1  and  C_2
REMARK    2  A    between atoms: C_2  and  C_3
REMARK    3  A    between atoms: C_2  and  C_4
REMARK    4  A    between atoms: C_2  and  C_5
REMARK    5  A    between atoms: C_7  and  C_8
REMARK    6  A    between atoms: C_8  and  N_9
REMARK    7  A    between atoms: C_14  and  C_15
REMARK                            x       y       z     vdW  Elec       q    Type
REMARK                         _______ _______ _______ _____ _____    ______ ____
ROOT
ATOM      1  N   UNL     1      47.722   6.190  14.011  0.00  0.00    +0.000 N 
ATOM      2  N   UNL     1      47.881   5.236  14.961  0.00  0.00    +0.000 NA
ATOM      3  C   UNL     1      47.003   4.294  14.616  0.00  0.00    +0.000 A 
ATOM      4  C   UNL     1      46.244   4.647  13.482  0.00  0.00    +0.000 A 
ATOM      5  C   UNL     1      45.284   4.018  12.686  0.00  0.00    +0.000 A 
ATOM      6  C   UNL     1      44.789   4.767  11.628  0.00  0.00    +0.000 A 
ATOM      7  N   UNL     1      45.126   6.064  11.364  0.00  0.00    +0.000 NA
ATOM      8  C   UNL     1      46.061   6.666  12.141  0.00  0.00    +0.000 A 
ATOM      9  C   UNL     1      46.653   5.940  13.170  0.00  0.00    +0.000 A 
ENDROOT
BRANCH   6  10
ATOM     10  C   UNL     1      43.851   4.101  10.658  0.00  0.00    +0.000 C 
ATOM     11  N   UNL     1      43.888   4.567   9.373  0.00  0.00    +0.000 N 
ATOM     12  O   UNL     1      43.112   3.181  10.981  0.00  0.00    +0.000 OA
ATOM     13  H   UNL     1      44.533   5.309   9.121  0.00  0.00    +0.000 HD
ATOM     14  H   UNL     1      43.316   4.123   8.670  0.00  0.00    +0.000 HD
ENDBRANCH   6  10
BRANCH   1  15
ATOM     15  C   UNL     1      48.861   7.062  13.718  0.00  0.00    +0.000 C 
BRANCH  15  18
ATOM     16  C   UNL     1      48.697   9.780  16.404  0.00  0.00    +0.000 A 
ATOM     17  C   UNL     1      48.636   8.519  15.795  0.00  0.00    +0.000 A 
ATOM     18  C   UNL     1      48.836   8.399  14.410  0.00  0.00    +0.000 A 
ATOM     19  C   UNL     1      49.116   9.557  13.682  0.00  0.00    +0.000 A 
ATOM     20  C   UNL     1      49.175  10.762  14.353  0.00  0.00    +0.000 A 
ATOM     21  N   UNL     1      48.972  10.892  15.678  0.00  0.00    +0.000 NA
BRANCH  16  23
ATOM     22  C   UNL     1      49.753  10.118  18.682  0.00  0.00    +0.000 C 
ATOM     23  C   UNL     1      48.432   9.975  17.903  0.00  0.00    +0.000 C 
ATOM     24  C   UNL     1      47.635   8.778  18.455  0.00  0.00    +0.000 C 
ATOM     25  C   UNL     1      47.597  11.252  18.165  0.00  0.00    +0.000 C 
ENDBRANCH  16  23
ENDBRANCH  15  18
ENDBRANCH   1  15
TORSDOF 4
ENDMDL
