MODEL 1
REMARK VINA RESULT:    -8.004      0.000      0.000
REMARK INTER + INTRA:         -11.104
REMARK INTER:                 -10.343
REMARK INTRA:                  -0.760
REMARK UNBOUND:                -0.760
REMARK  Name = 
REMARK  5 active torsions:
REMARK  status: ('A' for Active; 'I' for Inactive)
REMARK    1  A    between atoms: C_2  and  C_3
REMARK    2  A    between atoms: C_6  and  C_7
REMARK    3  A    between atoms: C_7  and  N_8
REMARK    4  A    between atoms: N_8  and  C_9
REMARK    5  A    between atoms: C_12  and  C_13
REMARK                            x       y       z     vdW  Elec       q    Type
REMARK                         _______ _______ _______ _____ _____    ______ ____
ROOT
ATOM      1  N   UNL     1      43.692   4.030  10.306  0.00  0.00    +0.000 N 
ATOM      2  H   UNL     1      43.095   3.246  10.553  0.00  0.00    +0.000 HD
ENDROOT
BRANCH   1   3
ATOM      3  C   UNL     1      44.731   3.661   9.431  0.00  0.00    +0.000 A 
ATOM      4  C   UNL     1      45.420   4.552   8.604  0.00  0.00    +0.000 A 
ATOM      5  C   UNL     1      46.376   4.093   7.679  0.00  0.00    +0.000 A 
ATOM      6  C   UNL     1      46.629   2.723   7.549  0.00  0.00    +0.000 A 
ATOM      7  C   UNL     1      45.934   1.823   8.358  0.00  0.00    +0.000 A 
ATOM      8  C   UNL     1      45.000   2.290   9.286  0.00  0.00    +0.000 A 
BRANCH   6   9
ATOM      9  C   UNL     1      47.561   2.168   6.531  0.00  0.00    +0.000 C 
ATOM     10  N   UNL     1      47.875   2.955   5.460  0.00  0.00    +0.000 N 
ATOM     11  O   UNL     1      48.056   1.055   6.656  0.00  0.00    +0.000 OA
ATOM     12  H   UNL     1      47.699   3.948   5.444  0.00  0.00    +0.000 HD
ATOM     13  H   UNL     1      48.589   2.593   4.840  0.00  0.00    +0.000 HD
ENDBRANCH   6   9
ENDBRANCH   1   3
BRANCH   1  14
ATOM     14  C   UNL     1      43.702   5.143  11.269  0.00  0.00    +0.000 C 
ATOM     15  C   UNL     1      43.034   6.470  10.972  0.00  0.00    +0.000 C 
ATOM     16  C   UNL     1      42.318   5.476  11.825  0.00  0.00    +0.000 C 
BRANCH  14  20
ATOM     17  C   UNL     1      46.888   5.072  14.157  0.00  0.00    +0.000 A 
ATOM     18  C   UNL     1      46.826   6.146  13.281  0.00  0.00    +0.000 A 
ATOM     19  C   UNL     1      45.814   6.162  12.317  0.00  0.00    +0.000 A 
ATOM     20  C   UNL     1      44.881   5.118  12.233  0.00  0.00    +0.000 A 
ATOM     21  C   UNL     1      45.075   4.074  13.140  0.00  0.00    +0.000 A 
ATOM     22  N   UNL     1      46.040   4.021  14.091  0.00  0.00    +0.000 NA
BRANCH  17  24
ATOM     23  N   UNL     1      48.597   5.000  16.115  0.00  0.00    +0.000 NA
ATOM     24  C   UNL     1      47.850   5.043  15.224  0.00  0.00    +0.000 C 
ENDBRANCH  17  24
ENDBRANCH  14  20
ENDBRANCH   1  14
TORSDOF 5
ENDMDL
MODEL 2
REMARK VINA RESULT:    -7.988      1.356      1.852
REMARK INTER + INTRA:         -11.083
REMARK INTER:                 -10.847
REMARK INTRA:                  -0.236
REMARK UNBOUND:                -0.760
REMARK  Name = 
REMARK  5 active torsions:
REMARK  status: ('A' for Active; 'I' for Inactive)
REMARK    1  A    between atoms: C_2  and  C_3
REMARK    2  A    between atoms: C_6  and  C_7
REMARK    3  A    between atoms: C_7  and  N_8
REMARK    4  A    between atoms: N_8  and  C_9
REMARK    5  A    between atoms: C_12  and  C_13
REMARK                            x       y       z     vdW  Elec       q    Type
REMARK                         _______ _______ _______ _____ _____    ______ ____
ROOT
ATOM      1  N   UNL     1      43.819   4.703  10.189  0.00  0.00    +0.000 N 
ATOM      2  H   UNL     1      42.863   4.803   9.860  0.00  0.00    +0.000 HD
ENDROOT
BRANCH   1   3
ATOM      3  C   UNL     1      44.597   3.892   9.342  0.00  0.00    +0.000 A 
ATOM      4  C   UNL     1      44.711   2.504   9.463  0.00  0.00    +0.000 A 
ATOM      5  C   UNL     1      45.591   1.774   8.643  0.00  0.00    +0.000 A 
ATOM      6  C   UNL     1      46.397   2.434   7.710  0.00  0.00    +0.000 A 
ATOM      7  C   UNL     1      46.304   3.822   7.592  0.00  0.00    +0.000 A 
ATOM      8  C   UNL     1      45.414   4.536   8.398  0.00  0.00    +0.000 A 
BRANCH   6   9
ATOM      9  C   UNL     1      47.409   1.732   6.876  0.00  0.00    +0.000 C 
ATOM     10  N   UNL     1      48.506   2.440   6.476  0.00  0.00    +0.000 N 
ATOM     11  O   UNL     1      47.285   0.551   6.578  0.00  0.00    +0.000 OA
ATOM     12  H   UNL     1      48.772   3.317   6.898  0.00  0.00    +0.000 HD
ATOM     13  H   UNL     1      49.224   1.910   5.999  0.00  0.00    +0.000 HD
ENDBRANCH   6   9
ENDBRANCH   1   3
BRANCH   1  14
ATOM     14  C   UNL     1      44.015   4.916  11.632  0.00  0.00    +0.000 C 
ATOM     15  C   UNL     1      42.858   5.188  12.570  0.00  0.00    +0.000 C 
ATOM     16  C   UNL     1      43.418   3.807  12.495  0.00  0.00    +0.000 C 
BRANCH  14  20
ATOM     17  C   UNL     1      47.831   6.470  12.865  0.00  0.00    +0.000 A 
ATOM     18  C   UNL     1      47.167   7.117  11.833  0.00  0.00    +0.000 A 
ATOM     19  C   UNL     1      45.941   6.600  11.403  0.00  0.00    +0.000 A 
ATOM     20  C   UNL     1      45.393   5.454  11.997  0.00  0.00    +0.000 A 
ATOM     21  C   UNL     1      46.177   4.868  12.993  0.00  0.00    +0.000 A 
ATOM     22  N   UNL     1      47.368   5.338  13.441  0.00  0.00    +0.000 NA
BRANCH  17  24
ATOM     23  N   UNL     1      50.026   7.416  13.889  0.00  0.00    +0.000 NA
ATOM     24  C   UNL     1      49.050   7.004  13.409  0.00  0.00    +0.000 C 
ENDBRANCH  17  24
ENDBRANCH  14  20
ENDBRANCH   1  14
TORSDOF 5
ENDMDL
MODEL 3
REMARK VINA RESULT:    -7.343      2.166      2.793
REMARK INTER + INTRA:         -10.249
REMARK INTER:                 -10.003
REMARK INTRA:                  -0.247
REMARK UNBOUND:                -0.760
REMARK  Name = 
REMARK  5 active torsions:
REMARK  status: ('A' for Active; 'I' for Inactive)
REMARK    1  A    between atoms: C_2  and  C_3
REMARK    2  A    between atoms: C_6  and  C_7
REMARK    3  A    between atoms: C_7  and  N_8
REMARK    4  A    between atoms: N_8  and  C_9
REMARK    5  A    between atoms: C_12  and  C_13
REMARK                            x       y       z     vdW  Elec       q    Type
REMARK                         _______ _______ _______ _____ _____    ______ ____
ROOT
ATOM      1  N   UNL     1      43.789   4.774  10.087  0.00  0.00    +0.000 N 
ATOM      2  H   UNL     1      42.827   4.794   9.762  0.00  0.00    +0.000 HD
ENDROOT
BRANCH   1   3
ATOM      3  C   UNL     1      44.613   3.965   9.283  0.00  0.00    +0.000 A 
ATOM      4  C   UNL     1      44.663   2.570   9.354  0.00  0.00    +0.000 A 
ATOM      5  C   UNL     1      45.588   1.836   8.590  0.00  0.00    +0.000 A 
ATOM      6  C   UNL     1      46.503   2.499   7.764  0.00  0.00    +0.000 A 
ATOM      7  C   UNL     1      46.474   3.893   7.698  0.00  0.00    +0.000 A 
ATOM      8  C   UNL     1      45.539   4.611   8.447  0.00  0.00    +0.000 A 
BRANCH   6   9
ATOM      9  C   UNL     1      47.562   1.787   6.999  0.00  0.00    +0.000 C 
ATOM     10  N   UNL     1      48.341   2.526   6.155  0.00  0.00    +0.000 N 
ATOM     11  O   UNL     1      47.754   0.586   7.137  0.00  0.00    +0.000 OA
ATOM     12  H   UNL     1      48.388   3.533   6.198  0.00  0.00    +0.000 HD
ATOM     13  H   UNL     1      49.117   2.036   5.727  0.00  0.00    +0.000 HD
ENDBRANCH   6   9
ENDBRANCH   1   3
BRANCH   1  14
ATOM     14  C   UNL     1      43.980   5.085  11.513  0.00  0.00    +0.000 C 
ATOM     15  C   UNL     1      42.887   4.861  12.539  0.00  0.00    +0.000 C 
ATOM     16  C   UNL     1      43.975   3.848  12.409  0.00  0.00    +0.000 C 
BRANCH  14  20
ATOM     17  C   UNL     1      46.853   8.235  12.076  0.00  0.00    +0.000 A 
ATOM     18  C   UNL     1      47.326   6.938  11.941  0.00  0.00    +0.000 A 
ATOM     19  C   UNL     1      46.399   5.903  11.791  0.00  0.00    +0.000 A 
ATOM     20  C   UNL     1      45.021   6.165  11.778  0.00  0.00    +0.000 A 
ATOM     21  C   UNL     1      44.669   7.504  11.967  0.00  0.00    +0.000 A 
ATOM     22  N   UNL     1      45.535   8.536  12.113  0.00  0.00    +0.000 NA
BRANCH  17  24
ATOM     23  N   UNL     1      48.514  10.228  12.235  0.00  0.00    +0.000 NA
ATOM     24  C   UNL     1      47.759   9.349  12.145  0.00  0.00    +0.000 C 
ENDBRANCH  17  24
ENDBRANCH  14  20
ENDBRANCH   1  14
TORSDOF 5
ENDMDL
MODEL 4
REMARK VINA RESULT:    -6.952      3.134      6.897
REMARK INTER + INTRA:          -9.745
REMARK INTER:                  -9.251
REMARK INTRA:                  -0.494
REMARK UNBOUND:                -0.760
REMARK  Name = 
REMARK  5 active torsions:
REMARK  status: ('A' for Active; 'I' for Inactive)
REMARK    1  A    between atoms: C_2  and  C_3
REMARK    2  A    between atoms: C_6  and  C_7
REMARK    3  A    between atoms: C_7  and  N_8
REMARK    4  A    between atoms: N_8  and  C_9
REMARK    5  A    between atoms: C_12  and  C_13
REMARK                            x       y       z     vdW  Elec       q    Type
REMARK                         _______ _______ _______ _____ _____    ______ ____
ROOT
ATOM      1  N   UNL     1      44.475   5.894  10.877  0.00  0.00    +0.000 N 
ATOM      2  H   UNL     1      44.086   6.385  10.077  0.00  0.00    +0.000 HD
ENDROOT
BRANCH   1   3
ATOM      3  C   UNL     1      45.404   6.675  11.589  0.00  0.00    +0.000 A 
ATOM      4  C   UNL     1      46.704   6.268  11.901  0.00  0.00    +0.000 A 
ATOM      5  C   UNL     1      47.540   7.063  12.706  0.00  0.00    +0.000 A 
ATOM      6  C   UNL     1      47.068   8.267  13.239  0.00  0.00    +0.000 A 
ATOM      7  C   UNL     1      45.765   8.675  12.948  0.00  0.00    +0.000 A 
ATOM      8  C   UNL     1      44.949   7.888  12.133  0.00  0.00    +0.000 A 
BRANCH   6   9
ATOM      9  C   UNL     1      47.870   9.108  14.167  0.00  0.00    +0.000 C 
ATOM     10  N   UNL     1      47.524   9.105  15.489  0.00  0.00    +0.000 N 
ATOM     11  O   UNL     1      48.827   9.763  13.774  0.00  0.00    +0.000 OA
ATOM     12  H   UNL     1      46.921   8.404  15.892  0.00  0.00    +0.000 HD
ATOM     13  H   UNL     1      48.148   9.603  16.110  0.00  0.00    +0.000 HD
ENDBRANCH   6   9
ENDBRANCH   1   3
BRANCH   1  14
ATOM     14  C   UNL     1      44.435   4.425  10.796  0.00  0.00    +0.000 C 
ATOM     15  C   UNL     1      44.279   3.555  12.026  0.00  0.00    +0.000 C 
ATOM     16  C   UNL     1      43.080   3.833  11.182  0.00  0.00    +0.000 C 
BRANCH  14  20
ATOM     17  C   UNL     1      46.616   2.720   7.505  0.00  0.00    +0.000 A 
ATOM     18  C   UNL     1      46.466   4.098   7.543  0.00  0.00    +0.000 A 
ATOM     19  C   UNL     1      45.731   4.660   8.591  0.00  0.00    +0.000 A 
ATOM     20  C   UNL     1      45.155   3.852   9.582  0.00  0.00    +0.000 A 
ATOM     21  C   UNL     1      45.338   2.478   9.409  0.00  0.00    +0.000 A 
ATOM     22  N   UNL     1      46.045   1.894   8.411  0.00  0.00    +0.000 NA
BRANCH  17  24
ATOM     23  N   UNL     1      48.110   1.555   5.725  0.00  0.00    +0.000 NA
ATOM     24  C   UNL     1      47.434   2.092   6.503  0.00  0.00    +0.000 C 
ENDBRANCH  17  24
ENDBRANCH  14  20
ENDBRANCH   1  14
TORSDOF 5
ENDMDL
MODEL 5
REMARK VINA RESULT:    -5.461      2.364      4.407
REMARK INTER + INTRA:          -7.817
REMARK INTER:                  -7.562
REMARK INTRA:                  -0.255
REMARK UNBOUND:                -0.760
REMARK  Name = 
REMARK  5 active torsions:
REMARK  status: ('A' for Active; 'I' for Inactive)
REMARK    1  A    between atoms: C_2  and  C_3
REMARK    2  A    between atoms: C_6  and  C_7
REMARK    3  A    between atoms: C_7  and  N_8
REMARK    4  A    between atoms: N_8  and  C_9
REMARK    5  A    between atoms: C_12  and  C_13
REMARK                            x       y       z     vdW  Elec       q    Type
REMARK                         _______ _______ _______ _____ _____    ______ ____
ROOT
ATOM      1  N   UNL     1      46.206   6.266  13.490  0.00  0.00    +0.000 N 
ATOM      2  H   UNL     1      45.546   6.417  14.247  0.00  0.00    +0.000 HD
ENDROOT
BRANCH   1   3
ATOM      3  C   UNL     1      45.701   5.403  12.499  0.00  0.00    +0.000 A 
ATOM      4  C   UNL     1      45.407   4.052  12.704  0.00  0.00    +0.000 A 
ATOM      5  C   UNL     1      45.004   3.227  11.638  0.00  0.00    +0.000 A 
ATOM      6  C   UNL     1      44.922   3.742  10.340  0.00  0.00    +0.000 A 
ATOM      7  C   UNL     1      45.230   5.086  10.121  0.00  0.00    +0.000 A 
ATOM      8  C   UNL     1      45.612   5.901  11.189  0.00  0.00    +0.000 A 
BRANCH   6   9
ATOM      9  C   UNL     1      44.588   2.903   9.158  0.00  0.00    +0.000 C 
ATOM     10  N   UNL     1      44.346   3.540   7.974  0.00  0.00    +0.000 N 
ATOM     11  O   UNL     1      44.555   1.681   9.229  0.00  0.00    +0.000 OA
ATOM     12  H   UNL     1      44.605   4.501   7.811  0.00  0.00    +0.000 HD
ATOM     13  H   UNL     1      44.223   2.941   7.168  0.00  0.00    +0.000 HD
ENDBRANCH   6   9
ENDBRANCH   1   3
BRANCH   1  14
ATOM     14  C   UNL     1      47.621   6.484  13.832  0.00  0.00    +0.000 C 
ATOM     15  C   UNL     1      48.695   6.612  12.772  0.00  0.00    +0.000 C 
ATOM     16  C   UNL     1      48.146   7.851  13.397  0.00  0.00    +0.000 C 
BRANCH  14  20
ATOM     17  C   UNL     1      48.515   5.040  17.783  0.00  0.00    +0.000 A 
ATOM     18  C   UNL     1      49.149   6.196  17.353  0.00  0.00    +0.000 A 
ATOM     19  C   UNL     1      48.890   6.656  16.059  0.00  0.00    +0.000 A 
ATOM     20  C   UNL     1      48.012   5.965  15.210  0.00  0.00    +0.000 A 
ATOM     21  C   UNL     1      47.471   4.793  15.742  0.00  0.00    +0.000 A 
ATOM     22  N   UNL     1      47.693   4.314  16.991  0.00  0.00    +0.000 NA
BRANCH  17  24
ATOM     23  N   UNL     1      48.760   4.162  20.218  0.00  0.00    +0.000 NA
ATOM     24  C   UNL     1      48.672   4.568  19.132  0.00  0.00    +0.000 C 
ENDBRANCH  17  24
ENDBRANCH  14  20
ENDBRANCH   1  14
TORSDOF 5
ENDMDL
MODEL 6
REMARK VINA RESULT:    -5.435      3.228      5.061
REMARK INTER + INTRA:          -7.784
REMARK INTER:                  -7.156
REMARK INTRA:                  -0.628
REMARK UNBOUND:                -0.760
REMARK  Name = 
REMARK  5 active torsions:
REMARK  status: ('A' for Active; 'I' for Inactive)
REMARK    1  A    between atoms: C_2  and  C_3
REMARK    2  A    between atoms: C_6  and  C_7
REMARK    3  A    between atoms: C_7  and  N_8
REMARK    4  A    between atoms: N_8  and  C_9
REMARK    5  A    between atoms: C_12  and  C_13
REMARK                            x       y       z     vdW  Elec       q    Type
REMARK                         _______ _______ _______ _____ _____    ______ ____
ROOT
ATOM      1  N   UNL     1      46.437   7.866  12.518  0.00  0.00    +0.000 N 
ATOM      2  H   UNL     1      45.865   8.560  12.990  0.00  0.00    +0.000 HD
ENDROOT
BRANCH   1   3
ATOM      3  C   UNL     1      45.733   6.676  12.255  0.00  0.00    +0.000 A 
ATOM      4  C   UNL     1      45.416   5.716  13.219  0.00  0.00    +0.000 A 
ATOM      5  C   UNL     1      44.801   4.502  12.861  0.00  0.00    +0.000 A 
ATOM      6  C   UNL     1      44.525   4.221  11.519  0.00  0.00    +0.000 A 
ATOM      7  C   UNL     1      44.852   5.166  10.545  0.00  0.00    +0.000 A 
ATOM      8  C   UNL     1      45.446   6.375  10.913  0.00  0.00    +0.000 A 
BRANCH   6   9
ATOM      9  C   UNL     1      43.957   2.923  11.067  0.00  0.00    +0.000 C 
ATOM     10  N   UNL     1      44.549   2.308  10.001  0.00  0.00    +0.000 N 
ATOM     11  O   UNL     1      43.010   2.403  11.642  0.00  0.00    +0.000 OA
ATOM     12  H   UNL     1      45.465   2.563   9.664  0.00  0.00    +0.000 HD
ATOM     13  H   UNL     1      44.208   1.380   9.781  0.00  0.00    +0.000 HD
ENDBRANCH   6   9
ENDBRANCH   1   3
BRANCH   1  14
ATOM     14  C   UNL     1      47.889   8.008  12.711  0.00  0.00    +0.000 C 
ATOM     15  C   UNL     1      48.878   7.762  11.591  0.00  0.00    +0.000 C 
ATOM     16  C   UNL     1      48.496   9.166  11.921  0.00  0.00    +0.000 C 
BRANCH  14  20
ATOM     17  C   UNL     1      49.023   7.259  16.792  0.00  0.00    +0.000 A 
ATOM     18  C   UNL     1      48.601   8.536  16.457  0.00  0.00    +0.000 A 
ATOM     19  C   UNL     1      48.262   8.799  15.126  0.00  0.00    +0.000 A 
ATOM     20  C   UNL     1      48.346   7.796  14.149  0.00  0.00    +0.000 A 
ATOM     21  C   UNL     1      48.826   6.565  14.601  0.00  0.00    +0.000 A 
ATOM     22  N   UNL     1      49.163   6.269  15.881  0.00  0.00    +0.000 NA
BRANCH  17  24
ATOM     23  N   UNL     1      49.533   6.664  19.271  0.00  0.00    +0.000 NA
ATOM     24  C   UNL     1      49.300   6.905  18.157  0.00  0.00    +0.000 C 
ENDBRANCH  17  24
ENDBRANCH  14  20
ENDBRANCH   1  14
TORSDOF 5
ENDMDL
MODEL 7
REMARK VINA RESULT:    -5.293      4.495      7.889
REMARK INTER + INTRA:          -7.600
REMARK INTER:                  -7.557
REMARK INTRA:                  -0.043
REMARK UNBOUND:                -0.760
REMARK  Name = 
REMARK  5 active torsions:
REMARK  status: ('A' for Active; 'I' for Inactive)
REMARK    1  A    between atoms: C_2  and  C_3
REMARK    2  A    between atoms: C_6  and  C_7
REMARK    3  A    between atoms: C_7  and  N_8
REMARK    4  A    between atoms: N_8  and  C_9
REMARK    5  A    between atoms: C_12  and  C_13
REMARK                            x       y       z     vdW  Elec       q    Type
REMARK                         _______ _______ _______ _____ _____    ______ ____
ROOT
ATOM      1  N   UNL     1      47.899   7.065  15.127  0.00  0.00    +0.000 N 
ATOM      2  H   UNL     1      47.727   8.004  15.474  0.00  0.00    +0.000 HD
ENDROOT
BRANCH   1   3
ATOM      3  C   UNL     1      48.770   6.335  15.957  0.00  0.00    +0.000 A 
ATOM      4  C   UNL     1      50.116   6.652  16.163  0.00  0.00    +0.000 A 
ATOM      5  C   UNL     1      50.951   5.814  16.924  0.00  0.00    +0.000 A 
ATOM      6  C   UNL     1      50.452   4.624  17.464  0.00  0.00    +0.000 A 
ATOM      7  C   UNL     1      49.114   4.289  17.251  0.00  0.00    +0.000 A 
ATOM      8  C   UNL     1      48.288   5.136  16.508  0.00  0.00    +0.000 A 
BRANCH   6   9
ATOM      9  C   UNL     1      51.303   3.654  18.204  0.00  0.00    +0.000 C 
ATOM     10  N   UNL     1      51.097   2.323  17.974  0.00  0.00    +0.000 N 
ATOM     11  O   UNL     1      52.181   4.027  18.972  0.00  0.00    +0.000 OA
ATOM     12  H   UNL     1      50.575   1.982  17.182  0.00  0.00    +0.000 HD
ATOM     13  H   UNL     1      51.757   1.692  18.411  0.00  0.00    +0.000 HD
ENDBRANCH   6   9
ENDBRANCH   1   3
BRANCH   1  14
ATOM     14  C   UNL     1      47.695   6.879  13.681  0.00  0.00    +0.000 C 
ATOM     15  C   UNL     1      48.076   7.942  12.672  0.00  0.00    +0.000 C 
ATOM     16  C   UNL     1      49.000   6.790  12.892  0.00  0.00    +0.000 C 
BRANCH  14  20
ATOM     17  C   UNL     1      44.654   4.059  12.542  0.00  0.00    +0.000 A 
ATOM     18  C   UNL     1      44.357   5.411  12.449  0.00  0.00    +0.000 A 
ATOM     19  C   UNL     1      45.327   6.335  12.849  0.00  0.00    +0.000 A 
ATOM     20  C   UNL     1      46.572   5.910  13.333  0.00  0.00    +0.000 A 
ATOM     21  C   UNL     1      46.735   4.525  13.421  0.00  0.00    +0.000 A 
ATOM     22  N   UNL     1      45.822   3.596  13.042  0.00  0.00    +0.000 NA
BRANCH  17  24
ATOM     23  N   UNL     1      43.023   2.234  11.667  0.00  0.00    +0.000 NA
ATOM     24  C   UNL     1      43.732   3.065  12.064  0.00  0.00    +0.000 C 
ENDBRANCH  17  24
ENDBRANCH  14  20
ENDBRANCH   1  14
TORSDOF 5
ENDMDL
MODEL 8
REMARK VINA RESULT:    -5.139      5.254      6.620
REMARK INTER + INTRA:          -7.402
REMARK INTER:                  -6.861
REMARK INTRA:                  -0.541
REMARK UNBOUND:                -0.760
REMARK  Name = 
REMARK  5 active torsions:
REMARK  status: ('A' for Active; 'I' for Inactive)
REMARK    1  A    between atoms: C_2  and  C_3
REMARK    2  A    between atoms: C_6  and  C_7
REMARK    3  A    between atoms: C_7  and  N_8
REMARK    4  A    between atoms: N_8  and  C_9
REMARK    5  A    between atoms: C_12  and  C_13
REMARK                            x       y       z     vdW  Elec       q    Type
REMARK                         _______ _______ _______ _____ _____    ______ ____
ROOT
ATOM      1  N   UNL     1      47.516   8.985  13.186  0.00  0.00    +0.000 N 
ATOM      2  H   UNL     1      47.424   9.328  14.138  0.00  0.00    +0.000 HD
ENDROOT
BRANCH   1   3
ATOM      3  C   UNL     1      46.393   9.287  12.393  0.00  0.00    +0.000 A 
ATOM      4  C   UNL     1      46.064  10.570  11.945  0.00  0.00    +0.000 A 
ATOM      5  C   UNL     1      44.868  10.810  11.244  0.00  0.00    +0.000 A 
ATOM      6  C   UNL     1      43.966   9.766  11.012  0.00  0.00    +0.000 A 
ATOM      7  C   UNL     1      44.276   8.484  11.469  0.00  0.00    +0.000 A 
ATOM      8  C   UNL     1      45.475   8.253  12.149  0.00  0.00    +0.000 A 
BRANCH   6   9
ATOM      9  C   UNL     1      42.647   9.970  10.355  0.00  0.00    +0.000 C 
ATOM     10  N   UNL     1      41.540   9.475  10.984  0.00  0.00    +0.000 N 
ATOM     11  O   UNL     1      42.544  10.585   9.301  0.00  0.00    +0.000 OA
ATOM     12  H   UNL     1      41.545   9.194  11.953  0.00  0.00    +0.000 HD
ATOM     13  H   UNL     1      40.650   9.718  10.568  0.00  0.00    +0.000 HD
ENDBRANCH   6   9
ENDBRANCH   1   3
BRANCH   1  14
ATOM     14  C   UNL     1      48.443   7.856  13.009  0.00  0.00    +0.000 C 
ATOM     15  C   UNL     1      49.071   7.533  11.669  0.00  0.00    +0.000 C 
ATOM     16  C   UNL     1      49.870   8.289  12.677  0.00  0.00    +0.000 C 
BRANCH  14  20
ATOM     17  C   UNL     1      47.670   4.711  15.839  0.00  0.00    +0.000 A 
ATOM     18  C   UNL     1      48.463   5.774  16.246  0.00  0.00    +0.000 A 
ATOM     19  C   UNL     1      48.747   6.785  15.323  0.00  0.00    +0.000 A 
ATOM     20  C   UNL     1      48.246   6.729  14.015  0.00  0.00    +0.000 A 
ATOM     21  C   UNL     1      47.499   5.588  13.713  0.00  0.00    +0.000 A 
ATOM     22  N   UNL     1      47.198   4.588  14.577  0.00  0.00    +0.000 NA
BRANCH  17  24
ATOM     23  N   UNL     1      46.905   2.865  17.502  0.00  0.00    +0.000 NA
ATOM     24  C   UNL     1      47.272   3.688  16.766  0.00  0.00    +0.000 C 
ENDBRANCH  17  24
ENDBRANCH  14  20
ENDBRANCH   1  14
TORSDOF 5
ENDMDL
