MODEL 1
REMARK VINA RESULT:    -7.997      0.000      0.000
REMARK INTER + INTRA:         -11.870
REMARK INTER:                 -10.802
REMARK INTRA:                  -1.068
REMARK UNBOUND:                -1.068
REMARK  Name = 
REMARK  6 active torsions:
REMARK  status: ('A' for Active; 'I' for Inactive)
REMARK    1  A    between atoms: C_2  and  C_25
REMARK    2  A    between atoms: N_3  and  C_4
REMARK    3  A    between atoms: C_4  and  C_5
REMARK    4  A    between atoms: C_8  and  C_9
REMARK    5  A    between atoms: C_9  and  N_10
REMARK    6  A    between atoms: C_11  and  C_13
REMARK                            x       y       z     vdW  Elec       q    Type
REMARK                         _______ _______ _______ _____ _____    ______ ____
ROOT
ATOM      1  C   UNL     1      44.942   5.883  10.913  0.00  0.00    +0.000 A 
ATOM      2  C   UNL     1      44.269   6.677  11.837  0.00  0.00    +0.000 A 
ATOM      3  C   UNL     1      45.006   7.486  12.699  0.00  0.00    +0.000 A 
ATOM      4  C   UNL     1      46.399   7.488  12.628  0.00  0.00    +0.000 A 
ATOM      5  C   UNL     1      46.985   6.700  11.645  0.00  0.00    +0.000 A 
ATOM      6  N   UNL     1      46.296   5.905  10.790  0.00  0.00    +0.000 NA
ENDROOT
BRANCH   1   7
ATOM      7  C   UNL     1      44.168   4.959  10.000  0.00  0.00    +0.000 C 
BRANCH   7  10
ATOM      8  O   UNL     1      44.737   2.222   9.644  0.00  0.00    +0.000 OA
ATOM      9  C   UNL     1      45.209   3.035   8.854  0.00  0.00    +0.000 C 
ATOM     10  N   UNL     1      44.993   4.383   8.959  0.00  0.00    +0.000 N 
ATOM     11  H   UNL     1      45.257   4.992   8.198  0.00  0.00    +0.000 HD
BRANCH   9  12
ATOM     12  C   UNL     1      46.030   2.633   7.732  0.00  0.00    +0.000 A 
ATOM     13  C   UNL     1      46.316   3.246   6.522  0.00  0.00    +0.000 A 
ATOM     14  C   UNL     1      47.193   2.406   5.794  0.00  0.00    +0.000 A 
ATOM     15  C   UNL     1      47.434   1.298   6.572  0.00  0.00    +0.000 A 
ATOM     16  N   UNL     1      46.740   1.448   7.742  0.00  0.00    +0.000 N 
ATOM     17  H   UNL     1      46.732   0.798   8.519  0.00  0.00    +0.000 HD
ENDBRANCH   9  12
ENDBRANCH   7  10
ENDBRANCH   1   7
BRANCH   4  18
ATOM     18  C   UNL     1      47.228   8.320  13.562  0.00  0.00    +0.000 C 
BRANCH  18  19
ATOM     19  N   UNL     1      47.609   7.586  14.742  0.00  0.00    +0.000 N 
ATOM     20  C   UNL     1      48.815   6.931  14.803  0.00  0.00    +0.000 C 
ATOM     21  O   UNL     1      49.629   6.985  13.885  0.00  0.00    +0.000 OA
ATOM     22  H   UNL     1      46.871   7.328  15.390  0.00  0.00    +0.000 HD
BRANCH  20  23
ATOM     23  C   UNL     1      49.113   6.211  16.047  0.00  0.00    +0.000 A 
ATOM     24  C   UNL     1      50.173   6.624  16.843  0.00  0.00    +0.000 A 
ATOM     25  S   UNL     1      50.350   5.715  18.275  0.00  0.00    +0.000 S 
ATOM     26  C   UNL     1      49.050   4.701  17.856  0.00  0.00    +0.000 A 
ATOM     27  N   UNL     1      48.685   3.665  18.658  0.00  0.00    +0.000 NA
ATOM     28  C   UNL     1      47.709   2.955  18.199  0.00  0.00    +0.000 A 
ATOM     29  N   UNL     1      47.061   3.191  17.015  0.00  0.00    +0.000 N 
ATOM     30  C   UNL     1      47.370   4.247  16.191  0.00  0.00    +0.000 A 
ATOM     31  O   UNL     1      46.734   4.465  15.164  0.00  0.00    +0.000 OA
ATOM     32  C   UNL     1      48.476   5.065  16.651  0.00  0.00    +0.000 A 
ATOM     33  H   UNL     1      46.296   2.603  16.719  0.00  0.00    +0.000 HD
ENDBRANCH  20  23
ENDBRANCH  18  19
ENDBRANCH   4  18
TORSDOF 6
ENDMDL
MODEL 2
REMARK VINA RESULT:    -7.671      2.283      2.548
REMARK INTER + INTRA:         -11.430
REMARK INTER:                 -10.556
REMARK INTRA:                  -0.874
REMARK UNBOUND:                -1.068
REMARK  Name = 
REMARK  6 active torsions:
REMARK  status: ('A' for Active; 'I' for Inactive)
REMARK    1  A    between atoms: C_2  and  C_25
REMARK    2  A    between atoms: N_3  and  C_4
REMARK    3  A    between atoms: C_4  and  C_5
REMARK    4  A    between atoms: C_8  and  C_9
REMARK    5  A    between atoms: C_9  and  N_10
REMARK    6  A    between atoms: C_11  and  C_13
REMARK                            x       y       z     vdW  Elec       q    Type
REMARK                         _______ _______ _______ _____ _____    ______ ____
ROOT
ATOM      1  C   UNL     1      45.472   3.974  12.404  0.00  0.00    +0.000 A 
ATOM      2  C   UNL     1      45.337   5.345  12.206  0.00  0.00    +0.000 A 
ATOM      3  C   UNL     1      46.069   6.221  13.005  0.00  0.00    +0.000 A 
ATOM      4  C   UNL     1      46.918   5.717  13.990  0.00  0.00    +0.000 A 
ATOM      5  C   UNL     1      47.026   4.334  14.088  0.00  0.00    +0.000 A 
ATOM      6  N   UNL     1      46.330   3.456  13.323  0.00  0.00    +0.000 NA
ENDROOT
BRANCH   1   7
ATOM      7  C   UNL     1      44.653   3.003  11.584  0.00  0.00    +0.000 C 
BRANCH   7  10
ATOM      8  O   UNL     1      44.271   4.113   9.021  0.00  0.00    +0.000 OA
ATOM      9  C   UNL     1      45.083   3.201   9.161  0.00  0.00    +0.000 C 
ATOM     10  N   UNL     1      45.322   2.598  10.366  0.00  0.00    +0.000 N 
ATOM     11  H   UNL     1      46.112   1.977  10.466  0.00  0.00    +0.000 HD
BRANCH   9  12
ATOM     12  C   UNL     1      45.867   2.692   8.056  0.00  0.00    +0.000 A 
ATOM     13  C   UNL     1      46.226   3.247   6.836  0.00  0.00    +0.000 A 
ATOM     14  C   UNL     1      47.017   2.304   6.135  0.00  0.00    +0.000 A 
ATOM     15  C   UNL     1      47.134   1.194   6.938  0.00  0.00    +0.000 A 
ATOM     16  N   UNL     1      46.450   1.441   8.097  0.00  0.00    +0.000 N 
ATOM     17  H   UNL     1      46.368   0.811   8.887  0.00  0.00    +0.000 HD
ENDBRANCH   9  12
ENDBRANCH   7  10
ENDBRANCH   1   7
BRANCH   4  18
ATOM     18  C   UNL     1      47.695   6.628  14.893  0.00  0.00    +0.000 C 
BRANCH  18  19
ATOM     19  N   UNL     1      48.859   5.978  15.441  0.00  0.00    +0.000 N 
ATOM     20  C   UNL     1      48.936   5.687  16.781  0.00  0.00    +0.000 C 
ATOM     21  O   UNL     1      48.006   5.921  17.549  0.00  0.00    +0.000 OA
ATOM     22  H   UNL     1      49.712   6.004  14.889  0.00  0.00    +0.000 HD
BRANCH  20  23
ATOM     23  C   UNL     1      50.161   5.024  17.244  0.00  0.00    +0.000 A 
ATOM     24  C   UNL     1      51.211   5.787  17.736  0.00  0.00    +0.000 A 
ATOM     25  S   UNL     1      52.536   4.861  18.279  0.00  0.00    +0.000 S 
ATOM     26  C   UNL     1      51.777   3.408  17.823  0.00  0.00    +0.000 A 
ATOM     27  N   UNL     1      52.401   2.212  17.989  0.00  0.00    +0.000 NA
ATOM     28  C   UNL     1      51.726   1.196  17.564  0.00  0.00    +0.000 A 
ATOM     29  N   UNL     1      50.481   1.268  16.995  0.00  0.00    +0.000 N 
ATOM     30  C   UNL     1      49.796   2.451  16.842  0.00  0.00    +0.000 A 
ATOM     31  O   UNL     1      48.660   2.477  16.381  0.00  0.00    +0.000 OA
ATOM     32  C   UNL     1      50.521   3.627  17.285  0.00  0.00    +0.000 A 
ATOM     33  H   UNL     1      50.001   0.433  16.694  0.00  0.00    +0.000 HD
ENDBRANCH  20  23
ENDBRANCH  18  19
ENDBRANCH   4  18
TORSDOF 6
ENDMDL
MODEL 3
REMARK VINA RESULT:    -7.331      1.908      2.228
REMARK INTER + INTRA:         -10.970
REMARK INTER:                 -10.097
REMARK INTRA:                  -0.873
REMARK UNBOUND:                -1.068
REMARK  Name = 
REMARK  6 active torsions:
REMARK  status: ('A' for Active; 'I' for Inactive)
REMARK    1  A    between atoms: C_2  and  C_25
REMARK    2  A    between atoms: N_3  and  C_4
REMARK    3  A    between atoms: C_4  and  C_5
REMARK    4  A    between atoms: C_8  and  C_9
REMARK    5  A    between atoms: C_9  and  N_10
REMARK    6  A    between atoms: C_11  and  C_13
REMARK                            x       y       z     vdW  Elec       q    Type
REMARK                         _______ _______ _______ _____ _____    ______ ____
ROOT
ATOM      1  C   UNL     1      45.011   5.138  11.687  0.00  0.00    +0.000 A 
ATOM      2  C   UNL     1      44.365   6.310  11.303  0.00  0.00    +0.000 A 
ATOM      3  C   UNL     1      44.870   7.534  11.734  0.00  0.00    +0.000 A 
ATOM      4  C   UNL     1      46.006   7.571  12.542  0.00  0.00    +0.000 A 
ATOM      5  C   UNL     1      46.613   6.356  12.839  0.00  0.00    +0.000 A 
ATOM      6  N   UNL     1      46.148   5.149  12.432  0.00  0.00    +0.000 NA
ENDROOT
BRANCH   1   7
ATOM      7  C   UNL     1      44.455   3.794  11.274  0.00  0.00    +0.000 C 
BRANCH   7  10
ATOM      8  O   UNL     1      44.178   4.238   8.505  0.00  0.00    +0.000 OA
ATOM      9  C   UNL     1      45.035   3.450   8.899  0.00  0.00    +0.000 C 
ATOM     10  N   UNL     1      45.229   3.168  10.224  0.00  0.00    +0.000 N 
ATOM     11  H   UNL     1      46.049   2.651  10.509  0.00  0.00    +0.000 HD
BRANCH   9  12
ATOM     12  C   UNL     1      45.923   2.759   7.989  0.00  0.00    +0.000 A 
ATOM     13  C   UNL     1      46.578   3.169   6.837  0.00  0.00    +0.000 A 
ATOM     14  C   UNL     1      47.334   2.078   6.344  0.00  0.00    +0.000 A 
ATOM     15  C   UNL     1      47.135   1.024   7.203  0.00  0.00    +0.000 A 
ATOM     16  N   UNL     1      46.294   1.446   8.198  0.00  0.00    +0.000 N 
ATOM     17  H   UNL     1      45.976   0.892   8.984  0.00  0.00    +0.000 HD
ENDBRANCH   9  12
ENDBRANCH   7  10
ENDBRANCH   1   7
BRANCH   4  18
ATOM     18  C   UNL     1      46.560   8.868  13.054  0.00  0.00    +0.000 C 
BRANCH  18  19
ATOM     19  N   UNL     1      46.909   8.791  14.450  0.00  0.00    +0.000 N 
ATOM     20  C   UNL     1      48.220   8.873  14.852  0.00  0.00    +0.000 C 
ATOM     21  O   UNL     1      49.132   9.065  14.052  0.00  0.00    +0.000 OA
ATOM     22  H   UNL     1      46.220   8.393  15.082  0.00  0.00    +0.000 HD
BRANCH  20  23
ATOM     23  C   UNL     1      48.474   8.784  16.295  0.00  0.00    +0.000 A 
ATOM     24  C   UNL     1      48.380   9.924  17.081  0.00  0.00    +0.000 A 
ATOM     25  S   UNL     1      48.654   9.638  18.740  0.00  0.00    +0.000 S 
ATOM     26  C   UNL     1      48.965   7.989  18.460  0.00  0.00    +0.000 A 
ATOM     27  N   UNL     1      49.303   7.157  19.481  0.00  0.00    +0.000 NA
ATOM     28  C   UNL     1      49.550   5.942  19.119  0.00  0.00    +0.000 A 
ATOM     29  N   UNL     1      49.481   5.482  17.830  0.00  0.00    +0.000 N 
ATOM     30  C   UNL     1      49.106   6.276  16.772  0.00  0.00    +0.000 A 
ATOM     31  O   UNL     1      48.999   5.821  15.637  0.00  0.00    +0.000 OA
ATOM     32  C   UNL     1      48.839   7.658  17.122  0.00  0.00    +0.000 A 
ATOM     33  H   UNL     1      49.675   4.515  17.616  0.00  0.00    +0.000 HD
ENDBRANCH  20  23
ENDBRANCH  18  19
ENDBRANCH   4  18
TORSDOF 6
ENDMDL
MODEL 4
REMARK VINA RESULT:    -7.246      2.195      2.578
REMARK INTER + INTRA:         -10.856
REMARK INTER:                  -9.927
REMARK INTRA:                  -0.928
REMARK UNBOUND:                -1.068
REMARK  Name = 
REMARK  6 active torsions:
REMARK  status: ('A' for Active; 'I' for Inactive)
REMARK    1  A    between atoms: C_2  and  C_25
REMARK    2  A    between atoms: N_3  and  C_4
REMARK    3  A    between atoms: C_4  and  C_5
REMARK    4  A    between atoms: C_8  and  C_9
REMARK    5  A    between atoms: C_9  and  N_10
REMARK    6  A    between atoms: C_11  and  C_13
REMARK                            x       y       z     vdW  Elec       q    Type
REMARK                         _______ _______ _______ _____ _____    ______ ____
ROOT
ATOM      1  C   UNL     1      45.238   5.649  11.463  0.00  0.00    +0.000 A 
ATOM      2  C   UNL     1      45.280   7.037  11.370  0.00  0.00    +0.000 A 
ATOM      3  C   UNL     1      46.166   7.744  12.180  0.00  0.00    +0.000 A 
ATOM      4  C   UNL     1      46.991   7.058  13.071  0.00  0.00    +0.000 A 
ATOM      5  C   UNL     1      46.916   5.670  13.064  0.00  0.00    +0.000 A 
ATOM      6  N   UNL     1      46.067   4.953  12.286  0.00  0.00    +0.000 NA
ENDROOT
BRANCH   1   7
ATOM      7  C   UNL     1      44.252   4.861  10.631  0.00  0.00    +0.000 C 
BRANCH   7  10
ATOM      8  O   UNL     1      45.761   5.074   8.260  0.00  0.00    +0.000 OA
ATOM      9  C   UNL     1      45.601   3.966   8.767  0.00  0.00    +0.000 C 
ATOM     10  N   UNL     1      44.874   3.771   9.910  0.00  0.00    +0.000 N 
ATOM     11  H   UNL     1      44.912   2.878  10.380  0.00  0.00    +0.000 HD
BRANCH   9  12
ATOM     12  C   UNL     1      46.181   2.768   8.199  0.00  0.00    +0.000 A 
ATOM     13  C   UNL     1      45.911   1.421   8.393  0.00  0.00    +0.000 A 
ATOM     14  C   UNL     1      46.781   0.670   7.567  0.00  0.00    +0.000 A 
ATOM     15  C   UNL     1      47.563   1.567   6.878  0.00  0.00    +0.000 A 
ATOM     16  N   UNL     1      47.187   2.828   7.255  0.00  0.00    +0.000 N 
ATOM     17  H   UNL     1      47.576   3.696   6.906  0.00  0.00    +0.000 HD
ENDBRANCH   9  12
ENDBRANCH   7  10
ENDBRANCH   1   7
BRANCH   4  18
ATOM     18  C   UNL     1      47.933   7.786  13.984  0.00  0.00    +0.000 C 
BRANCH  18  19
ATOM     19  N   UNL     1      47.903   7.254  15.323  0.00  0.00    +0.000 N 
ATOM     20  C   UNL     1      49.024   6.689  15.879  0.00  0.00    +0.000 C 
ATOM     21  O   UNL     1      50.098   6.659  15.284  0.00  0.00    +0.000 OA
ATOM     22  H   UNL     1      46.993   7.047  15.723  0.00  0.00    +0.000 HD
BRANCH  20  23
ATOM     23  C   UNL     1      48.895   6.175  17.248  0.00  0.00    +0.000 A 
ATOM     24  C   UNL     1      49.259   4.865  17.528  0.00  0.00    +0.000 A 
ATOM     25  S   UNL     1      49.097   4.443  19.173  0.00  0.00    +0.000 S 
ATOM     26  C   UNL     1      48.481   5.981  19.561  0.00  0.00    +0.000 A 
ATOM     27  N   UNL     1      48.102   6.282  20.832  0.00  0.00    +0.000 NA
ATOM     28  C   UNL     1      47.617   7.470  20.976  0.00  0.00    +0.000 A 
ATOM     29  N   UNL     1      47.483   8.387  19.966  0.00  0.00    +0.000 N 
ATOM     30  C   UNL     1      47.888   8.141  18.675  0.00  0.00    +0.000 A 
ATOM     31  O   UNL     1      47.807   9.002  17.805  0.00  0.00    +0.000 OA
ATOM     32  C   UNL     1      48.421   6.811  18.455  0.00  0.00    +0.000 A 
ATOM     33  H   UNL     1      47.106   9.305  20.148  0.00  0.00    +0.000 HD
ENDBRANCH  20  23
ENDBRANCH  18  19
ENDBRANCH   4  18
TORSDOF 6
ENDMDL
MODEL 5
REMARK VINA RESULT:    -6.942      3.826      8.356
REMARK INTER + INTRA:         -10.445
REMARK INTER:                  -9.427
REMARK INTRA:                  -1.018
REMARK UNBOUND:                -1.068
REMARK  Name = 
REMARK  6 active torsions:
REMARK  status: ('A' for Active; 'I' for Inactive)
REMARK    1  A    between atoms: C_2  and  C_25
REMARK    2  A    between atoms: N_3  and  C_4
REMARK    3  A    between atoms: C_4  and  C_5
REMARK    4  A    between atoms: C_8  and  C_9
REMARK    5  A    between atoms: C_9  and  N_10
REMARK    6  A    between atoms: C_11  and  C_13
REMARK                            x       y       z     vdW  Elec       q    Type
REMARK                         _______ _______ _______ _____ _____    ______ ____
ROOT
ATOM      1  C   UNL     1      49.766   4.740  17.623  0.00  0.00    +0.000 A 
ATOM      2  C   UNL     1      50.608   5.755  17.177  0.00  0.00    +0.000 A 
ATOM      3  C   UNL     1      50.184   6.579  16.138  0.00  0.00    +0.000 A 
ATOM      4  C   UNL     1      48.932   6.375  15.557  0.00  0.00    +0.000 A 
ATOM      5  C   UNL     1      48.139   5.369  16.096  0.00  0.00    +0.000 A 
ATOM      6  N   UNL     1      48.522   4.553  17.109  0.00  0.00    +0.000 NA
ENDROOT
BRANCH   1   7
ATOM      7  C   UNL     1      50.223   3.801  18.717  0.00  0.00    +0.000 C 
BRANCH   7  10
ATOM      8  O   UNL     1      50.571   1.437  17.223  0.00  0.00    +0.000 OA
ATOM      9  C   UNL     1      51.561   2.012  17.667  0.00  0.00    +0.000 C 
ATOM     10  N   UNL     1      51.483   3.158  18.411  0.00  0.00    +0.000 N 
ATOM     11  H   UNL     1      52.322   3.684  18.608  0.00  0.00    +0.000 HD
BRANCH   9  12
ATOM     12  C   UNL     1      52.905   1.528  17.428  0.00  0.00    +0.000 A 
ATOM     13  C   UNL     1      54.144   2.146  17.508  0.00  0.00    +0.000 A 
ATOM     14  C   UNL     1      55.138   1.194  17.175  0.00  0.00    +0.000 A 
ATOM     15  C   UNL     1      54.492   0.011  16.905  0.00  0.00    +0.000 A 
ATOM     16  N   UNL     1      53.149   0.217  17.072  0.00  0.00    +0.000 N 
ATOM     17  H   UNL     1      52.420  -0.477  16.956  0.00  0.00    +0.000 HD
ENDBRANCH   9  12
ENDBRANCH   7  10
ENDBRANCH   1   7
BRANCH   4  18
ATOM     18  C   UNL     1      48.454   7.220  14.413  0.00  0.00    +0.000 C 
BRANCH  18  19
ATOM     19  N   UNL     1      47.190   6.760  13.896  0.00  0.00    +0.000 N 
ATOM     20  C   UNL     1      46.947   6.743  12.545  0.00  0.00    +0.000 C 
ATOM     21  O   UNL     1      47.806   7.068  11.728  0.00  0.00    +0.000 OA
ATOM     22  H   UNL     1      46.405   6.728  14.541  0.00  0.00    +0.000 HD
BRANCH  20  23
ATOM     23  C   UNL     1      45.630   6.258  12.116  0.00  0.00    +0.000 A 
ATOM     24  C   UNL     1      44.711   7.148  11.578  0.00  0.00    +0.000 A 
ATOM     25  S   UNL     1      43.253   6.415  11.083  0.00  0.00    +0.000 S 
ATOM     26  C   UNL     1      43.775   4.888  11.623  0.00  0.00    +0.000 A 
ATOM     27  N   UNL     1      42.969   3.798  11.522  0.00  0.00    +0.000 NA
ATOM     28  C   UNL     1      43.478   2.713  12.006  0.00  0.00    +0.000 A 
ATOM     29  N   UNL     1      44.722   2.619  12.574  0.00  0.00    +0.000 N 
ATOM     30  C   UNL     1      45.585   3.685  12.662  0.00  0.00    +0.000 A 
ATOM     31  O   UNL     1      46.714   3.557  13.125  0.00  0.00    +0.000 OA
ATOM     32  C   UNL     1      45.054   4.935  12.152  0.00  0.00    +0.000 A 
ATOM     33  H   UNL     1      45.065   1.737  12.923  0.00  0.00    +0.000 HD
ENDBRANCH  20  23
ENDBRANCH  18  19
ENDBRANCH   4  18
TORSDOF 6
ENDMDL
MODEL 6
REMARK VINA RESULT:    -6.780      3.196      8.598
REMARK INTER + INTRA:         -10.226
REMARK INTER:                  -9.315
REMARK INTRA:                  -0.911
REMARK UNBOUND:                -1.068
REMARK  Name = 
REMARK  6 active torsions:
REMARK  status: ('A' for Active; 'I' for Inactive)
REMARK    1  A    between atoms: C_2  and  C_25
REMARK    2  A    between atoms: N_3  and  C_4
REMARK    3  A    between atoms: C_4  and  C_5
REMARK    4  A    between atoms: C_8  and  C_9
REMARK    5  A    between atoms: C_9  and  N_10
REMARK    6  A    between atoms: C_11  and  C_13
REMARK                            x       y       z     vdW  Elec       q    Type
REMARK                         _______ _______ _______ _____ _____    ______ ____
ROOT
ATOM      1  C   UNL     1      49.740   7.078  15.731  0.00  0.00    +0.000 A 
ATOM      2  C   UNL     1      50.005   8.170  14.909  0.00  0.00    +0.000 A 
ATOM      3  C   UNL     1      49.253   8.343  13.750  0.00  0.00    +0.000 A 
ATOM      4  C   UNL     1      48.255   7.425  13.426  0.00  0.00    +0.000 A 
ATOM      5  C   UNL     1      48.028   6.391  14.326  0.00  0.00    +0.000 A 
ATOM      6  N   UNL     1      48.740   6.197  15.464  0.00  0.00    +0.000 NA
ENDROOT
BRANCH   1   7
ATOM      7  C   UNL     1      50.575   6.840  16.970  0.00  0.00    +0.000 C 
BRANCH   7  10
ATOM      8  O   UNL     1      50.283   4.963  19.051  0.00  0.00    +0.000 OA
ATOM      9  C   UNL     1      50.944   4.657  18.062  0.00  0.00    +0.000 C 
ATOM     10  N   UNL     1      51.146   5.510  17.011  0.00  0.00    +0.000 N 
ATOM     11  H   UNL     1      51.547   5.161  16.153  0.00  0.00    +0.000 HD
BRANCH   9  12
ATOM     12  C   UNL     1      51.560   3.355  17.919  0.00  0.00    +0.000 A 
ATOM     13  C   UNL     1      52.854   2.909  18.141  0.00  0.00    +0.000 A 
ATOM     14  C   UNL     1      52.903   1.524  17.848  0.00  0.00    +0.000 A 
ATOM     15  C   UNL     1      51.640   1.146  17.458  0.00  0.00    +0.000 A 
ATOM     16  N   UNL     1      50.834   2.251  17.516  0.00  0.00    +0.000 N 
ATOM     17  H   UNL     1      49.845   2.280  17.299  0.00  0.00    +0.000 HD
ENDBRANCH   9  12
ENDBRANCH   7  10
ENDBRANCH   1   7
BRANCH   4  18
ATOM     18  C   UNL     1      47.447   7.559  12.169  0.00  0.00    +0.000 C 
BRANCH  18  19
ATOM     19  N   UNL     1      46.791   6.325  11.817  0.00  0.00    +0.000 N 
ATOM     20  C   UNL     1      45.421   6.232  11.817  0.00  0.00    +0.000 C 
ATOM     21  O   UNL     1      44.707   7.200  12.064  0.00  0.00    +0.000 OA
ATOM     22  H   UNL     1      47.345   5.474  11.854  0.00  0.00    +0.000 HD
BRANCH  20  23
ATOM     23  C   UNL     1      44.846   4.934  11.444  0.00  0.00    +0.000 A 
ATOM     24  C   UNL     1      44.102   4.220  12.374  0.00  0.00    +0.000 A 
ATOM     25  S   UNL     1      43.464   2.760  11.766  0.00  0.00    +0.000 S 
ATOM     26  C   UNL     1      44.206   3.002  10.254  0.00  0.00    +0.000 A 
ATOM     27  N   UNL     1      44.083   2.083   9.260  0.00  0.00    +0.000 NA
ATOM     28  C   UNL     1      44.730   2.376   8.181  0.00  0.00    +0.000 A 
ATOM     29  N   UNL     1      45.482   3.509   8.004  0.00  0.00    +0.000 N 
ATOM     30  C   UNL     1      45.603   4.483   8.966  0.00  0.00    +0.000 A 
ATOM     31  O   UNL     1      46.237   5.512   8.758  0.00  0.00    +0.000 OA
ATOM     32  C   UNL     1      44.912   4.192  10.208  0.00  0.00    +0.000 A 
ATOM     33  H   UNL     1      45.954   3.684   7.129  0.00  0.00    +0.000 HD
ENDBRANCH  20  23
ENDBRANCH  18  19
ENDBRANCH   4  18
TORSDOF 6
ENDMDL
MODEL 7
REMARK VINA RESULT:    -6.631      3.536      8.249
REMARK INTER + INTRA:         -10.024
REMARK INTER:                  -9.229
REMARK INTRA:                  -0.795
REMARK UNBOUND:                -1.068
REMARK  Name = 
REMARK  6 active torsions:
REMARK  status: ('A' for Active; 'I' for Inactive)
REMARK    1  A    between atoms: C_2  and  C_25
REMARK    2  A    between atoms: N_3  and  C_4
REMARK    3  A    between atoms: C_4  and  C_5
REMARK    4  A    between atoms: C_8  and  C_9
REMARK    5  A    between atoms: C_9  and  N_10
REMARK    6  A    between atoms: C_11  and  C_13
REMARK                            x       y       z     vdW  Elec       q    Type
REMARK                         _______ _______ _______ _____ _____    ______ ____
ROOT
ATOM      1  C   UNL     1      49.669   7.188  15.937  0.00  0.00    +0.000 A 
ATOM      2  C   UNL     1      49.861   8.473  15.437  0.00  0.00    +0.000 A 
ATOM      3  C   UNL     1      49.358   8.792  14.178  0.00  0.00    +0.000 A 
ATOM      4  C   UNL     1      48.676   7.826  13.437  0.00  0.00    +0.000 A 
ATOM      5  C   UNL     1      48.490   6.584  14.033  0.00  0.00    +0.000 A 
ATOM      6  N   UNL     1      48.965   6.244  15.257  0.00  0.00    +0.000 NA
ENDROOT
BRANCH   1   7
ATOM      7  C   UNL     1      50.248   6.801  17.279  0.00  0.00    +0.000 C 
BRANCH   7  10
ATOM      8  O   UNL     1      50.054   4.793  19.248  0.00  0.00    +0.000 OA
ATOM      9  C   UNL     1      50.744   4.587  18.252  0.00  0.00    +0.000 C 
ATOM     10  N   UNL     1      50.902   5.510  17.254  0.00  0.00    +0.000 N 
ATOM     11  H   UNL     1      51.334   5.236  16.384  0.00  0.00    +0.000 HD
BRANCH   9  12
ATOM     12  C   UNL     1      51.443   3.337  18.045  0.00  0.00    +0.000 A 
ATOM     13  C   UNL     1      52.776   2.981  18.192  0.00  0.00    +0.000 A 
ATOM     14  C   UNL     1      52.909   1.610  17.860  0.00  0.00    +0.000 A 
ATOM     15  C   UNL     1      51.657   1.150  17.524  0.00  0.00    +0.000 A 
ATOM     16  N   UNL     1      50.779   2.192  17.650  0.00  0.00    +0.000 N 
ATOM     17  H   UNL     1      49.780   2.154  17.483  0.00  0.00    +0.000 HD
ENDBRANCH   9  12
ENDBRANCH   7  10
ENDBRANCH   1   7
BRANCH   4  18
ATOM     18  C   UNL     1      48.149   8.122  12.064  0.00  0.00    +0.000 C 
BRANCH  18  19
ATOM     19  N   UNL     1      47.495   6.978  11.481  0.00  0.00    +0.000 N 
ATOM     20  C   UNL     1      46.127   6.928  11.379  0.00  0.00    +0.000 C 
ATOM     21  O   UNL     1      45.416   7.866  11.729  0.00  0.00    +0.000 OA
ATOM     22  H   UNL     1      48.029   6.116  11.419  0.00  0.00    +0.000 HD
BRANCH  20  23
ATOM     23  C   UNL     1      45.553   5.721  10.770  0.00  0.00    +0.000 A 
ATOM     24  C   UNL     1      45.719   5.491   9.411  0.00  0.00    +0.000 A 
ATOM     25  S   UNL     1      45.039   4.022   8.876  0.00  0.00    +0.000 S 
ATOM     26  C   UNL     1      44.449   3.666  10.431  0.00  0.00    +0.000 A 
ATOM     27  N   UNL     1      43.728   2.537  10.664  0.00  0.00    +0.000 NA
ATOM     28  C   UNL     1      43.310   2.413  11.880  0.00  0.00    +0.000 A 
ATOM     29  N   UNL     1      43.554   3.312  12.885  0.00  0.00    +0.000 N 
ATOM     30  C   UNL     1      44.310   4.446  12.706  0.00  0.00    +0.000 A 
ATOM     31  O   UNL     1      44.558   5.204  13.639  0.00  0.00    +0.000 OA
ATOM     32  C   UNL     1      44.786   4.644  11.350  0.00  0.00    +0.000 A 
ATOM     33  H   UNL     1      43.208   3.150  13.819  0.00  0.00    +0.000 HD
ENDBRANCH  20  23
ENDBRANCH  18  19
ENDBRANCH   4  18
TORSDOF 6
ENDMDL
MODEL 8
REMARK VINA RESULT:    -6.453      5.610      8.093
REMARK INTER + INTRA:          -9.784
REMARK INTER:                  -8.850
REMARK INTRA:                  -0.935
REMARK UNBOUND:                -1.068
REMARK  Name = 
REMARK  6 active torsions:
REMARK  status: ('A' for Active; 'I' for Inactive)
REMARK    1  A    between atoms: C_2  and  C_25
REMARK    2  A    between atoms: N_3  and  C_4
REMARK    3  A    between atoms: C_4  and  C_5
REMARK    4  A    between atoms: C_8  and  C_9
REMARK    5  A    between atoms: C_9  and  N_10
REMARK    6  A    between atoms: C_11  and  C_13
REMARK                            x       y       z     vdW  Elec       q    Type
REMARK                         _______ _______ _______ _____ _____    ______ ____
ROOT
ATOM      1  C   UNL     1      48.864   6.826  13.813  0.00  0.00    +0.000 A 
ATOM      2  C   UNL     1      48.649   6.951  12.443  0.00  0.00    +0.000 A 
ATOM      3  C   UNL     1      49.546   7.698  11.682  0.00  0.00    +0.000 A 
ATOM      4  C   UNL     1      50.637   8.311  12.298  0.00  0.00    +0.000 A 
ATOM      5  C   UNL     1      50.800   8.095  13.661  0.00  0.00    +0.000 A 
ATOM      6  N   UNL     1      49.947   7.371  14.428  0.00  0.00    +0.000 NA
ENDROOT
BRANCH   1   7
ATOM      7  C   UNL     1      47.880   6.062  14.669  0.00  0.00    +0.000 C 
BRANCH   7  10
ATOM      8  O   UNL     1      47.197   3.425  13.946  0.00  0.00    +0.000 OA
ATOM      9  C   UNL     1      46.442   4.342  13.634  0.00  0.00    +0.000 C 
ATOM     10  N   UNL     1      46.701   5.652  13.935  0.00  0.00    +0.000 N 
ATOM     11  H   UNL     1      45.978   6.346  13.811  0.00  0.00    +0.000 HD
BRANCH   9  12
ATOM     12  C   UNL     1      45.201   4.112  12.926  0.00  0.00    +0.000 A 
ATOM     13  C   UNL     1      44.195   4.970  12.508  0.00  0.00    +0.000 A 
ATOM     14  C   UNL     1      43.205   4.205  11.845  0.00  0.00    +0.000 A 
ATOM     15  C   UNL     1      43.624   2.896  11.861  0.00  0.00    +0.000 A 
ATOM     16  N   UNL     1      44.832   2.850  12.502  0.00  0.00    +0.000 N 
ATOM     17  H   UNL     1      45.395   2.022  12.657  0.00  0.00    +0.000 HD
ENDBRANCH   9  12
ENDBRANCH   7  10
ENDBRANCH   1   7
BRANCH   4  18
ATOM     18  C   UNL     1      51.605   9.151  11.518  0.00  0.00    +0.000 C 
BRANCH  18  19
ATOM     19  N   UNL     1      51.901   8.574  10.231  0.00  0.00    +0.000 N 
ATOM     20  C   UNL     1      52.999   8.983   9.514  0.00  0.00    +0.000 C 
ATOM     21  O   UNL     1      53.791   9.811   9.957  0.00  0.00    +0.000 OA
ATOM     22  H   UNL     1      51.148   8.090   9.752  0.00  0.00    +0.000 HD
BRANCH  20  23
ATOM     23  C   UNL     1      53.217   8.337   8.213  0.00  0.00    +0.000 A 
ATOM     24  C   UNL     1      53.220   9.105   7.057  0.00  0.00    +0.000 A 
ATOM     25  S   UNL     1      53.538   8.210   5.640  0.00  0.00    +0.000 S 
ATOM     26  C   UNL     1      53.627   6.754   6.516  0.00  0.00    +0.000 A 
ATOM     27  N   UNL     1      53.849   5.571   5.884  0.00  0.00    +0.000 NA
ATOM     28  C   UNL     1      53.853   4.542   6.665  0.00  0.00    +0.000 A 
ATOM     29  N   UNL     1      53.662   4.591   8.022  0.00  0.00    +0.000 N 
ATOM     30  C   UNL     1      53.473   5.767   8.708  0.00  0.00    +0.000 A 
ATOM     31  O   UNL     1      53.361   5.784   9.930  0.00  0.00    +0.000 OA
ATOM     32  C   UNL     1      53.439   6.952   7.873  0.00  0.00    +0.000 A 
ATOM     33  H   UNL     1      53.689   3.749   8.578  0.00  0.00    +0.000 HD
ENDBRANCH  20  23
ENDBRANCH  18  19
ENDBRANCH   4  18
TORSDOF 6
ENDMDL
MODEL 9
REMARK VINA RESULT:    -6.350      1.839      2.463
REMARK INTER + INTRA:          -9.645
REMARK INTER:                  -8.749
REMARK INTRA:                  -0.896
REMARK UNBOUND:                -1.068
REMARK  Name = 
REMARK  6 active torsions:
REMARK  status: ('A' for Active; 'I' for Inactive)
REMARK    1  A    between atoms: C_2  and  C_25
REMARK    2  A    between atoms: N_3  and  C_4
REMARK    3  A    between atoms: C_4  and  C_5
REMARK    4  A    between atoms: C_8  and  C_9
REMARK    5  A    between atoms: C_9  and  N_10
REMARK    6  A    between atoms: C_11  and  C_13
REMARK                            x       y       z     vdW  Elec       q    Type
REMARK                         _______ _______ _______ _____ _____    ______ ____
ROOT
ATOM      1  C   UNL     1      45.859   7.624  12.169  0.00  0.00    +0.000 A 
ATOM      2  C   UNL     1      46.078   8.983  12.376  0.00  0.00    +0.000 A 
ATOM      3  C   UNL     1      47.185   9.386  13.119  0.00  0.00    +0.000 A 
ATOM      4  C   UNL     1      48.052   8.429  13.648  0.00  0.00    +0.000 A 
ATOM      5  C   UNL     1      47.782   7.098  13.353  0.00  0.00    +0.000 A 
ATOM      6  N   UNL     1      46.716   6.674  12.630  0.00  0.00    +0.000 NA
ENDROOT
BRANCH   1   7
ATOM      7  C   UNL     1      44.638   7.158  11.407  0.00  0.00    +0.000 C 
BRANCH   7  10
ATOM      8  O   UNL     1      44.055   4.432  11.818  0.00  0.00    +0.000 OA
ATOM      9  C   UNL     1      44.601   4.773  10.771  0.00  0.00    +0.000 C 
ATOM     10  N   UNL     1      44.930   6.073  10.495  0.00  0.00    +0.000 N 
ATOM     11  H   UNL     1      45.218   6.328   9.562  0.00  0.00    +0.000 HD
BRANCH   9  12
ATOM     12  C   UNL     1      44.934   3.824   9.731  0.00  0.00    +0.000 A 
ATOM     13  C   UNL     1      45.310   3.989   8.406  0.00  0.00    +0.000 A 
ATOM     14  C   UNL     1      45.528   2.709   7.842  0.00  0.00    +0.000 A 
ATOM     15  C   UNL     1      45.290   1.784   8.831  0.00  0.00    +0.000 A 
ATOM     16  N   UNL     1      44.945   2.463   9.968  0.00  0.00    +0.000 N 
ATOM     17  H   UNL     1      44.725   2.050  10.867  0.00  0.00    +0.000 HD
ENDBRANCH   9  12
ENDBRANCH   7  10
ENDBRANCH   1   7
BRANCH   4  18
ATOM     18  C   UNL     1      49.235   8.822  14.482  0.00  0.00    +0.000 C 
BRANCH  18  19
ATOM     19  N   UNL     1      49.337   8.026  15.679  0.00  0.00    +0.000 N 
ATOM     20  C   UNL     1      48.642   8.370  16.813  0.00  0.00    +0.000 C 
ATOM     21  O   UNL     1      47.876   9.329  16.837  0.00  0.00    +0.000 OA
ATOM     22  H   UNL     1      50.131   7.398  15.755  0.00  0.00    +0.000 HD
BRANCH  20  23
ATOM     23  C   UNL     1      48.812   7.497  17.981  0.00  0.00    +0.000 A 
ATOM     24  C   UNL     1      49.126   8.052  19.213  0.00  0.00    +0.000 A 
ATOM     25  S   UNL     1      49.236   6.908  20.474  0.00  0.00    +0.000 S 
ATOM     26  C   UNL     1      48.922   5.621  19.405  0.00  0.00    +0.000 A 
ATOM     27  N   UNL     1      48.904   4.335  19.846  0.00  0.00    +0.000 NA
ATOM     28  C   UNL     1      48.692   3.458  18.922  0.00  0.00    +0.000 A 
ATOM     29  N   UNL     1      48.488   3.752  17.598  0.00  0.00    +0.000 N 
ATOM     30  C   UNL     1      48.459   5.039  17.114  0.00  0.00    +0.000 A 
ATOM     31  O   UNL     1      48.219   5.273  15.934  0.00  0.00    +0.000 OA
ATOM     32  C   UNL     1      48.714   6.062  18.110  0.00  0.00    +0.000 A 
ATOM     33  H   UNL     1      48.316   3.019  16.927  0.00  0.00    +0.000 HD
ENDBRANCH  20  23
ENDBRANCH  18  19
ENDBRANCH   4  18
TORSDOF 6
ENDMDL
