MODEL 1
REMARK VINA RESULT:    -8.733      0.000      0.000
REMARK INTER + INTRA:         -10.577
REMARK INTER:                 -10.775
REMARK INTRA:                   0.198
REMARK UNBOUND:                 0.198
REMARK  Name = 
REMARK  6 active torsions:
REMARK  status: ('A' for Active; 'I' for Inactive)
REMARK    1  A    between atoms: C_1  and  O_2
REMARK    2  A    between atoms: O_2  and  C_3
REMARK    3  A    between atoms: C_5  and  C_6
REMARK    4  A    between atoms: C_6  and  N_7
REMARK    5  A    between atoms: C_11  and  C_12
REMARK    6  A    between atoms: C_21  and  C_22
REMARK                            x       y       z     vdW  Elec       q    Type
REMARK                         _______ _______ _______ _____ _____    ______ ____
ROOT
ATOM      1  N   UNL     1      43.927   5.141   9.819  0.00  0.00    +0.000 N 
ATOM      2  C   UNL     1      44.689   4.114   9.239  0.00  0.00    +0.000 A 
ATOM      3  C   UNL     1      44.915   2.890   9.862  0.00  0.00    +0.000 A 
ATOM      4  C   UNL     1      45.674   1.906   9.219  0.00  0.00    +0.000 A 
ATOM      5  C   UNL     1      46.197   2.147   7.954  0.00  0.00    +0.000 A 
ATOM      6  C   UNL     1      45.912   3.385   7.393  0.00  0.00    +0.000 A 
ATOM      7  N   UNL     1      45.179   4.362   8.002  0.00  0.00    +0.000 NA
ATOM      8  H   UNL     1      44.027   5.970   9.242  0.00  0.00    +0.000 HD
ENDROOT
BRANCH   5   9
ATOM      9  C   UNL     1      47.012   1.090   7.310  0.00  0.00    +0.000 C 
ATOM     10  N   UNL     1      46.796  -0.223   7.644  0.00  0.00    +0.000 N 
ATOM     11  O   UNL     1      47.875   1.363   6.481  0.00  0.00    +0.000 OA
ATOM     12  H   UNL     1      46.139  -0.554   8.336  0.00  0.00    +0.000 HD
ATOM     13  H   UNL     1      47.387  -0.902   7.184  0.00  0.00    +0.000 HD
ENDBRANCH   5   9
BRANCH   1  14
ATOM     14  C   UNL     1      43.769   5.293  11.286  0.00  0.00    +0.000 C 
ATOM     15  C   UNL     1      42.337   5.476  11.749  0.00  0.00    +0.000 C 
ATOM     16  C   UNL     1      43.064   4.226  12.116  0.00  0.00    +0.000 C 
BRANCH  14  19
ATOM     17  C   UNL     1      46.982   5.399  13.388  0.00  0.00    +0.000 A 
ATOM     18  C   UNL     1      45.739   5.033  12.869  0.00  0.00    +0.000 A 
ATOM     19  C   UNL     1      45.013   5.861  11.984  0.00  0.00    +0.000 A 
ATOM     20  C   UNL     1      45.530   7.143  11.747  0.00  0.00    +0.000 A 
ATOM     21  C   UNL     1      46.780   7.521  12.251  0.00  0.00    +0.000 A 
ATOM     22  C   UNL     1      47.542   6.628  13.014  0.00  0.00    +0.000 A 
ATOM     23  C   UNL     1      48.959   6.964  13.387  0.00  0.00    +0.000 C 
BRANCH  17  25
ATOM     24  C   UNL     1      47.220   4.352  15.517  0.00  0.00    +0.000 C 
ATOM     25  O   UNL     1      47.743   4.624  14.224  0.00  0.00    +0.000 OA
ENDBRANCH  17  25
ENDBRANCH  14  19
ENDBRANCH   1  14
TORSDOF 4
ENDMDL
MODEL 2
REMARK VINA RESULT:    -8.655      1.302      1.998
REMARK INTER + INTRA:         -10.481
REMARK INTER:                 -10.466
REMARK INTRA:                  -0.015
REMARK UNBOUND:                 0.198
REMARK  Name = 
REMARK  6 active torsions:
REMARK  status: ('A' for Active; 'I' for Inactive)
REMARK    1  A    between atoms: C_1  and  O_2
REMARK    2  A    between atoms: O_2  and  C_3
REMARK    3  A    between atoms: C_5  and  C_6
REMARK    4  A    between atoms: C_6  and  N_7
REMARK    5  A    between atoms: C_11  and  C_12
REMARK    6  A    between atoms: C_21  and  C_22
REMARK                            x       y       z     vdW  Elec       q    Type
REMARK                         _______ _______ _______ _____ _____    ______ ____
ROOT
ATOM      1  N   UNL     1      44.286   5.147   9.857  0.00  0.00    +0.000 N 
ATOM      2  C   UNL     1      45.021   4.204   9.119  0.00  0.00    +0.000 A 
ATOM      3  C   UNL     1      45.103   2.861   9.471  0.00  0.00    +0.000 A 
ATOM      4  C   UNL     1      45.844   1.973   8.682  0.00  0.00    +0.000 A 
ATOM      5  C   UNL     1      46.492   2.433   7.541  0.00  0.00    +0.000 A 
ATOM      6  C   UNL     1      46.346   3.782   7.248  0.00  0.00    +0.000 A 
ATOM      7  N   UNL     1      45.634   4.667   8.004  0.00  0.00    +0.000 NA
ATOM      8  H   UNL     1      44.495   6.068   9.485  0.00  0.00    +0.000 HD
ENDROOT
BRANCH   5   9
ATOM      9  C   UNL     1      47.283   1.470   6.739  0.00  0.00    +0.000 C 
ATOM     10  N   UNL     1      48.252   1.940   5.888  0.00  0.00    +0.000 N 
ATOM     11  O   UNL     1      47.093   0.260   6.820  0.00  0.00    +0.000 OA
ATOM     12  H   UNL     1      48.465   2.912   5.719  0.00  0.00    +0.000 HD
ATOM     13  H   UNL     1      48.754   1.242   5.356  0.00  0.00    +0.000 HD
ENDBRANCH   5   9
BRANCH   1  14
ATOM     14  C   UNL     1      44.010   4.995  11.305  0.00  0.00    +0.000 C 
ATOM     15  C   UNL     1      42.598   5.360  11.720  0.00  0.00    +0.000 C 
ATOM     16  C   UNL     1      43.037   3.938  11.815  0.00  0.00    +0.000 C 
BRANCH  14  19
ATOM     17  C   UNL     1      46.976   6.615  13.133  0.00  0.00    +0.000 A 
ATOM     18  C   UNL     1      45.955   6.353  12.217  0.00  0.00    +0.000 A 
ATOM     19  C   UNL     1      45.262   5.122  12.187  0.00  0.00    +0.000 A 
ATOM     20  C   UNL     1      45.732   4.108  13.033  0.00  0.00    +0.000 A 
ATOM     21  C   UNL     1      46.747   4.358  13.965  0.00  0.00    +0.000 A 
ATOM     22  C   UNL     1      47.324   5.631  14.066  0.00  0.00    +0.000 A 
ATOM     23  C   UNL     1      48.269   5.948  15.191  0.00  0.00    +0.000 C 
BRANCH  17  25
ATOM     24  C   UNL     1      48.575   8.109  12.186  0.00  0.00    +0.000 C 
ATOM     25  O   UNL     1      47.660   7.799  13.228  0.00  0.00    +0.000 OA
ENDBRANCH  17  25
ENDBRANCH  14  19
ENDBRANCH   1  14
TORSDOF 4
ENDMDL
MODEL 3
REMARK VINA RESULT:    -7.346      2.065      2.838
REMARK INTER + INTRA:          -8.866
REMARK INTER:                  -8.504
REMARK INTRA:                  -0.363
REMARK UNBOUND:                 0.198
REMARK  Name = 
REMARK  6 active torsions:
REMARK  status: ('A' for Active; 'I' for Inactive)
REMARK    1  A    between atoms: C_1  and  O_2
REMARK    2  A    between atoms: O_2  and  C_3
REMARK    3  A    between atoms: C_5  and  C_6
REMARK    4  A    between atoms: C_6  and  N_7
REMARK    5  A    between atoms: C_11  and  C_12
REMARK    6  A    between atoms: C_21  and  C_22
REMARK                            x       y       z     vdW  Elec       q    Type
REMARK                         _______ _______ _______ _____ _____    ______ ____
ROOT
ATOM      1  N   UNL     1      44.599   3.742  11.208  0.00  0.00    +0.000 N 
ATOM      2  C   UNL     1      45.208   3.554   9.956  0.00  0.00    +0.000 A 
ATOM      3  C   UNL     1      45.849   4.575   9.262  0.00  0.00    +0.000 A 
ATOM      4  C   UNL     1      46.446   4.314   8.024  0.00  0.00    +0.000 A 
ATOM      5  C   UNL     1      46.406   3.031   7.490  0.00  0.00    +0.000 A 
ATOM      6  C   UNL     1      45.764   2.064   8.252  0.00  0.00    +0.000 A 
ATOM      7  N   UNL     1      45.171   2.296   9.459  0.00  0.00    +0.000 NA
ATOM      8  H   UNL     1      44.086   2.897  11.437  0.00  0.00    +0.000 HD
ENDROOT
BRANCH   5   9
ATOM      9  C   UNL     1      47.032   2.793   6.168  0.00  0.00    +0.000 C 
ATOM     10  N   UNL     1      48.373   2.510   6.101  0.00  0.00    +0.000 N 
ATOM     11  O   UNL     1      46.377   2.840   5.131  0.00  0.00    +0.000 OA
ATOM     12  H   UNL     1      49.009   2.482   6.884  0.00  0.00    +0.000 HD
ATOM     13  H   UNL     1      48.752   2.367   5.174  0.00  0.00    +0.000 HD
ENDBRANCH   5   9
BRANCH   1  14
ATOM     14  C   UNL     1      44.073   5.053  11.656  0.00  0.00    +0.000 C 
ATOM     15  C   UNL     1      42.727   5.429  11.067  0.00  0.00    +0.000 C 
ATOM     16  C   UNL     1      42.825   5.145  12.528  0.00  0.00    +0.000 C 
BRANCH  14  19
ATOM     17  C   UNL     1      45.814   8.398  12.395  0.00  0.00    +0.000 A 
ATOM     18  C   UNL     1      44.967   7.423  11.863  0.00  0.00    +0.000 A 
ATOM     19  C   UNL     1      45.168   6.042  12.084  0.00  0.00    +0.000 A 
ATOM     20  C   UNL     1      46.342   5.671  12.755  0.00  0.00    +0.000 A 
ATOM     21  C   UNL     1      47.195   6.636  13.304  0.00  0.00    +0.000 A 
ATOM     22  C   UNL     1      46.899   8.000  13.187  0.00  0.00    +0.000 A 
ATOM     23  C   UNL     1      47.706   9.020  13.940  0.00  0.00    +0.000 C 
BRANCH  17  25
ATOM     24  C   UNL     1      44.514  10.188  11.505  0.00  0.00    +0.000 C 
ATOM     25  O   UNL     1      45.650   9.749  12.239  0.00  0.00    +0.000 OA
ENDBRANCH  17  25
ENDBRANCH  14  19
ENDBRANCH   1  14
TORSDOF 4
ENDMDL
MODEL 4
REMARK VINA RESULT:    -6.946      2.428      6.511
REMARK INTER + INTRA:          -8.373
REMARK INTER:                  -8.736
REMARK INTRA:                   0.363
REMARK UNBOUND:                 0.198
REMARK  Name = 
REMARK  6 active torsions:
REMARK  status: ('A' for Active; 'I' for Inactive)
REMARK    1  A    between atoms: C_1  and  O_2
REMARK    2  A    between atoms: O_2  and  C_3
REMARK    3  A    between atoms: C_5  and  C_6
REMARK    4  A    between atoms: C_6  and  N_7
REMARK    5  A    between atoms: C_11  and  C_12
REMARK    6  A    between atoms: C_21  and  C_22
REMARK                            x       y       z     vdW  Elec       q    Type
REMARK                         _______ _______ _______ _____ _____    ______ ____
ROOT
ATOM      1  N   UNL     1      44.821   6.650  11.078  0.00  0.00    +0.000 N 
ATOM      2  C   UNL     1      45.965   6.866  11.864  0.00  0.00    +0.000 A 
ATOM      3  C   UNL     1      46.730   5.832  12.393  0.00  0.00    +0.000 A 
ATOM      4  C   UNL     1      47.866   6.120  13.158  0.00  0.00    +0.000 A 
ATOM      5  C   UNL     1      48.235   7.441  13.384  0.00  0.00    +0.000 A 
ATOM      6  C   UNL     1      47.430   8.415  12.807  0.00  0.00    +0.000 A 
ATOM      7  N   UNL     1      46.316   8.158  12.062  0.00  0.00    +0.000 NA
ATOM      8  H   UNL     1      44.366   7.545  10.935  0.00  0.00    +0.000 HD
ENDROOT
BRANCH   5   9
ATOM      9  C   UNL     1      49.432   7.712  14.213  0.00  0.00    +0.000 C 
ATOM     10  N   UNL     1      50.675   7.681  13.632  0.00  0.00    +0.000 N 
ATOM     11  O   UNL     1      49.338   7.965  15.411  0.00  0.00    +0.000 OA
ATOM     12  H   UNL     1      50.868   7.449  12.668  0.00  0.00    +0.000 HD
ATOM     13  H   UNL     1      51.458   7.861  14.245  0.00  0.00    +0.000 HD
ENDBRANCH   5   9
BRANCH   1  14
ATOM     14  C   UNL     1      43.994   5.424  11.183  0.00  0.00    +0.000 C 
ATOM     15  C   UNL     1      43.344   5.216  12.537  0.00  0.00    +0.000 C 
ATOM     16  C   UNL     1      42.482   5.507  11.355  0.00  0.00    +0.000 C 
BRANCH  14  19
ATOM     17  C   UNL     1      45.911   3.632   8.377  0.00  0.00    +0.000 A 
ATOM     18  C   UNL     1      45.323   4.617   9.173  0.00  0.00    +0.000 A 
ATOM     19  C   UNL     1      44.420   4.309  10.216  0.00  0.00    +0.000 A 
ATOM     20  C   UNL     1      44.026   2.969  10.340  0.00  0.00    +0.000 A 
ATOM     21  C   UNL     1      44.615   1.969   9.557  0.00  0.00    +0.000 A 
ATOM     22  C   UNL     1      45.609   2.286   8.623  0.00  0.00    +0.000 A 
ATOM     23  C   UNL     1      46.374   1.195   7.927  0.00  0.00    +0.000 C 
BRANCH  17  25
ATOM     24  C   UNL     1      46.493   3.384   6.078  0.00  0.00    +0.000 C 
ATOM     25  O   UNL     1      46.815   3.869   7.375  0.00  0.00    +0.000 OA
ENDBRANCH  17  25
ENDBRANCH  14  19
ENDBRANCH   1  14
TORSDOF 4
ENDMDL
MODEL 5
REMARK VINA RESULT:    -6.726      1.647      2.132
REMARK INTER + INTRA:          -8.101
REMARK INTER:                  -8.067
REMARK INTRA:                  -0.035
REMARK UNBOUND:                 0.198
REMARK  Name = 
REMARK  6 active torsions:
REMARK  status: ('A' for Active; 'I' for Inactive)
REMARK    1  A    between atoms: C_1  and  O_2
REMARK    2  A    between atoms: O_2  and  C_3
REMARK    3  A    between atoms: C_5  and  C_6
REMARK    4  A    between atoms: C_6  and  N_7
REMARK    5  A    between atoms: C_11  and  C_12
REMARK    6  A    between atoms: C_21  and  C_22
REMARK                            x       y       z     vdW  Elec       q    Type
REMARK                         _______ _______ _______ _____ _____    ______ ____
ROOT
ATOM      1  N   UNL     1      44.630   3.889  11.470  0.00  0.00    +0.000 N 
ATOM      2  C   UNL     1      45.152   3.642  10.189  0.00  0.00    +0.000 A 
ATOM      3  C   UNL     1      45.521   4.657   9.311  0.00  0.00    +0.000 A 
ATOM      4  C   UNL     1      46.047   4.339   8.054  0.00  0.00    +0.000 A 
ATOM      5  C   UNL     1      46.208   3.008   7.684  0.00  0.00    +0.000 A 
ATOM      6  C   UNL     1      45.833   2.056   8.623  0.00  0.00    +0.000 A 
ATOM      7  N   UNL     1      45.314   2.342   9.852  0.00  0.00    +0.000 NA
ATOM      8  H   UNL     1      44.312   3.005  11.854  0.00  0.00    +0.000 HD
ENDROOT
BRANCH   5   9
ATOM      9  C   UNL     1      46.750   2.707   6.338  0.00  0.00    +0.000 C 
ATOM     10  N   UNL     1      46.929   3.729   5.441  0.00  0.00    +0.000 N 
ATOM     11  O   UNL     1      47.045   1.562   6.009  0.00  0.00    +0.000 OA
ATOM     12  H   UNL     1      46.687   4.697   5.596  0.00  0.00    +0.000 HD
ATOM     13  H   UNL     1      47.290   3.467   4.534  0.00  0.00    +0.000 HD
ENDBRANCH   5   9
BRANCH   1  14
ATOM     14  C   UNL     1      43.903   5.134  11.815  0.00  0.00    +0.000 C 
ATOM     15  C   UNL     1      42.485   5.204  11.283  0.00  0.00    +0.000 C 
ATOM     16  C   UNL     1      42.703   5.109  12.756  0.00  0.00    +0.000 C 
BRANCH  14  19
ATOM     17  C   UNL     1      46.972   7.140  12.964  0.00  0.00    +0.000 A 
ATOM     18  C   UNL     1      45.984   6.159  12.853  0.00  0.00    +0.000 A 
ATOM     19  C   UNL     1      44.826   6.337  12.063  0.00  0.00    +0.000 A 
ATOM     20  C   UNL     1      44.635   7.603  11.493  0.00  0.00    +0.000 A 
ATOM     21  C   UNL     1      45.620   8.593  11.586  0.00  0.00    +0.000 A 
ATOM     22  C   UNL     1      46.822   8.342  12.261  0.00  0.00    +0.000 A 
ATOM     23  C   UNL     1      47.952   9.330  12.193  0.00  0.00    +0.000 C 
BRANCH  17  25
ATOM     24  C   UNL     1      49.333   6.808  12.964  0.00  0.00    +0.000 C 
ATOM     25  O   UNL     1      48.128   7.010  13.689  0.00  0.00    +0.000 OA
ENDBRANCH  17  25
ENDBRANCH  14  19
ENDBRANCH   1  14
TORSDOF 4
ENDMDL
MODEL 6
REMARK VINA RESULT:    -6.542      2.988      6.893
REMARK INTER + INTRA:          -7.874
REMARK INTER:                  -7.804
REMARK INTRA:                  -0.071
REMARK UNBOUND:                 0.198
REMARK  Name = 
REMARK  6 active torsions:
REMARK  status: ('A' for Active; 'I' for Inactive)
REMARK    1  A    between atoms: C_1  and  O_2
REMARK    2  A    between atoms: O_2  and  C_3
REMARK    3  A    between atoms: C_5  and  C_6
REMARK    4  A    between atoms: C_6  and  N_7
REMARK    5  A    between atoms: C_11  and  C_12
REMARK    6  A    between atoms: C_21  and  C_22
REMARK                            x       y       z     vdW  Elec       q    Type
REMARK                         _______ _______ _______ _____ _____    ______ ____
ROOT
ATOM      1  N   UNL     1      46.936   6.272  12.360  0.00  0.00    +0.000 N 
ATOM      2  C   UNL     1      47.239   5.761  13.633  0.00  0.00    +0.000 A 
ATOM      3  C   UNL     1      46.439   4.832  14.288  0.00  0.00    +0.000 A 
ATOM      4  C   UNL     1      46.808   4.355  15.552  0.00  0.00    +0.000 A 
ATOM      5  C   UNL     1      47.980   4.805  16.149  0.00  0.00    +0.000 A 
ATOM      6  C   UNL     1      48.733   5.718  15.422  0.00  0.00    +0.000 A 
ATOM      7  N   UNL     1      48.391   6.201  14.192  0.00  0.00    +0.000 NA
ATOM      8  H   UNL     1      47.586   7.027  12.163  0.00  0.00    +0.000 HD
ENDROOT
BRANCH   5   9
ATOM      9  C   UNL     1      48.332   4.294  17.494  0.00  0.00    +0.000 C 
ATOM     10  N   UNL     1      47.417   3.545  18.189  0.00  0.00    +0.000 N 
ATOM     11  O   UNL     1      49.426   4.525  18.001  0.00  0.00    +0.000 OA
ATOM     12  H   UNL     1      46.480   3.327  17.883  0.00  0.00    +0.000 HD
ATOM     13  H   UNL     1      47.703   3.231  19.107  0.00  0.00    +0.000 HD
ENDBRANCH   5   9
BRANCH   1  14
ATOM     14  C   UNL     1      45.552   6.350  11.834  0.00  0.00    +0.000 C 
ATOM     15  C   UNL     1      44.611   7.204  12.660  0.00  0.00    +0.000 C 
ATOM     16  C   UNL     1      44.989   7.659  11.291  0.00  0.00    +0.000 C 
BRANCH  14  19
ATOM     17  C   UNL     1      45.326   3.974   8.824  0.00  0.00    +0.000 A 
ATOM     18  C   UNL     1      45.479   5.114   9.615  0.00  0.00    +0.000 A 
ATOM     19  C   UNL     1      45.146   5.134  10.988  0.00  0.00    +0.000 A 
ATOM     20  C   UNL     1      44.521   3.991  11.506  0.00  0.00    +0.000 A 
ATOM     21  C   UNL     1      44.369   2.837  10.729  0.00  0.00    +0.000 A 
ATOM     22  C   UNL     1      44.834   2.800   9.408  0.00  0.00    +0.000 A 
ATOM     23  C   UNL     1      44.848   1.506   8.643  0.00  0.00    +0.000 C 
BRANCH  17  25
ATOM     24  C   UNL     1      47.014   3.588   7.185  0.00  0.00    +0.000 C 
ATOM     25  O   UNL     1      45.661   3.889   7.497  0.00  0.00    +0.000 OA
ENDBRANCH  17  25
ENDBRANCH  14  19
ENDBRANCH   1  14
TORSDOF 4
ENDMDL
MODEL 7
REMARK VINA RESULT:    -6.492      2.481      6.753
REMARK INTER + INTRA:          -7.813
REMARK INTER:                  -8.697
REMARK INTRA:                   0.884
REMARK UNBOUND:                 0.198
REMARK  Name = 
REMARK  6 active torsions:
REMARK  status: ('A' for Active; 'I' for Inactive)
REMARK    1  A    between atoms: C_1  and  O_2
REMARK    2  A    between atoms: O_2  and  C_3
REMARK    3  A    between atoms: C_5  and  C_6
REMARK    4  A    between atoms: C_6  and  N_7
REMARK    5  A    between atoms: C_11  and  C_12
REMARK    6  A    between atoms: C_21  and  C_22
REMARK                            x       y       z     vdW  Elec       q    Type
REMARK                         _______ _______ _______ _____ _____    ______ ____
ROOT
ATOM      1  N   UNL     1      44.307   5.965  11.127  0.00  0.00    +0.000 N 
ATOM      2  C   UNL     1      45.260   6.746  11.800  0.00  0.00    +0.000 A 
ATOM      3  C   UNL     1      46.582   6.348  11.975  0.00  0.00    +0.000 A 
ATOM      4  C   UNL     1      47.482   7.183  12.646  0.00  0.00    +0.000 A 
ATOM      5  C   UNL     1      47.058   8.415  13.132  0.00  0.00    +0.000 A 
ATOM      6  C   UNL     1      45.730   8.747  12.901  0.00  0.00    +0.000 A 
ATOM      7  N   UNL     1      44.833   7.948  12.254  0.00  0.00    +0.000 NA
ATOM      8  H   UNL     1      43.399   6.400  11.254  0.00  0.00    +0.000 HD
ENDROOT
BRANCH   5   9
ATOM      9  C   UNL     1      48.033   9.266  13.853  0.00  0.00    +0.000 C 
ATOM     10  N   UNL     1      48.188  10.577  13.479  0.00  0.00    +0.000 N 
ATOM     11  O   UNL     1      48.704   8.825  14.782  0.00  0.00    +0.000 OA
ATOM     12  H   UNL     1      47.716  11.029  12.710  0.00  0.00    +0.000 HD
ATOM     13  H   UNL     1      48.874  11.110  13.996  0.00  0.00    +0.000 HD
ENDBRANCH   5   9
BRANCH   1  14
ATOM     14  C   UNL     1      44.397   4.488  11.037  0.00  0.00    +0.000 C 
ATOM     15  C   UNL     1      44.297   3.768  12.367  0.00  0.00    +0.000 C 
ATOM     16  C   UNL     1      43.200   3.605  11.371  0.00  0.00    +0.000 C 
BRANCH  14  19
ATOM     17  C   UNL     1      45.792   2.074   8.394  0.00  0.00    +0.000 A 
ATOM     18  C   UNL     1      45.278   2.602   9.580  0.00  0.00    +0.000 A 
ATOM     19  C   UNL     1      45.175   3.992   9.809  0.00  0.00    +0.000 A 
ATOM     20  C   UNL     1      45.738   4.838   8.843  0.00  0.00    +0.000 A 
ATOM     21  C   UNL     1      46.247   4.326   7.643  0.00  0.00    +0.000 A 
ATOM     22  C   UNL     1      46.212   2.949   7.384  0.00  0.00    +0.000 A 
ATOM     23  C   UNL     1      46.576   2.423   6.024  0.00  0.00    +0.000 C 
BRANCH  17  25
ATOM     24  C   UNL     1      47.147   0.254   7.662  0.00  0.00    +0.000 C 
ATOM     25  O   UNL     1      45.887   0.738   8.105  0.00  0.00    +0.000 OA
ENDBRANCH  17  25
ENDBRANCH  14  19
ENDBRANCH   1  14
TORSDOF 4
ENDMDL
MODEL 8
REMARK VINA RESULT:    -6.460      4.042      6.942
REMARK INTER + INTRA:          -7.773
REMARK INTER:                  -7.662
REMARK INTRA:                  -0.110
REMARK UNBOUND:                 0.198
REMARK  Name = 
REMARK  6 active torsions:
REMARK  status: ('A' for Active; 'I' for Inactive)
REMARK    1  A    between atoms: C_1  and  O_2
REMARK    2  A    between atoms: O_2  and  C_3
REMARK    3  A    between atoms: C_5  and  C_6
REMARK    4  A    between atoms: C_6  and  N_7
REMARK    5  A    between atoms: C_11  and  C_12
REMARK    6  A    between atoms: C_21  and  C_22
REMARK                            x       y       z     vdW  Elec       q    Type
REMARK                         _______ _______ _______ _____ _____    ______ ____
ROOT
ATOM      1  N   UNL     1      47.631   2.877  15.294  0.00  0.00    +0.000 N 
ATOM      2  C   UNL     1      47.122   3.793  14.359  0.00  0.00    +0.000 A 
ATOM      3  C   UNL     1      47.407   5.154  14.396  0.00  0.00    +0.000 A 
ATOM      4  C   UNL     1      46.875   6.008  13.424  0.00  0.00    +0.000 A 
ATOM      5  C   UNL     1      46.066   5.496  12.416  0.00  0.00    +0.000 A 
ATOM      6  C   UNL     1      45.844   4.125  12.438  0.00  0.00    +0.000 A 
ATOM      7  N   UNL     1      46.348   3.273  13.378  0.00  0.00    +0.000 NA
ATOM      8  H   UNL     1      47.172   1.985  15.141  0.00  0.00    +0.000 HD
ENDROOT
BRANCH   5   9
ATOM      9  C   UNL     1      45.504   6.431  11.413  0.00  0.00    +0.000 C 
ATOM     10  N   UNL     1      45.211   5.971  10.154  0.00  0.00    +0.000 N 
ATOM     11  O   UNL     1      45.292   7.609  11.685  0.00  0.00    +0.000 OA
ATOM     12  H   UNL     1      45.378   5.035   9.816  0.00  0.00    +0.000 HD
ATOM     13  H   UNL     1      44.841   6.653   9.506  0.00  0.00    +0.000 HD
ENDBRANCH   5   9
BRANCH   1  14
ATOM     14  C   UNL     1      48.019   3.266  16.671  0.00  0.00    +0.000 C 
ATOM     15  C   UNL     1      47.113   4.298  17.314  0.00  0.00    +0.000 C 
ATOM     16  C   UNL     1      47.140   2.912  17.866  0.00  0.00    +0.000 C 
BRANCH  14  19
ATOM     17  C   UNL     1      51.580   4.092  17.853  0.00  0.00    +0.000 A 
ATOM     18  C   UNL     1      50.271   4.205  17.380  0.00  0.00    +0.000 A 
ATOM     19  C   UNL     1      49.516   3.086  16.963  0.00  0.00    +0.000 A 
ATOM     20  C   UNL     1      50.183   1.854  16.913  0.00  0.00    +0.000 A 
ATOM     21  C   UNL     1      51.492   1.722  17.393  0.00  0.00    +0.000 A 
ATOM     22  C   UNL     1      52.170   2.824  17.930  0.00  0.00    +0.000 A 
ATOM     23  C   UNL     1      53.492   2.640  18.620  0.00  0.00    +0.000 C 
BRANCH  17  25
ATOM     24  C   UNL     1      52.745   6.109  17.341  0.00  0.00    +0.000 C 
ATOM     25  O   UNL     1      52.346   5.137  18.299  0.00  0.00    +0.000 OA
ENDBRANCH  17  25
ENDBRANCH  14  19
ENDBRANCH   1  14
TORSDOF 4
ENDMDL
MODEL 9
REMARK VINA RESULT:    -6.449      3.149      4.601
REMARK INTER + INTRA:          -7.760
REMARK INTER:                  -7.561
REMARK INTRA:                  -0.199
REMARK UNBOUND:                 0.198
REMARK  Name = 
REMARK  6 active torsions:
REMARK  status: ('A' for Active; 'I' for Inactive)
REMARK    1  A    between atoms: C_1  and  O_2
REMARK    2  A    between atoms: O_2  and  C_3
REMARK    3  A    between atoms: C_5  and  C_6
REMARK    4  A    between atoms: C_6  and  N_7
REMARK    5  A    between atoms: C_11  and  C_12
REMARK    6  A    between atoms: C_21  and  C_22
REMARK                            x       y       z     vdW  Elec       q    Type
REMARK                         _______ _______ _______ _____ _____    ______ ____
ROOT
ATOM      1  N   UNL     1      45.120   7.933  12.978  0.00  0.00    +0.000 N 
ATOM      2  C   UNL     1      44.826   6.664  12.455  0.00  0.00    +0.000 A 
ATOM      3  C   UNL     1      45.324   6.210  11.238  0.00  0.00    +0.000 A 
ATOM      4  C   UNL     1      45.000   4.927  10.782  0.00  0.00    +0.000 A 
ATOM      5  C   UNL     1      44.186   4.102  11.549  0.00  0.00    +0.000 A 
ATOM      6  C   UNL     1      43.744   4.621  12.758  0.00  0.00    +0.000 A 
ATOM      7  N   UNL     1      44.042   5.870  13.221  0.00  0.00    +0.000 NA
ATOM      8  H   UNL     1      44.533   8.079  13.794  0.00  0.00    +0.000 HD
ENDROOT
BRANCH   5   9
ATOM      9  C   UNL     1      43.847   2.757  11.028  0.00  0.00    +0.000 C 
ATOM     10  N   UNL     1      44.555   2.249   9.968  0.00  0.00    +0.000 N 
ATOM     11  O   UNL     1      42.949   2.085  11.525  0.00  0.00    +0.000 OA
ATOM     12  H   UNL     1      45.287   2.729   9.464  0.00  0.00    +0.000 HD
ATOM     13  H   UNL     1      44.276   1.332   9.645  0.00  0.00    +0.000 HD
ENDBRANCH   5   9
BRANCH   1  14
ATOM     14  C   UNL     1      45.477   9.092  12.125  0.00  0.00    +0.000 C 
ATOM     15  C   UNL     1      44.490   9.382  11.011  0.00  0.00    +0.000 C 
ATOM     16  C   UNL     1      44.631  10.361  12.127  0.00  0.00    +0.000 C 
BRANCH  14  19
ATOM     17  C   UNL     1      49.256   8.583  12.593  0.00  0.00    +0.000 A 
ATOM     18  C   UNL     1      47.870   8.505  12.745  0.00  0.00    +0.000 A 
ATOM     19  C   UNL     1      46.984   9.384  12.082  0.00  0.00    +0.000 A 
ATOM     20  C   UNL     1      47.559  10.439  11.360  0.00  0.00    +0.000 A 
ATOM     21  C   UNL     1      48.945  10.525  11.189  0.00  0.00    +0.000 A 
ATOM     22  C   UNL     1      49.794   9.559  11.745  0.00  0.00    +0.000 A 
ATOM     23  C   UNL     1      51.257   9.544  11.399  0.00  0.00    +0.000 C 
BRANCH  17  25
ATOM     24  C   UNL     1      50.067   7.570  14.594  0.00  0.00    +0.000 C 
ATOM     25  O   UNL     1      50.159   7.740  13.185  0.00  0.00    +0.000 OA
ENDBRANCH  17  25
ENDBRANCH  14  19
ENDBRANCH   1  14
TORSDOF 4
ENDMDL
