MODEL 1
REMARK VINA RESULT:    -7.298      0.000      0.000
REMARK INTER + INTRA:         -11.396
REMARK INTER:                 -10.284
REMARK INTRA:                  -1.112
REMARK UNBOUND:                -1.112
REMARK  Name = 
REMARK  7 active torsions:
REMARK  status: ('A' for Active; 'I' for Inactive)
REMARK    1  A    between atoms: C_2  and  C_3
REMARK    2  A    between atoms: C_7  and  C_8
REMARK    3  A    between atoms: N_10  and  C_11
REMARK    4  A    between atoms: C_11  and  C_12
REMARK    5  A    between atoms: C_15  and  C_16
REMARK    6  A    between atoms: C_16  and  N_17
REMARK    7  A    between atoms: C_18  and  C_20
REMARK                            x       y       z     vdW  Elec       q    Type
REMARK                         _______ _______ _______ _____ _____    ______ ____
ROOT
ATOM      1  C   UNL     1      51.328   3.834  17.936  0.00  0.00    +0.000 A 
ATOM      2  C   UNL     1      50.449   4.922  18.042  0.00  0.00    +0.000 A 
ATOM      3  C   UNL     1      49.103   4.789  17.682  0.00  0.00    +0.000 A 
ATOM      4  C   UNL     1      48.602   3.563  17.227  0.00  0.00    +0.000 A 
ATOM      5  C   UNL     1      49.484   2.482  17.099  0.00  0.00    +0.000 A 
ATOM      6  C   UNL     1      50.828   2.613  17.462  0.00  0.00    +0.000 A 
ENDROOT
BRANCH   1   7
ATOM      7  C   UNL     1      52.782   3.966  18.311  0.00  0.00    +0.000 C 
BRANCH   7  10
ATOM      8  C   UNL     1      54.294   2.035  18.584  0.00  0.00    +0.000 C 
ATOM      9  O   UNL     1      54.294   2.118  19.806  0.00  0.00    +0.000 OA
ATOM     10  N   UNL     1      53.601   2.900  17.770  0.00  0.00    +0.000 N 
ATOM     11  H   UNL     1      53.751   2.882  16.770  0.00  0.00    +0.000 HD
BRANCH   8  16
ATOM     12  C   UNL     1      54.126  -0.215  17.433  0.00  0.00    +0.000 C 
ATOM     13  C   UNL     1      54.838  -0.892  16.263  0.00  0.00    +0.000 C 
ATOM     14  C   UNL     1      55.774   0.158  15.669  0.00  0.00    +0.000 C 
ATOM     15  C   UNL     1      55.590   1.423  16.497  0.00  0.00    +0.000 C 
ATOM     16  C   UNL     1      55.051   0.941  17.841  0.00  0.00    +0.000 C 
BRANCH  12  18
ATOM     17  N   UNL     1      53.760  -1.962  19.564  0.00  0.00    +0.000 NA
ATOM     18  C   UNL     1      53.926  -1.170  18.597  0.00  0.00    +0.000 C 
ENDBRANCH  12  18
ENDBRANCH   8  16
ENDBRANCH   7  10
ENDBRANCH   1   7
BRANCH   4  19
ATOM     19  C   UNL     1      47.147   3.405  16.860  0.00  0.00    +0.000 C 
BRANCH  19  20
ATOM     20  N   UNL     1      46.736   4.391  15.893  0.00  0.00    +0.000 N 
ATOM     21  C   UNL     1      46.831   4.141  14.545  0.00  0.00    +0.000 C 
ATOM     22  O   UNL     1      47.194   3.053  14.107  0.00  0.00    +0.000 OA
ATOM     23  H   UNL     1      46.662   5.348  16.218  0.00  0.00    +0.000 HD
BRANCH  21  24
ATOM     24  C   UNL     1      46.417   5.227  13.645  0.00  0.00    +0.000 A 
ATOM     25  C   UNL     1      47.294   6.269  13.374  0.00  0.00    +0.000 A 
ATOM     26  S   UNL     1      46.679   7.412  12.269  0.00  0.00    +0.000 S 
ATOM     27  C   UNL     1      45.198   6.581  12.150  0.00  0.00    +0.000 A 
ATOM     28  N   UNL     1      44.193   7.048  11.359  0.00  0.00    +0.000 NA
ATOM     29  C   UNL     1      43.115   6.338  11.388  0.00  0.00    +0.000 A 
ATOM     30  N   UNL     1      42.952   5.200  12.135  0.00  0.00    +0.000 N 
ATOM     31  C   UNL     1      43.947   4.675  12.925  0.00  0.00    +0.000 A 
ATOM     32  O   UNL     1      43.780   3.630  13.544  0.00  0.00    +0.000 OA
ATOM     33  C   UNL     1      45.180   5.441  12.935  0.00  0.00    +0.000 A 
ATOM     34  H   UNL     1      42.083   4.686  12.112  0.00  0.00    +0.000 HD
ENDBRANCH  21  24
ENDBRANCH  19  20
ENDBRANCH   4  19
TORSDOF 7
ENDMDL
MODEL 2
REMARK VINA RESULT:    -7.108      3.296      5.043
REMARK INTER + INTRA:         -11.129
REMARK INTER:                  -9.858
REMARK INTRA:                  -1.271
REMARK UNBOUND:                -1.112
REMARK  Name = 
REMARK  7 active torsions:
REMARK  status: ('A' for Active; 'I' for Inactive)
REMARK    1  A    between atoms: C_2  and  C_3
REMARK    2  A    between atoms: C_7  and  C_8
REMARK    3  A    between atoms: N_10  and  C_11
REMARK    4  A    between atoms: C_11  and  C_12
REMARK    5  A    between atoms: C_15  and  C_16
REMARK    6  A    between atoms: C_16  and  N_17
REMARK    7  A    between atoms: C_18  and  C_20
REMARK                            x       y       z     vdW  Elec       q    Type
REMARK                         _______ _______ _______ _____ _____    ______ ____
ROOT
ATOM      1  C   UNL     1      50.380   7.364  15.214  0.00  0.00    +0.000 A 
ATOM      2  C   UNL     1      50.701   8.057  14.038  0.00  0.00    +0.000 A 
ATOM      3  C   UNL     1      49.756   8.205  13.016  0.00  0.00    +0.000 A 
ATOM      4  C   UNL     1      48.465   7.681  13.155  0.00  0.00    +0.000 A 
ATOM      5  C   UNL     1      48.150   6.969  14.319  0.00  0.00    +0.000 A 
ATOM      6  C   UNL     1      49.092   6.824  15.343  0.00  0.00    +0.000 A 
ENDROOT
BRANCH   1   7
ATOM      7  C   UNL     1      51.391   7.190  16.318  0.00  0.00    +0.000 C 
BRANCH   7  10
ATOM      8  C   UNL     1      50.955   5.423  17.986  0.00  0.00    +0.000 C 
ATOM      9  O   UNL     1      50.394   6.193  18.757  0.00  0.00    +0.000 OA
ATOM     10  N   UNL     1      51.487   5.820  16.781  0.00  0.00    +0.000 N 
ATOM     11  H   UNL     1      52.066   5.182  16.250  0.00  0.00    +0.000 HD
BRANCH   8  16
ATOM     12  C   UNL     1      50.369   3.077  17.232  0.00  0.00    +0.000 C 
ATOM     13  C   UNL     1      51.052   1.712  17.301  0.00  0.00    +0.000 C 
ATOM     14  C   UNL     1      52.438   1.959  17.890  0.00  0.00    +0.000 C 
ATOM     15  C   UNL     1      52.540   3.457  18.151  0.00  0.00    +0.000 C 
ATOM     16  C   UNL     1      51.096   3.935  18.277  0.00  0.00    +0.000 C 
BRANCH  12  18
ATOM     17  N   UNL     1      47.661   2.903  17.835  0.00  0.00    +0.000 NA
ATOM     18  C   UNL     1      48.888   2.982  17.561  0.00  0.00    +0.000 C 
ENDBRANCH  12  18
ENDBRANCH   8  16
ENDBRANCH   7  10
ENDBRANCH   1   7
BRANCH   4  19
ATOM     19  C   UNL     1      47.433   7.857  12.068  0.00  0.00    +0.000 C 
BRANCH  19  20
ATOM     20  N   UNL     1      46.764   6.616  11.768  0.00  0.00    +0.000 N 
ATOM     21  C   UNL     1      45.393   6.549  11.708  0.00  0.00    +0.000 C 
ATOM     22  O   UNL     1      44.685   7.545  11.830  0.00  0.00    +0.000 OA
ATOM     23  H   UNL     1      47.299   5.765  11.897  0.00  0.00    +0.000 HD
BRANCH  21  24
ATOM     24  C   UNL     1      44.812   5.229  11.429  0.00  0.00    +0.000 A 
ATOM     25  C   UNL     1      44.030   4.603  12.391  0.00  0.00    +0.000 A 
ATOM     26  S   UNL     1      43.387   3.107  11.885  0.00  0.00    +0.000 S 
ATOM     27  C   UNL     1      44.172   3.218  10.378  0.00  0.00    +0.000 A 
ATOM     28  N   UNL     1      44.051   2.231   9.449  0.00  0.00    +0.000 NA
ATOM     29  C   UNL     1      44.724   2.429   8.366  0.00  0.00    +0.000 A 
ATOM     30  N   UNL     1      45.505   3.529   8.125  0.00  0.00    +0.000 N 
ATOM     31  C   UNL     1      45.634   4.565   9.019  0.00  0.00    +0.000 A 
ATOM     32  O   UNL     1      46.306   5.555   8.751  0.00  0.00    +0.000 OA
ATOM     33  C   UNL     1      44.903   4.387  10.261  0.00  0.00    +0.000 A 
ATOM     34  H   UNL     1      46.005   3.628   7.253  0.00  0.00    +0.000 HD
ENDBRANCH  21  24
ENDBRANCH  19  20
ENDBRANCH   4  19
TORSDOF 7
ENDMDL
MODEL 3
REMARK VINA RESULT:    -6.668      3.472      5.305
REMARK INTER + INTRA:         -10.509
REMARK INTER:                  -9.275
REMARK INTRA:                  -1.234
REMARK UNBOUND:                -1.112
REMARK  Name = 
REMARK  7 active torsions:
REMARK  status: ('A' for Active; 'I' for Inactive)
REMARK    1  A    between atoms: C_2  and  C_3
REMARK    2  A    between atoms: C_7  and  C_8
REMARK    3  A    between atoms: N_10  and  C_11
REMARK    4  A    between atoms: C_11  and  C_12
REMARK    5  A    between atoms: C_15  and  C_16
REMARK    6  A    between atoms: C_16  and  N_17
REMARK    7  A    between atoms: C_18  and  C_20
REMARK                            x       y       z     vdW  Elec       q    Type
REMARK                         _______ _______ _______ _____ _____    ______ ____
ROOT
ATOM      1  C   UNL     1      49.668   7.977  15.689  0.00  0.00    +0.000 A 
ATOM      2  C   UNL     1      50.110   7.309  14.538  0.00  0.00    +0.000 A 
ATOM      3  C   UNL     1      49.484   7.523  13.304  0.00  0.00    +0.000 A 
ATOM      4  C   UNL     1      48.415   8.422  13.191  0.00  0.00    +0.000 A 
ATOM      5  C   UNL     1      47.959   9.071  14.345  0.00  0.00    +0.000 A 
ATOM      6  C   UNL     1      48.586   8.861  15.577  0.00  0.00    +0.000 A 
ENDROOT
BRANCH   1   7
ATOM      7  C   UNL     1      50.327   7.748  17.025  0.00  0.00    +0.000 C 
BRANCH   7  10
ATOM      8  C   UNL     1      49.583   5.608  18.005  0.00  0.00    +0.000 C 
ATOM      9  O   UNL     1      48.539   6.087  18.432  0.00  0.00    +0.000 OA
ATOM     10  N   UNL     1      50.524   6.343  17.322  0.00  0.00    +0.000 N 
ATOM     11  H   UNL     1      51.430   5.941  17.121  0.00  0.00    +0.000 HD
BRANCH   8  16
ATOM     12  C   UNL     1      49.332   3.277  17.047  0.00  0.00    +0.000 C 
ATOM     13  C   UNL     1      50.201   2.021  17.007  0.00  0.00    +0.000 C 
ATOM     14  C   UNL     1      51.539   2.408  17.632  0.00  0.00    +0.000 C 
ATOM     15  C   UNL     1      51.429   3.877  18.021  0.00  0.00    +0.000 C 
ATOM     16  C   UNL     1      49.932   4.135  18.171  0.00  0.00    +0.000 C 
BRANCH  12  18
ATOM     17  N   UNL     1      46.676   2.673  17.600  0.00  0.00    +0.000 NA
ATOM     18  C   UNL     1      47.880   2.947  17.350  0.00  0.00    +0.000 C 
ENDBRANCH  12  18
ENDBRANCH   8  16
ENDBRANCH   7  10
ENDBRANCH   1   7
BRANCH   4  19
ATOM     19  C   UNL     1      47.751   8.676  11.861  0.00  0.00    +0.000 C 
BRANCH  19  20
ATOM     20  N   UNL     1      47.221   7.462  11.293  0.00  0.00    +0.000 N 
ATOM     21  C   UNL     1      45.880   7.173  11.368  0.00  0.00    +0.000 C 
ATOM     22  O   UNL     1      45.069   7.961  11.848  0.00  0.00    +0.000 OA
ATOM     23  H   UNL     1      47.883   6.715  11.113  0.00  0.00    +0.000 HD
BRANCH  21  24
ATOM     24  C   UNL     1      45.451   5.893  10.788  0.00  0.00    +0.000 A 
ATOM     25  C   UNL     1      45.788   5.584   9.477  0.00  0.00    +0.000 A 
ATOM     26  S   UNL     1      45.264   4.039   8.980  0.00  0.00    +0.000 S 
ATOM     27  C   UNL     1      44.524   3.747  10.486  0.00  0.00    +0.000 A 
ATOM     28  N   UNL     1      43.863   2.583  10.728  0.00  0.00    +0.000 NA
ATOM     29  C   UNL     1      43.322   2.507  11.898  0.00  0.00    +0.000 A 
ATOM     30  N   UNL     1      43.386   3.491  12.850  0.00  0.00    +0.000 N 
ATOM     31  C   UNL     1      44.066   4.671  12.662  0.00  0.00    +0.000 A 
ATOM     32  O   UNL     1      44.140   5.509  13.553  0.00  0.00    +0.000 OA
ATOM     33  C   UNL     1      44.687   4.810  11.357  0.00  0.00    +0.000 A 
ATOM     34  H   UNL     1      42.944   3.370  13.750  0.00  0.00    +0.000 HD
ENDBRANCH  21  24
ENDBRANCH  19  20
ENDBRANCH   4  19
TORSDOF 7
ENDMDL
MODEL 4
REMARK VINA RESULT:    -6.462      3.332      9.403
REMARK INTER + INTRA:         -10.219
REMARK INTER:                  -9.046
REMARK INTRA:                  -1.173
REMARK UNBOUND:                -1.112
REMARK  Name = 
REMARK  7 active torsions:
REMARK  status: ('A' for Active; 'I' for Inactive)
REMARK    1  A    between atoms: C_2  and  C_3
REMARK    2  A    between atoms: C_7  and  C_8
REMARK    3  A    between atoms: N_10  and  C_11
REMARK    4  A    between atoms: C_11  and  C_12
REMARK    5  A    between atoms: C_15  and  C_16
REMARK    6  A    between atoms: C_16  and  N_17
REMARK    7  A    between atoms: C_18  and  C_20
REMARK                            x       y       z     vdW  Elec       q    Type
REMARK                         _______ _______ _______ _____ _____    ______ ____
ROOT
ATOM      1  C   UNL     1      48.375   8.159  13.512  0.00  0.00    +0.000 A 
ATOM      2  C   UNL     1      48.419   9.352  14.248  0.00  0.00    +0.000 A 
ATOM      3  C   UNL     1      49.027   9.392  15.508  0.00  0.00    +0.000 A 
ATOM      4  C   UNL     1      49.622   8.246  16.052  0.00  0.00    +0.000 A 
ATOM      5  C   UNL     1      49.559   7.049  15.327  0.00  0.00    +0.000 A 
ATOM      6  C   UNL     1      48.954   7.009  14.067  0.00  0.00    +0.000 A 
ENDROOT
BRANCH   1   7
ATOM      7  C   UNL     1      47.715   8.101  12.159  0.00  0.00    +0.000 C 
BRANCH   7  10
ATOM      8  C   UNL     1      45.783   6.576  11.978  0.00  0.00    +0.000 C 
ATOM      9  O   UNL     1      44.985   7.430  12.345  0.00  0.00    +0.000 OA
ATOM     10  N   UNL     1      47.135   6.804  11.872  0.00  0.00    +0.000 N 
ATOM     11  H   UNL     1      47.766   6.031  11.708  0.00  0.00    +0.000 HD
BRANCH   8  16
ATOM     12  C   UNL     1      44.992   4.314  12.799  0.00  0.00    +0.000 C 
ATOM     13  C   UNL     1      44.067   3.225  12.258  0.00  0.00    +0.000 C 
ATOM     14  C   UNL     1      43.464   3.779  10.970  0.00  0.00    +0.000 C 
ATOM     15  C   UNL     1      44.043   5.177  10.785  0.00  0.00    +0.000 C 
ATOM     16  C   UNL     1      45.348   5.173  11.576  0.00  0.00    +0.000 C 
BRANCH  12  18
ATOM     17  N   UNL     1      47.293   3.240  13.932  0.00  0.00    +0.000 NA
ATOM     18  C   UNL     1      46.249   3.727  13.418  0.00  0.00    +0.000 C 
ENDBRANCH  12  18
ENDBRANCH   8  16
ENDBRANCH   7  10
ENDBRANCH   1   7
BRANCH   4  19
ATOM     19  C   UNL     1      50.301   8.286  17.398  0.00  0.00    +0.000 C 
BRANCH  19  20
ATOM     20  N   UNL     1      51.138   7.132  17.603  0.00  0.00    +0.000 N 
ATOM     21  C   UNL     1      50.728   6.095  18.406  0.00  0.00    +0.000 C 
ATOM     22  O   UNL     1      49.613   6.068  18.919  0.00  0.00    +0.000 OA
ATOM     23  H   UNL     1      52.124   7.238  17.391  0.00  0.00    +0.000 HD
BRANCH  21  24
ATOM     24  C   UNL     1      51.673   4.982  18.574  0.00  0.00    +0.000 A 
ATOM     25  C   UNL     1      52.865   5.188  19.258  0.00  0.00    +0.000 A 
ATOM     26  S   UNL     1      53.817   3.782  19.413  0.00  0.00    +0.000 S 
ATOM     27  C   UNL     1      52.694   2.858  18.529  0.00  0.00    +0.000 A 
ATOM     28  N   UNL     1      52.915   1.539  18.276  0.00  0.00    +0.000 NA
ATOM     29  C   UNL     1      51.998   0.968  17.568  0.00  0.00    +0.000 A 
ATOM     30  N   UNL     1      50.877   1.597  17.092  0.00  0.00    +0.000 N 
ATOM     31  C   UNL     1      50.597   2.919  17.346  0.00  0.00    +0.000 A 
ATOM     32  O   UNL     1      49.562   3.437  16.942  0.00  0.00    +0.000 OA
ATOM     33  C   UNL     1      51.602   3.611  18.132  0.00  0.00    +0.000 A 
ATOM     34  H   UNL     1      50.194   1.094  16.546  0.00  0.00    +0.000 HD
ENDBRANCH  21  24
ENDBRANCH  19  20
ENDBRANCH   4  19
TORSDOF 7
ENDMDL
MODEL 5
REMARK VINA RESULT:    -6.418      3.406      9.753
REMARK INTER + INTRA:         -10.156
REMARK INTER:                  -9.046
REMARK INTRA:                  -1.110
REMARK UNBOUND:                -1.112
REMARK  Name = 
REMARK  7 active torsions:
REMARK  status: ('A' for Active; 'I' for Inactive)
REMARK    1  A    between atoms: C_2  and  C_3
REMARK    2  A    between atoms: C_7  and  C_8
REMARK    3  A    between atoms: N_10  and  C_11
REMARK    4  A    between atoms: C_11  and  C_12
REMARK    5  A    between atoms: C_15  and  C_16
REMARK    6  A    between atoms: C_16  and  N_17
REMARK    7  A    between atoms: C_18  and  C_20
REMARK                            x       y       z     vdW  Elec       q    Type
REMARK                         _______ _______ _______ _____ _____    ______ ____
ROOT
ATOM      1  C   UNL     1      47.762   7.924  13.442  0.00  0.00    +0.000 A 
ATOM      2  C   UNL     1      47.859   9.043  14.281  0.00  0.00    +0.000 A 
ATOM      3  C   UNL     1      48.323   8.912  15.595  0.00  0.00    +0.000 A 
ATOM      4  C   UNL     1      48.717   7.663  16.093  0.00  0.00    +0.000 A 
ATOM      5  C   UNL     1      48.597   6.541  15.263  0.00  0.00    +0.000 A 
ATOM      6  C   UNL     1      48.138   6.672  13.949  0.00  0.00    +0.000 A 
ENDROOT
BRANCH   1   7
ATOM      7  C   UNL     1      47.255   8.050  12.028  0.00  0.00    +0.000 C 
BRANCH   7  10
ATOM      8  C   UNL     1      45.718   6.348  11.115  0.00  0.00    +0.000 C 
ATOM      9  O   UNL     1      44.719   7.006  11.382  0.00  0.00    +0.000 OA
ATOM     10  N   UNL     1      46.996   6.767  11.407  0.00  0.00    +0.000 N 
ATOM     11  H   UNL     1      47.773   6.127  11.303  0.00  0.00    +0.000 HD
BRANCH   8  16
ATOM     12  C   UNL     1      44.220   4.423  10.433  0.00  0.00    +0.000 C 
ATOM     13  C   UNL     1      44.173   3.448   9.257  0.00  0.00    +0.000 C 
ATOM     14  C   UNL     1      45.265   3.895   8.289  0.00  0.00    +0.000 C 
ATOM     15  C   UNL     1      45.926   5.118   8.913  0.00  0.00    +0.000 C 
ATOM     16  C   UNL     1      45.642   5.002  10.408  0.00  0.00    +0.000 C 
BRANCH  12  18
ATOM     17  N   UNL     1      43.737   3.142  12.852  0.00  0.00    +0.000 NA
ATOM     18  C   UNL     1      43.956   3.722  11.755  0.00  0.00    +0.000 C 
ENDBRANCH  12  18
ENDBRANCH   8  16
ENDBRANCH   7  10
ENDBRANCH   1   7
BRANCH   4  19
ATOM     19  C   UNL     1      49.240   7.517  17.500  0.00  0.00    +0.000 C 
BRANCH  19  20
ATOM     20  N   UNL     1      50.167   6.420  17.609  0.00  0.00    +0.000 N 
ATOM     21  C   UNL     1      50.583   5.964  18.837  0.00  0.00    +0.000 C 
ATOM     22  O   UNL     1      50.132   6.414  19.886  0.00  0.00    +0.000 OA
ATOM     23  H   UNL     1      50.715   6.201  16.784  0.00  0.00    +0.000 HD
BRANCH  21  24
ATOM     24  C   UNL     1      51.556   4.863  18.833  0.00  0.00    +0.000 A 
ATOM     25  C   UNL     1      52.775   5.019  19.481  0.00  0.00    +0.000 A 
ATOM     26  S   UNL     1      53.761   3.628  19.430  0.00  0.00    +0.000 S 
ATOM     27  C   UNL     1      52.614   2.784  18.497  0.00  0.00    +0.000 A 
ATOM     28  N   UNL     1      52.848   1.508  18.085  0.00  0.00    +0.000 NA
ATOM     29  C   UNL     1      51.910   1.000  17.358  0.00  0.00    +0.000 A 
ATOM     30  N   UNL     1      50.756   1.651  17.008  0.00  0.00    +0.000 N 
ATOM     31  C   UNL     1      50.463   2.928  17.425  0.00  0.00    +0.000 A 
ATOM     32  O   UNL     1      49.400   3.463  17.130  0.00  0.00    +0.000 OA
ATOM     33  C   UNL     1      51.491   3.550  18.240  0.00  0.00    +0.000 A 
ATOM     34  H   UNL     1      50.057   1.197  16.439  0.00  0.00    +0.000 HD
ENDBRANCH  21  24
ENDBRANCH  19  20
ENDBRANCH   4  19
TORSDOF 7
ENDMDL
MODEL 6
REMARK VINA RESULT:    -6.385      2.112      3.241
REMARK INTER + INTRA:         -10.110
REMARK INTER:                  -8.985
REMARK INTRA:                  -1.125
REMARK UNBOUND:                -1.112
REMARK  Name = 
REMARK  7 active torsions:
REMARK  status: ('A' for Active; 'I' for Inactive)
REMARK    1  A    between atoms: C_2  and  C_3
REMARK    2  A    between atoms: C_7  and  C_8
REMARK    3  A    between atoms: N_10  and  C_11
REMARK    4  A    between atoms: C_11  and  C_12
REMARK    5  A    between atoms: C_15  and  C_16
REMARK    6  A    between atoms: C_16  and  N_17
REMARK    7  A    between atoms: C_18  and  C_20
REMARK                            x       y       z     vdW  Elec       q    Type
REMARK                         _______ _______ _______ _____ _____    ______ ____
ROOT
ATOM      1  C   UNL     1      51.517   2.658  17.649  0.00  0.00    +0.000 A 
ATOM      2  C   UNL     1      51.014   3.915  18.012  0.00  0.00    +0.000 A 
ATOM      3  C   UNL     1      49.672   4.241  17.781  0.00  0.00    +0.000 A 
ATOM      4  C   UNL     1      48.800   3.310  17.202  0.00  0.00    +0.000 A 
ATOM      5  C   UNL     1      49.308   2.062  16.818  0.00  0.00    +0.000 A 
ATOM      6  C   UNL     1      50.647   1.735  17.051  0.00  0.00    +0.000 A 
ENDROOT
BRANCH   1   7
ATOM      7  C   UNL     1      52.962   2.299  17.883  0.00  0.00    +0.000 C 
BRANCH   7  10
ATOM      8  C   UNL     1      54.404   0.337  18.286  0.00  0.00    +0.000 C 
ATOM      9  O   UNL     1      55.436   0.968  18.094  0.00  0.00    +0.000 OA
ATOM     10  N   UNL     1      53.150   0.895  18.189  0.00  0.00    +0.000 N 
ATOM     11  H   UNL     1      52.331   0.303  18.209  0.00  0.00    +0.000 HD
BRANCH   8  16
ATOM     12  C   UNL     1      55.526  -1.911  17.961  0.00  0.00    +0.000 C 
ATOM     13  C   UNL     1      55.775  -3.137  18.839  0.00  0.00    +0.000 C 
ATOM     14  C   UNL     1      55.278  -2.769  20.235  0.00  0.00    +0.000 C 
ATOM     15  C   UNL     1      54.753  -1.341  20.148  0.00  0.00    +0.000 C 
ATOM     16  C   UNL     1      54.409  -1.135  18.676  0.00  0.00    +0.000 C 
BRANCH  12  18
ATOM     17  N   UNL     1      54.722  -2.628  15.398  0.00  0.00    +0.000 NA
ATOM     18  C   UNL     1      55.086  -2.303  16.561  0.00  0.00    +0.000 C 
ENDBRANCH  12  18
ENDBRANCH   8  16
ENDBRANCH   7  10
ENDBRANCH   1   7
BRANCH   4  19
ATOM     19  C   UNL     1      47.347   3.644  16.972  0.00  0.00    +0.000 C 
BRANCH  19  20
ATOM     20  N   UNL     1      47.187   4.612  15.917  0.00  0.00    +0.000 N 
ATOM     21  C   UNL     1      47.178   4.226  14.598  0.00  0.00    +0.000 C 
ATOM     22  O   UNL     1      47.230   3.046  14.264  0.00  0.00    +0.000 OA
ATOM     23  H   UNL     1      47.377   5.580  16.152  0.00  0.00    +0.000 HD
BRANCH  21  24
ATOM     24  C   UNL     1      47.044   5.298  13.602  0.00  0.00    +0.000 A 
ATOM     25  C   UNL     1      46.035   5.229  12.649  0.00  0.00    +0.000 A 
ATOM     26  S   UNL     1      45.984   6.579  11.608  0.00  0.00    +0.000 S 
ATOM     27  C   UNL     1      47.339   7.280  12.362  0.00  0.00    +0.000 A 
ATOM     28  N   UNL     1      47.842   8.470  11.934  0.00  0.00    +0.000 NA
ATOM     29  C   UNL     1      48.890   8.870  12.574  0.00  0.00    +0.000 A 
ATOM     30  N   UNL     1      49.478   8.189  13.607  0.00  0.00    +0.000 N 
ATOM     31  C   UNL     1      48.989   6.999  14.093  0.00  0.00    +0.000 A 
ATOM     32  O   UNL     1      49.516   6.440  15.049  0.00  0.00    +0.000 OA
ATOM     33  C   UNL     1      47.814   6.500  13.401  0.00  0.00    +0.000 A 
ATOM     34  H   UNL     1      50.296   8.557  14.071  0.00  0.00    +0.000 HD
ENDBRANCH  21  24
ENDBRANCH  19  20
ENDBRANCH   4  19
TORSDOF 7
ENDMDL
MODEL 7
REMARK VINA RESULT:    -5.878      4.522      9.617
REMARK INTER + INTRA:          -9.396
REMARK INTER:                  -8.457
REMARK INTRA:                  -0.938
REMARK UNBOUND:                -1.112
REMARK  Name = 
REMARK  7 active torsions:
REMARK  status: ('A' for Active; 'I' for Inactive)
REMARK    1  A    between atoms: C_2  and  C_3
REMARK    2  A    between atoms: C_7  and  C_8
REMARK    3  A    between atoms: N_10  and  C_11
REMARK    4  A    between atoms: C_11  and  C_12
REMARK    5  A    between atoms: C_15  and  C_16
REMARK    6  A    between atoms: C_16  and  N_17
REMARK    7  A    between atoms: C_18  and  C_20
REMARK                            x       y       z     vdW  Elec       q    Type
REMARK                         _______ _______ _______ _____ _____    ______ ____
ROOT
ATOM      1  C   UNL     1      46.302   9.094  12.164  0.00  0.00    +0.000 A 
ATOM      2  C   UNL     1      47.510   9.737  11.858  0.00  0.00    +0.000 A 
ATOM      3  C   UNL     1      48.546   9.793  12.798  0.00  0.00    +0.000 A 
ATOM      4  C   UNL     1      48.405   9.192  14.055  0.00  0.00    +0.000 A 
ATOM      5  C   UNL     1      47.190   8.569  14.369  0.00  0.00    +0.000 A 
ATOM      6  C   UNL     1      46.156   8.509  13.430  0.00  0.00    +0.000 A 
ENDROOT
BRANCH   1   7
ATOM      7  C   UNL     1      45.175   9.034  11.165  0.00  0.00    +0.000 C 
BRANCH   7  10
ATOM      8  C   UNL     1      44.959   6.577  11.065  0.00  0.00    +0.000 C 
ATOM      9  O   UNL     1      46.135   6.417  10.759  0.00  0.00    +0.000 OA
ATOM     10  N   UNL     1      44.396   7.817  11.267  0.00  0.00    +0.000 N 
ATOM     11  H   UNL     1      43.394   7.905  11.372  0.00  0.00    +0.000 HD
BRANCH   8  16
ATOM     12  C   UNL     1      44.653   4.068  10.907  0.00  0.00    +0.000 C 
ATOM     13  C   UNL     1      43.856   3.021  11.683  0.00  0.00    +0.000 C 
ATOM     14  C   UNL     1      43.215   3.756  12.857  0.00  0.00    +0.000 C 
ATOM     15  C   UNL     1      43.650   5.212  12.748  0.00  0.00    +0.000 C 
ATOM     16  C   UNL     1      44.004   5.410  11.276  0.00  0.00    +0.000 C 
BRANCH  12  18
ATOM     17  N   UNL     1      44.510   3.644   8.163  0.00  0.00    +0.000 NA
ATOM     18  C   UNL     1      44.575   3.836   9.407  0.00  0.00    +0.000 C 
ENDBRANCH  12  18
ENDBRANCH   8  16
ENDBRANCH   7  10
ENDBRANCH   1   7
BRANCH   4  19
ATOM     19  C   UNL     1      49.526   9.227  15.064  0.00  0.00    +0.000 C 
BRANCH  19  20
ATOM     20  N   UNL     1      49.414   8.152  16.017  0.00  0.00    +0.000 N 
ATOM     21  C   UNL     1      50.349   7.146  16.061  0.00  0.00    +0.000 C 
ATOM     22  O   UNL     1      51.351   7.156  15.351  0.00  0.00    +0.000 OA
ATOM     23  H   UNL     1      48.501   8.003  16.433  0.00  0.00    +0.000 HD
BRANCH  21  24
ATOM     24  C   UNL     1      50.121   6.081  17.047  0.00  0.00    +0.000 A 
ATOM     25  C   UNL     1      50.944   5.987  18.162  0.00  0.00    +0.000 A 
ATOM     26  S   UNL     1      50.507   4.734  19.233  0.00  0.00    +0.000 S 
ATOM     27  C   UNL     1      49.231   4.241  18.220  0.00  0.00    +0.000 A 
ATOM     28  N   UNL     1      48.444   3.180  18.550  0.00  0.00    +0.000 NA
ATOM     29  C   UNL     1      47.536   2.895  17.678  0.00  0.00    +0.000 A 
ATOM     30  N   UNL     1      47.341   3.578  16.505  0.00  0.00    +0.000 N 
ATOM     31  C   UNL     1      48.092   4.672  16.143  0.00  0.00    +0.000 A 
ATOM     32  O   UNL     1      47.860   5.285  15.107  0.00  0.00    +0.000 OA
ATOM     33  C   UNL     1      49.134   5.030  17.088  0.00  0.00    +0.000 A 
ATOM     34  H   UNL     1      46.610   3.308  15.864  0.00  0.00    +0.000 HD
ENDBRANCH  21  24
ENDBRANCH  19  20
ENDBRANCH   4  19
TORSDOF 7
ENDMDL
MODEL 8
REMARK VINA RESULT:    -5.720      3.104      9.967
REMARK INTER + INTRA:          -9.173
REMARK INTER:                  -7.999
REMARK INTRA:                  -1.175
REMARK UNBOUND:                -1.112
REMARK  Name = 
REMARK  7 active torsions:
REMARK  status: ('A' for Active; 'I' for Inactive)
REMARK    1  A    between atoms: C_2  and  C_3
REMARK    2  A    between atoms: C_7  and  C_8
REMARK    3  A    between atoms: N_10  and  C_11
REMARK    4  A    between atoms: C_11  and  C_12
REMARK    5  A    between atoms: C_15  and  C_16
REMARK    6  A    between atoms: C_16  and  N_17
REMARK    7  A    between atoms: C_18  and  C_20
REMARK                            x       y       z     vdW  Elec       q    Type
REMARK                         _______ _______ _______ _____ _____    ______ ____
ROOT
ATOM      1  C   UNL     1      48.806   8.149  13.439  0.00  0.00    +0.000 A 
ATOM      2  C   UNL     1      50.178   7.904  13.282  0.00  0.00    +0.000 A 
ATOM      3  C   UNL     1      51.008   7.745  14.398  0.00  0.00    +0.000 A 
ATOM      4  C   UNL     1      50.481   7.808  15.695  0.00  0.00    +0.000 A 
ATOM      5  C   UNL     1      49.115   8.076  15.853  0.00  0.00    +0.000 A 
ATOM      6  C   UNL     1      48.285   8.231  14.738  0.00  0.00    +0.000 A 
ENDROOT
BRANCH   1   7
ATOM      7  C   UNL     1      47.905   8.331  12.245  0.00  0.00    +0.000 C 
BRANCH   7  10
ATOM      8  C   UNL     1      45.868   6.939  12.334  0.00  0.00    +0.000 C 
ATOM      9  O   UNL     1      45.266   7.742  13.037  0.00  0.00    +0.000 OA
ATOM     10  N   UNL     1      47.164   7.131  11.912  0.00  0.00    +0.000 N 
ATOM     11  H   UNL     1      47.665   6.378  11.461  0.00  0.00    +0.000 HD
BRANCH   8  16
ATOM     12  C   UNL     1      44.897   4.695  12.993  0.00  0.00    +0.000 C 
ATOM     13  C   UNL     1      43.798   3.785  12.447  0.00  0.00    +0.000 C 
ATOM     14  C   UNL     1      43.139   4.552  11.303  0.00  0.00    +0.000 C 
ATOM     15  C   UNL     1      43.860   5.891  11.205  0.00  0.00    +0.000 C 
ATOM     16  C   UNL     1      45.228   5.650  11.837  0.00  0.00    +0.000 C 
BRANCH  12  18
ATOM     17  N   UNL     1      47.153   3.249  13.733  0.00  0.00    +0.000 NA
ATOM     18  C   UNL     1      46.131   3.904  13.397  0.00  0.00    +0.000 C 
ENDBRANCH  12  18
ENDBRANCH   8  16
ENDBRANCH   7  10
ENDBRANCH   1   7
BRANCH   4  19
ATOM     19  C   UNL     1      51.364   7.614  16.903  0.00  0.00    +0.000 C 
BRANCH  19  20
ATOM     20  N   UNL     1      51.764   6.238  17.050  0.00  0.00    +0.000 N 
ATOM     21  C   UNL     1      50.950   5.329  17.683  0.00  0.00    +0.000 C 
ATOM     22  O   UNL     1      49.826   5.625  18.080  0.00  0.00    +0.000 OA
ATOM     23  H   UNL     1      52.751   6.035  16.947  0.00  0.00    +0.000 HD
BRANCH  21  24
ATOM     24  C   UNL     1      51.469   3.960  17.808  0.00  0.00    +0.000 A 
ATOM     25  C   UNL     1      50.737   2.896  17.295  0.00  0.00    +0.000 A 
ATOM     26  S   UNL     1      51.508   1.386  17.473  0.00  0.00    +0.000 S 
ATOM     27  C   UNL     1      52.826   2.093  18.286  0.00  0.00    +0.000 A 
ATOM     28  N   UNL     1      53.860   1.333  18.739  0.00  0.00    +0.000 NA
ATOM     29  C   UNL     1      54.775   1.993  19.366  0.00  0.00    +0.000 A 
ATOM     30  N   UNL     1      54.752   3.347  19.578  0.00  0.00    +0.000 N 
ATOM     31  C   UNL     1      53.744   4.160  19.114  0.00  0.00    +0.000 A 
ATOM     32  O   UNL     1      53.779   5.373  19.283  0.00  0.00    +0.000 OA
ATOM     33  C   UNL     1      52.683   3.464  18.408  0.00  0.00    +0.000 A 
ATOM     34  H   UNL     1      55.502   3.807  20.073  0.00  0.00    +0.000 HD
ENDBRANCH  21  24
ENDBRANCH  19  20
ENDBRANCH   4  19
TORSDOF 7
ENDMDL
MODEL 9
REMARK VINA RESULT:    -5.714      4.300      9.340
REMARK INTER + INTRA:          -9.164
REMARK INTER:                  -7.717
REMARK INTRA:                  -1.447
REMARK UNBOUND:                -1.112
REMARK  Name = 
REMARK  7 active torsions:
REMARK  status: ('A' for Active; 'I' for Inactive)
REMARK    1  A    between atoms: C_2  and  C_3
REMARK    2  A    between atoms: C_7  and  C_8
REMARK    3  A    between atoms: N_10  and  C_11
REMARK    4  A    between atoms: C_11  and  C_12
REMARK    5  A    between atoms: C_15  and  C_16
REMARK    6  A    between atoms: C_16  and  N_17
REMARK    7  A    between atoms: C_18  and  C_20
REMARK                            x       y       z     vdW  Elec       q    Type
REMARK                         _______ _______ _______ _____ _____    ______ ____
ROOT
ATOM      1  C   UNL     1      47.042   9.234  12.505  0.00  0.00    +0.000 A 
ATOM      2  C   UNL     1      48.290   9.740  12.114  0.00  0.00    +0.000 A 
ATOM      3  C   UNL     1      49.348   9.812  13.027  0.00  0.00    +0.000 A 
ATOM      4  C   UNL     1      49.188   9.363  14.344  0.00  0.00    +0.000 A 
ATOM      5  C   UNL     1      47.935   8.879  14.741  0.00  0.00    +0.000 A 
ATOM      6  C   UNL     1      46.878   8.804  13.829  0.00  0.00    +0.000 A 
ENDROOT
BRANCH   1   7
ATOM      7  C   UNL     1      45.891   9.160  11.534  0.00  0.00    +0.000 C 
BRANCH   7  10
ATOM      8  C   UNL     1      45.780   6.699  11.380  0.00  0.00    +0.000 C 
ATOM      9  O   UNL     1      46.959   6.597  11.061  0.00  0.00    +0.000 OA
ATOM     10  N   UNL     1      45.166   7.908  11.616  0.00  0.00    +0.000 N 
ATOM     11  H   UNL     1      44.163   7.950  11.731  0.00  0.00    +0.000 HD
BRANCH   8  16
ATOM     12  C   UNL     1      44.804   5.060  13.046  0.00  0.00    +0.000 C 
ATOM     13  C   UNL     1      43.495   4.280  13.162  0.00  0.00    +0.000 C 
ATOM     14  C   UNL     1      42.615   4.750  12.006  0.00  0.00    +0.000 C 
ATOM     15  C   UNL     1      43.421   5.793  11.243  0.00  0.00    +0.000 C 
ATOM     16  C   UNL     1      44.879   5.487  11.573  0.00  0.00    +0.000 C 
BRANCH  12  18
ATOM     17  N   UNL     1      46.999   3.491  13.715  0.00  0.00    +0.000 NA
ATOM     18  C   UNL     1      46.003   4.202  13.412  0.00  0.00    +0.000 C 
ENDBRANCH  12  18
ENDBRANCH   8  16
ENDBRANCH   7  10
ENDBRANCH   1   7
BRANCH   4  19
ATOM     19  C   UNL     1      50.331   9.415  15.328  0.00  0.00    +0.000 C 
BRANCH  19  20
ATOM     20  N   UNL     1      50.268   8.327  16.270  0.00  0.00    +0.000 N 
ATOM     21  C   UNL     1      51.162   7.285  16.209  0.00  0.00    +0.000 C 
ATOM     22  O   UNL     1      52.091   7.270  15.406  0.00  0.00    +0.000 OA
ATOM     23  H   UNL     1      49.394   8.205  16.770  0.00  0.00    +0.000 HD
BRANCH  21  24
ATOM     24  C   UNL     1      50.987   6.211  17.196  0.00  0.00    +0.000 A 
ATOM     25  C   UNL     1      51.958   6.004  18.167  0.00  0.00    +0.000 A 
ATOM     26  S   UNL     1      51.572   4.758  19.267  0.00  0.00    +0.000 S 
ATOM     27  C   UNL     1      50.115   4.419  18.455  0.00  0.00    +0.000 A 
ATOM     28  N   UNL     1      49.289   3.425  18.881  0.00  0.00    +0.000 NA
ATOM     29  C   UNL     1      48.236   3.254  18.155  0.00  0.00    +0.000 A 
ATOM     30  N   UNL     1      47.930   3.993  17.041  0.00  0.00    +0.000 N 
ATOM     31  C   UNL     1      48.717   5.026  16.590  0.00  0.00    +0.000 A 
ATOM     32  O   UNL     1      48.389   5.694  15.616  0.00  0.00    +0.000 OA
ATOM     33  C   UNL     1      49.922   5.254  17.368  0.00  0.00    +0.000 A 
ATOM     34  H   UNL     1      47.087   3.813  16.516  0.00  0.00    +0.000 HD
ENDBRANCH  21  24
ENDBRANCH  19  20
ENDBRANCH   4  19
TORSDOF 7
ENDMDL
