MODEL 1
REMARK VINA RESULT:    -8.698      0.000      0.000
REMARK INTER + INTRA:         -11.714
REMARK INTER:                 -11.240
REMARK INTRA:                  -0.474
REMARK UNBOUND:                -0.474
REMARK  Name = 
REMARK  6 active torsions:
REMARK  status: ('A' for Active; 'I' for Inactive)
REMARK    1  A    between atoms: C_1  and  C_2
REMARK    2  A    between atoms: C_2  and  N_3
REMARK    3  A    between atoms: C_2  and  C_16
REMARK    4  A    between atoms: C_4  and  C_6
REMARK    5  A    between atoms: C_19  and  C_20
REMARK    6  A    between atoms: C_20  and  C_21
REMARK                            x       y       z     vdW  Elec       q    Type
REMARK                         _______ _______ _______ _____ _____    ______ ____
ROOT
ATOM      1  C   UNL     1      42.962   5.083  13.228  0.00  0.00    +0.000 C 
ATOM      2  C   UNL     1      44.288   4.351  12.997  0.00  0.00    +0.000 C 
ENDROOT
BRANCH   2   3
ATOM      3  C   UNL     1      44.655   4.185  11.529  0.00  0.00    +0.000 A 
ATOM      4  C   UNL     1      44.268   3.011  10.862  0.00  0.00    +0.000 A 
ATOM      5  C   UNL     1      44.504   2.849   9.494  0.00  0.00    +0.000 A 
ATOM      6  C   UNL     1      45.146   3.851   8.754  0.00  0.00    +0.000 A 
ATOM      7  C   UNL     1      45.593   4.994   9.427  0.00  0.00    +0.000 A 
ATOM      8  C   UNL     1      45.365   5.151  10.799  0.00  0.00    +0.000 A 
BRANCH   6   9
ATOM      9  C   UNL     1      45.337   3.713   7.261  0.00  0.00    +0.000 C 
BRANCH   9  10
ATOM     10  C   UNL     1      46.523   2.828   7.060  0.00  0.00    +0.000 A 
ATOM     11  C   UNL     1      47.662   3.036   6.305  0.00  0.00    +0.000 A 
ATOM     12  N   UNL     1      48.422   1.914   6.472  0.00  0.00    +0.000 N 
ATOM     13  C   UNL     1      47.722   1.058   7.272  0.00  0.00    +0.000 A 
ATOM     14  N   UNL     1      46.570   1.574   7.636  0.00  0.00    +0.000 NA
ATOM     15  H   UNL     1      49.337   1.742   6.079  0.00  0.00    +0.000 HD
ENDBRANCH   9  10
ENDBRANCH   6   9
ENDBRANCH   2   3
BRANCH   2  16
ATOM     16  N   UNL     1      45.371   5.005  13.700  0.00  0.00    +0.000 N 
ATOM     17  C   UNL     1      46.490   4.340  14.133  0.00  0.00    +0.000 C 
ATOM     18  O   UNL     1      46.726   3.170  13.844  0.00  0.00    +0.000 OA
ATOM     19  H   UNL     1      45.145   5.904  14.108  0.00  0.00    +0.000 HD
BRANCH  17  20
ATOM     20  C   UNL     1      47.428   5.135  14.932  0.00  0.00    +0.000 A 
ATOM     21  C   UNL     1      48.133   6.186  14.362  0.00  0.00    +0.000 A 
ATOM     22  S   UNL     1      49.139   7.008  15.472  0.00  0.00    +0.000 S 
ATOM     23  C   UNL     1      48.714   5.943  16.729  0.00  0.00    +0.000 A 
ATOM     24  N   UNL     1      49.263   6.063  17.969  0.00  0.00    +0.000 NA
ATOM     25  C   UNL     1      48.880   5.160  18.811  0.00  0.00    +0.000 A 
ATOM     26  N   UNL     1      47.995   4.152  18.530  0.00  0.00    +0.000 N 
ATOM     27  C   UNL     1      47.378   4.022  17.308  0.00  0.00    +0.000 A 
ATOM     28  O   UNL     1      46.523   3.161  17.124  0.00  0.00    +0.000 OA
ATOM     29  C   UNL     1      47.796   4.994  16.319  0.00  0.00    +0.000 A 
ATOM     30  H   UNL     1      47.720   3.489  19.237  0.00  0.00    +0.000 HD
ENDBRANCH  17  20
ENDBRANCH   2  16
TORSDOF 5
ENDMDL
MODEL 2
REMARK VINA RESULT:    -7.692      3.755      8.538
REMARK INTER + INTRA:         -10.414
REMARK INTER:                  -9.722
REMARK INTRA:                  -0.692
REMARK UNBOUND:                -0.474
REMARK  Name = 
REMARK  6 active torsions:
REMARK  status: ('A' for Active; 'I' for Inactive)
REMARK    1  A    between atoms: C_1  and  C_2
REMARK    2  A    between atoms: C_2  and  N_3
REMARK    3  A    between atoms: C_2  and  C_16
REMARK    4  A    between atoms: C_4  and  C_6
REMARK    5  A    between atoms: C_19  and  C_20
REMARK    6  A    between atoms: C_20  and  C_21
REMARK                            x       y       z     vdW  Elec       q    Type
REMARK                         _______ _______ _______ _____ _____    ______ ____
ROOT
ATOM      1  C   UNL     1      47.770   5.947  18.614  0.00  0.00    +0.000 C 
ATOM      2  C   UNL     1      48.695   5.782  17.403  0.00  0.00    +0.000 C 
ENDROOT
BRANCH   2   3
ATOM      3  C   UNL     1      49.615   4.572  17.488  0.00  0.00    +0.000 A 
ATOM      4  C   UNL     1      49.076   3.294  17.269  0.00  0.00    +0.000 A 
ATOM      5  C   UNL     1      49.894   2.161  17.250  0.00  0.00    +0.000 A 
ATOM      6  C   UNL     1      51.275   2.271  17.462  0.00  0.00    +0.000 A 
ATOM      7  C   UNL     1      51.808   3.535  17.747  0.00  0.00    +0.000 A 
ATOM      8  C   UNL     1      50.986   4.667  17.776  0.00  0.00    +0.000 A 
BRANCH   6   9
ATOM      9  C   UNL     1      52.175   1.060  17.369  0.00  0.00    +0.000 C 
BRANCH   9  10
ATOM     10  C   UNL     1      53.524   1.491  17.842  0.00  0.00    +0.000 A 
ATOM     11  C   UNL     1      54.624   1.907  17.116  0.00  0.00    +0.000 A 
ATOM     12  N   UNL     1      55.592   2.182  18.040  0.00  0.00    +0.000 N 
ATOM     13  C   UNL     1      55.078   1.894  19.271  0.00  0.00    +0.000 A 
ATOM     14  N   UNL     1      53.839   1.467  19.187  0.00  0.00    +0.000 NA
ATOM     15  H   UNL     1      56.519   2.535  17.854  0.00  0.00    +0.000 HD
ENDBRANCH   9  10
ENDBRANCH   6   9
ENDBRANCH   2   3
BRANCH   2  16
ATOM     16  N   UNL     1      47.933   5.730  16.173  0.00  0.00    +0.000 N 
ATOM     17  C   UNL     1      48.409   6.211  14.979  0.00  0.00    +0.000 C 
ATOM     18  O   UNL     1      49.564   6.600  14.828  0.00  0.00    +0.000 OA
ATOM     19  H   UNL     1      46.936   5.590  16.283  0.00  0.00    +0.000 HD
BRANCH  17  20
ATOM     20  C   UNL     1      47.457   6.188  13.864  0.00  0.00    +0.000 A 
ATOM     21  C   UNL     1      47.097   7.359  13.212  0.00  0.00    +0.000 A 
ATOM     22  S   UNL     1      46.010   7.109  11.919  0.00  0.00    +0.000 S 
ATOM     23  C   UNL     1      45.934   5.438  12.235  0.00  0.00    +0.000 A 
ATOM     24  N   UNL     1      45.133   4.619  11.500  0.00  0.00    +0.000 NA
ATOM     25  C   UNL     1      45.145   3.383  11.879  0.00  0.00    +0.000 A 
ATOM     26  N   UNL     1      45.886   2.891  12.920  0.00  0.00    +0.000 N 
ATOM     27  C   UNL     1      46.747   3.670  13.657  0.00  0.00    +0.000 A 
ATOM     28  O   UNL     1      47.461   3.173  14.522  0.00  0.00    +0.000 OA
ATOM     29  C   UNL     1      46.749   5.071  13.289  0.00  0.00    +0.000 A 
ATOM     30  H   UNL     1      45.867   1.910  13.155  0.00  0.00    +0.000 HD
ENDBRANCH  17  20
ENDBRANCH   2  16
TORSDOF 5
ENDMDL
MODEL 3
REMARK VINA RESULT:    -7.665      1.916      3.010
REMARK INTER + INTRA:         -10.380
REMARK INTER:                 -10.301
REMARK INTRA:                  -0.079
REMARK UNBOUND:                -0.474
REMARK  Name = 
REMARK  6 active torsions:
REMARK  status: ('A' for Active; 'I' for Inactive)
REMARK    1  A    between atoms: C_1  and  C_2
REMARK    2  A    between atoms: C_2  and  N_3
REMARK    3  A    between atoms: C_2  and  C_16
REMARK    4  A    between atoms: C_4  and  C_6
REMARK    5  A    between atoms: C_19  and  C_20
REMARK    6  A    between atoms: C_20  and  C_21
REMARK                            x       y       z     vdW  Elec       q    Type
REMARK                         _______ _______ _______ _____ _____    ______ ____
ROOT
ATOM      1  C   UNL     1      47.760   8.935  12.148  0.00  0.00    +0.000 C 
ATOM      2  C   UNL     1      46.711   8.191  12.981  0.00  0.00    +0.000 C 
ENDROOT
BRANCH   2   3
ATOM      3  C   UNL     1      46.037   7.041  12.244  0.00  0.00    +0.000 A 
ATOM      4  C   UNL     1      44.957   6.385  12.855  0.00  0.00    +0.000 A 
ATOM      5  C   UNL     1      44.250   5.383  12.184  0.00  0.00    +0.000 A 
ATOM      6  C   UNL     1      44.611   4.998  10.886  0.00  0.00    +0.000 A 
ATOM      7  C   UNL     1      45.729   5.603  10.298  0.00  0.00    +0.000 A 
ATOM      8  C   UNL     1      46.442   6.599  10.975  0.00  0.00    +0.000 A 
BRANCH   6   9
ATOM      9  C   UNL     1      43.806   3.968  10.128  0.00  0.00    +0.000 C 
BRANCH   9  10
ATOM     10  C   UNL     1      44.723   3.369   9.112  0.00  0.00    +0.000 A 
ATOM     11  C   UNL     1      45.397   2.163   9.133  0.00  0.00    +0.000 A 
ATOM     12  N   UNL     1      46.093   2.111   7.959  0.00  0.00    +0.000 N 
ATOM     13  C   UNL     1      45.860   3.279   7.291  0.00  0.00    +0.000 A 
ATOM     14  N   UNL     1      45.047   4.062   7.962  0.00  0.00    +0.000 NA
ATOM     15  H   UNL     1      46.674   1.351   7.637  0.00  0.00    +0.000 HD
ENDBRANCH   9  10
ENDBRANCH   6   9
ENDBRANCH   2   3
BRANCH   2  16
ATOM     16  N   UNL     1      47.281   7.708  14.221  0.00  0.00    +0.000 N 
ATOM     17  C   UNL     1      48.282   6.770  14.267  0.00  0.00    +0.000 C 
ATOM     18  O   UNL     1      48.864   6.364  13.265  0.00  0.00    +0.000 OA
ATOM     19  H   UNL     1      46.724   7.874  15.051  0.00  0.00    +0.000 HD
BRANCH  17  20
ATOM     20  C   UNL     1      48.654   6.309  15.608  0.00  0.00    +0.000 A 
ATOM     21  C   UNL     1      49.570   7.018  16.374  0.00  0.00    +0.000 A 
ATOM     22  S   UNL     1      49.833   6.336  17.918  0.00  0.00    +0.000 S 
ATOM     23  C   UNL     1      48.784   5.038  17.584  0.00  0.00    +0.000 A 
ATOM     24  N   UNL     1      48.583   4.045  18.493  0.00  0.00    +0.000 NA
ATOM     25  C   UNL     1      47.794   3.104  18.087  0.00  0.00    +0.000 A 
ATOM     26  N   UNL     1      47.185   3.068  16.860  0.00  0.00    +0.000 N 
ATOM     27  C   UNL     1      47.319   4.073  15.931  0.00  0.00    +0.000 A 
ATOM     28  O   UNL     1      46.685   4.047  14.881  0.00  0.00    +0.000 OA
ATOM     29  C   UNL     1      48.217   5.138  16.328  0.00  0.00    +0.000 A 
ATOM     30  H   UNL     1      46.564   2.315  16.610  0.00  0.00    +0.000 HD
ENDBRANCH  17  20
ENDBRANCH   2  16
TORSDOF 5
ENDMDL
MODEL 4
REMARK VINA RESULT:    -7.584      1.603      2.211
REMARK INTER + INTRA:         -10.274
REMARK INTER:                 -10.665
REMARK INTRA:                   0.391
REMARK UNBOUND:                -0.474
REMARK  Name = 
REMARK  6 active torsions:
REMARK  status: ('A' for Active; 'I' for Inactive)
REMARK    1  A    between atoms: C_1  and  C_2
REMARK    2  A    between atoms: C_2  and  N_3
REMARK    3  A    between atoms: C_2  and  C_16
REMARK    4  A    between atoms: C_4  and  C_6
REMARK    5  A    between atoms: C_19  and  C_20
REMARK    6  A    between atoms: C_20  and  C_21
REMARK                            x       y       z     vdW  Elec       q    Type
REMARK                         _______ _______ _______ _____ _____    ______ ____
ROOT
ATOM      1  C   UNL     1      44.772   8.079  11.389  0.00  0.00    +0.000 C 
ATOM      2  C   UNL     1      44.612   6.765  12.160  0.00  0.00    +0.000 C 
ENDROOT
BRANCH   2   3
ATOM      3  C   UNL     1      44.665   5.522  11.283  0.00  0.00    +0.000 A 
ATOM      4  C   UNL     1      45.346   5.587  10.057  0.00  0.00    +0.000 A 
ATOM      5  C   UNL     1      45.497   4.451   9.256  0.00  0.00    +0.000 A 
ATOM      6  C   UNL     1      44.961   3.218   9.652  0.00  0.00    +0.000 A 
ATOM      7  C   UNL     1      44.224   3.163  10.842  0.00  0.00    +0.000 A 
ATOM      8  C   UNL     1      44.065   4.304  11.638  0.00  0.00    +0.000 A 
BRANCH   6   9
ATOM      9  C   UNL     1      45.185   1.971   8.828  0.00  0.00    +0.000 C 
BRANCH   9  10
ATOM     10  C   UNL     1      46.156   2.336   7.754  0.00  0.00    +0.000 A 
ATOM     11  C   UNL     1      46.082   3.330   6.797  0.00  0.00    +0.000 A 
ATOM     12  N   UNL     1      47.233   3.225   6.069  0.00  0.00    +0.000 N 
ATOM     13  C   UNL     1      47.939   2.168   6.567  0.00  0.00    +0.000 A 
ATOM     14  N   UNL     1      47.314   1.605   7.575  0.00  0.00    +0.000 NA
ATOM     15  H   UNL     1      47.517   3.818   5.302  0.00  0.00    +0.000 HD
ENDBRANCH   9  10
ENDBRANCH   6   9
ENDBRANCH   2   3
BRANCH   2  16
ATOM     16  N   UNL     1      45.599   6.660  13.215  0.00  0.00    +0.000 N 
ATOM     17  C   UNL     1      46.945   6.809  12.995  0.00  0.00    +0.000 C 
ATOM     18  O   UNL     1      47.410   7.174  11.919  0.00  0.00    +0.000 OA
ATOM     19  H   UNL     1      45.287   6.194  14.058  0.00  0.00    +0.000 HD
BRANCH  17  20
ATOM     20  C   UNL     1      47.806   6.550  14.154  0.00  0.00    +0.000 A 
ATOM     21  C   UNL     1      48.800   7.450  14.516  0.00  0.00    +0.000 A 
ATOM     22  S   UNL     1      49.661   6.981  15.914  0.00  0.00    +0.000 S 
ATOM     23  C   UNL     1      48.778   5.532  16.038  0.00  0.00    +0.000 A 
ATOM     24  N   UNL     1      49.047   4.627  17.019  0.00  0.00    +0.000 NA
ATOM     25  C   UNL     1      48.327   3.554  16.966  0.00  0.00    +0.000 A 
ATOM     26  N   UNL     1      47.362   3.305  16.026  0.00  0.00    +0.000 N 
ATOM     27  C   UNL     1      47.022   4.211  15.048  0.00  0.00    +0.000 A 
ATOM     28  O   UNL     1      46.090   3.989  14.282  0.00  0.00    +0.000 OA
ATOM     29  C   UNL     1      47.821   5.420  15.048  0.00  0.00    +0.000 A 
ATOM     30  H   UNL     1      46.819   2.456  16.049  0.00  0.00    +0.000 HD
ENDBRANCH  17  20
ENDBRANCH   2  16
TORSDOF 5
ENDMDL
MODEL 5
REMARK VINA RESULT:    -7.305      1.846      2.319
REMARK INTER + INTRA:          -9.915
REMARK INTER:                  -9.926
REMARK INTRA:                   0.012
REMARK UNBOUND:                -0.474
REMARK  Name = 
REMARK  6 active torsions:
REMARK  status: ('A' for Active; 'I' for Inactive)
REMARK    1  A    between atoms: C_1  and  C_2
REMARK    2  A    between atoms: C_2  and  N_3
REMARK    3  A    between atoms: C_2  and  C_16
REMARK    4  A    between atoms: C_4  and  C_6
REMARK    5  A    between atoms: C_19  and  C_20
REMARK    6  A    between atoms: C_20  and  C_21
REMARK                            x       y       z     vdW  Elec       q    Type
REMARK                         _______ _______ _______ _____ _____    ______ ____
ROOT
ATOM      1  C   UNL     1      46.513   7.850  12.418  0.00  0.00    +0.000 C 
ATOM      2  C   UNL     1      45.646   6.657  12.834  0.00  0.00    +0.000 C 
ENDROOT
BRANCH   2   3
ATOM      3  C   UNL     1      45.464   5.613  11.741  0.00  0.00    +0.000 A 
ATOM      4  C   UNL     1      44.966   4.347  12.089  0.00  0.00    +0.000 A 
ATOM      5  C   UNL     1      44.699   3.384  11.111  0.00  0.00    +0.000 A 
ATOM      6  C   UNL     1      44.933   3.655   9.756  0.00  0.00    +0.000 A 
ATOM      7  C   UNL     1      45.491   4.892   9.410  0.00  0.00    +0.000 A 
ATOM      8  C   UNL     1      45.768   5.852  10.391  0.00  0.00    +0.000 A 
BRANCH   6   9
ATOM      9  C   UNL     1      44.577   2.647   8.688  0.00  0.00    +0.000 C 
BRANCH   9  10
ATOM     10  C   UNL     1      45.843   2.318   7.969  0.00  0.00    +0.000 A 
ATOM     11  C   UNL     1      46.591   3.089   7.099  0.00  0.00    +0.000 A 
ATOM     12  N   UNL     1      47.648   2.307   6.732  0.00  0.00    +0.000 N 
ATOM     13  C   UNL     1      47.496   1.096   7.344  0.00  0.00    +0.000 A 
ATOM     14  N   UNL     1      46.414   1.066   8.087  0.00  0.00    +0.000 NA
ATOM     15  H   UNL     1      48.409   2.570   6.122  0.00  0.00    +0.000 HD
ENDBRANCH   9  10
ENDBRANCH   6   9
ENDBRANCH   2   3
BRANCH   2  16
ATOM     16  N   UNL     1      46.170   6.027  14.027  0.00  0.00    +0.000 N 
ATOM     17  C   UNL     1      47.473   5.611  14.141  0.00  0.00    +0.000 C 
ATOM     18  O   UNL     1      48.330   5.858  13.297  0.00  0.00    +0.000 OA
ATOM     19  H   UNL     1      45.477   5.649  14.661  0.00  0.00    +0.000 HD
BRANCH  17  20
ATOM     20  C   UNL     1      47.799   4.885  15.373  0.00  0.00    +0.000 A 
ATOM     21  C   UNL     1      47.472   3.543  15.514  0.00  0.00    +0.000 A 
ATOM     22  S   UNL     1      47.973   2.876  17.004  0.00  0.00    +0.000 S 
ATOM     23  C   UNL     1      48.581   4.375  17.532  0.00  0.00    +0.000 A 
ATOM     24  N   UNL     1      49.127   4.516  18.771  0.00  0.00    +0.000 NA
ATOM     25  C   UNL     1      49.508   5.719  19.052  0.00  0.00    +0.000 A 
ATOM     26  N   UNL     1      49.398   6.792  18.207  0.00  0.00    +0.000 N 
ATOM     27  C   UNL     1      48.901   6.687  16.929  0.00  0.00    +0.000 A 
ATOM     28  O   UNL     1      48.903   7.653  16.172  0.00  0.00    +0.000 OA
ATOM     29  C   UNL     1      48.433   5.362  16.576  0.00  0.00    +0.000 A 
ATOM     30  H   UNL     1      49.733   7.704  18.478  0.00  0.00    +0.000 HD
ENDBRANCH  17  20
ENDBRANCH   2  16
TORSDOF 5
ENDMDL
MODEL 6
REMARK VINA RESULT:    -7.168      3.713      6.025
REMARK INTER + INTRA:          -9.738
REMARK INTER:                  -8.603
REMARK INTRA:                  -1.134
REMARK UNBOUND:                -0.474
REMARK  Name = 
REMARK  6 active torsions:
REMARK  status: ('A' for Active; 'I' for Inactive)
REMARK    1  A    between atoms: C_1  and  C_2
REMARK    2  A    between atoms: C_2  and  N_3
REMARK    3  A    between atoms: C_2  and  C_16
REMARK    4  A    between atoms: C_4  and  C_6
REMARK    5  A    between atoms: C_19  and  C_20
REMARK    6  A    between atoms: C_20  and  C_21
REMARK                            x       y       z     vdW  Elec       q    Type
REMARK                         _______ _______ _______ _____ _____    ______ ____
ROOT
ATOM      1  C   UNL     1      49.981   7.869  15.366  0.00  0.00    +0.000 C 
ATOM      2  C   UNL     1      49.274   6.714  16.085  0.00  0.00    +0.000 C 
ENDROOT
BRANCH   2   3
ATOM      3  C   UNL     1      48.256   5.980  15.224  0.00  0.00    +0.000 A 
ATOM      4  C   UNL     1      47.987   6.462  13.933  0.00  0.00    +0.000 A 
ATOM      5  C   UNL     1      47.127   5.775  13.072  0.00  0.00    +0.000 A 
ATOM      6  C   UNL     1      46.500   4.590  13.481  0.00  0.00    +0.000 A 
ATOM      7  C   UNL     1      46.713   4.141  14.790  0.00  0.00    +0.000 A 
ATOM      8  C   UNL     1      47.567   4.836  15.655  0.00  0.00    +0.000 A 
BRANCH   6   9
ATOM      9  C   UNL     1      45.628   3.803  12.530  0.00  0.00    +0.000 C 
BRANCH   9  10
ATOM     10  C   UNL     1      44.404   4.625  12.290  0.00  0.00    +0.000 A 
ATOM     11  C   UNL     1      43.323   4.862  13.118  0.00  0.00    +0.000 A 
ATOM     12  N   UNL     1      42.489   5.678  12.408  0.00  0.00    +0.000 N 
ATOM     13  C   UNL     1      43.055   5.877  11.182  0.00  0.00    +0.000 A 
ATOM     14  N   UNL     1      44.203   5.249  11.075  0.00  0.00    +0.000 NA
ATOM     15  H   UNL     1      41.614   6.068  12.726  0.00  0.00    +0.000 HD
ENDBRANCH   9  10
ENDBRANCH   6   9
ENDBRANCH   2   3
BRANCH   2  16
ATOM     16  N   UNL     1      50.234   5.771  16.617  0.00  0.00    +0.000 N 
ATOM     17  C   UNL     1      50.375   5.526  17.960  0.00  0.00    +0.000 C 
ATOM     18  O   UNL     1      49.612   5.983  18.806  0.00  0.00    +0.000 OA
ATOM     19  H   UNL     1      50.987   5.514  15.990  0.00  0.00    +0.000 HD
BRANCH  17  20
ATOM     20  C   UNL     1      51.478   4.632  18.327  0.00  0.00    +0.000 A 
ATOM     21  C   UNL     1      52.572   5.108  19.038  0.00  0.00    +0.000 A 
ATOM     22  S   UNL     1      53.723   3.899  19.398  0.00  0.00    +0.000 S 
ATOM     23  C   UNL     1      52.829   2.720  18.557  0.00  0.00    +0.000 A 
ATOM     24  N   UNL     1      53.285   1.442  18.441  0.00  0.00    +0.000 NA
ATOM     25  C   UNL     1      52.523   0.667  17.740  0.00  0.00    +0.000 A 
ATOM     26  N   UNL     1      51.348   1.051  17.149  0.00  0.00    +0.000 N 
ATOM     27  C   UNL     1      50.825   2.316  17.282  0.00  0.00    +0.000 A 
ATOM     28  O   UNL     1      49.725   2.593  16.814  0.00  0.00    +0.000 OA
ATOM     29  C   UNL     1      51.656   3.231  18.036  0.00  0.00    +0.000 A 
ATOM     30  H   UNL     1      50.787   0.393  16.631  0.00  0.00    +0.000 HD
ENDBRANCH  17  20
ENDBRANCH   2  16
TORSDOF 5
ENDMDL
MODEL 7
REMARK VINA RESULT:    -7.139      3.262      4.699
REMARK INTER + INTRA:          -9.700
REMARK INTER:                  -8.414
REMARK INTRA:                  -1.285
REMARK UNBOUND:                -0.474
REMARK  Name = 
REMARK  6 active torsions:
REMARK  status: ('A' for Active; 'I' for Inactive)
REMARK    1  A    between atoms: C_1  and  C_2
REMARK    2  A    between atoms: C_2  and  N_3
REMARK    3  A    between atoms: C_2  and  C_16
REMARK    4  A    between atoms: C_4  and  C_6
REMARK    5  A    between atoms: C_19  and  C_20
REMARK    6  A    between atoms: C_20  and  C_21
REMARK                            x       y       z     vdW  Elec       q    Type
REMARK                         _______ _______ _______ _____ _____    ______ ____
ROOT
ATOM      1  C   UNL     1      49.797   8.048  11.817  0.00  0.00    +0.000 C 
ATOM      2  C   UNL     1      48.724   8.097  12.911  0.00  0.00    +0.000 C 
ENDROOT
BRANCH   2   3
ATOM      3  C   UNL     1      47.340   7.676  12.439  0.00  0.00    +0.000 A 
ATOM      4  C   UNL     1      47.230   6.638  11.500  0.00  0.00    +0.000 A 
ATOM      5  C   UNL     1      45.980   6.156  11.101  0.00  0.00    +0.000 A 
ATOM      6  C   UNL     1      44.801   6.708  11.620  0.00  0.00    +0.000 A 
ATOM      7  C   UNL     1      44.904   7.787  12.506  0.00  0.00    +0.000 A 
ATOM      8  C   UNL     1      46.156   8.275  12.898  0.00  0.00    +0.000 A 
BRANCH   6   9
ATOM      9  C   UNL     1      43.449   6.143  11.249  0.00  0.00    +0.000 C 
BRANCH   9  10
ATOM     10  C   UNL     1      43.425   4.732  11.738  0.00  0.00    +0.000 A 
ATOM     11  C   UNL     1      43.532   4.241  13.025  0.00  0.00    +0.000 A 
ATOM     12  N   UNL     1      43.448   2.883  12.908  0.00  0.00    +0.000 N 
ATOM     13  C   UNL     1      43.336   2.591  11.579  0.00  0.00    +0.000 A 
ATOM     14  N   UNL     1      43.328   3.681  10.847  0.00  0.00    +0.000 NA
ATOM     15  H   UNL     1      43.464   2.211  13.662  0.00  0.00    +0.000 HD
ENDBRANCH   9  10
ENDBRANCH   6   9
ENDBRANCH   2   3
BRANCH   2  16
ATOM     16  N   UNL     1      49.114   7.299  14.054  0.00  0.00    +0.000 N 
ATOM     17  C   UNL     1      48.935   7.713  15.351  0.00  0.00    +0.000 C 
ATOM     18  O   UNL     1      48.311   8.728  15.647  0.00  0.00    +0.000 OA
ATOM     19  H   UNL     1      49.778   6.558  13.863  0.00  0.00    +0.000 HD
BRANCH  17  20
ATOM     20  C   UNL     1      49.498   6.832  16.378  0.00  0.00    +0.000 A 
ATOM     21  C   UNL     1      50.587   7.235  17.140  0.00  0.00    +0.000 A 
ATOM     22  S   UNL     1      51.062   6.080  18.306  0.00  0.00    +0.000 S 
ATOM     23  C   UNL     1      49.872   4.982  17.783  0.00  0.00    +0.000 A 
ATOM     24  N   UNL     1      49.755   3.749  18.349  0.00  0.00    +0.000 NA
ATOM     25  C   UNL     1      48.836   3.007  17.823  0.00  0.00    +0.000 A 
ATOM     26  N   UNL     1      48.022   3.385  16.789  0.00  0.00    +0.000 N 
ATOM     27  C   UNL     1      48.070   4.637  16.221  0.00  0.00    +0.000 A 
ATOM     28  O   UNL     1      47.262   4.967  15.358  0.00  0.00    +0.000 OA
ATOM     29  C   UNL     1      49.104   5.498  16.757  0.00  0.00    +0.000 A 
ATOM     30  H   UNL     1      47.308   2.767  16.435  0.00  0.00    +0.000 HD
ENDBRANCH  17  20
ENDBRANCH   2  16
TORSDOF 5
ENDMDL
MODEL 8
REMARK VINA RESULT:    -7.087      2.676      3.880
REMARK INTER + INTRA:          -9.633
REMARK INTER:                  -8.916
REMARK INTRA:                  -0.717
REMARK UNBOUND:                -0.474
REMARK  Name = 
REMARK  6 active torsions:
REMARK  status: ('A' for Active; 'I' for Inactive)
REMARK    1  A    between atoms: C_1  and  C_2
REMARK    2  A    between atoms: C_2  and  N_3
REMARK    3  A    between atoms: C_2  and  C_16
REMARK    4  A    between atoms: C_4  and  C_6
REMARK    5  A    between atoms: C_19  and  C_20
REMARK    6  A    between atoms: C_20  and  C_21
REMARK                            x       y       z     vdW  Elec       q    Type
REMARK                         _______ _______ _______ _____ _____    ______ ____
ROOT
ATOM      1  C   UNL     1      49.039   7.351  12.696  0.00  0.00    +0.000 C 
ATOM      2  C   UNL     1      47.815   6.928  13.516  0.00  0.00    +0.000 C 
ENDROOT
BRANCH   2   3
ATOM      3  C   UNL     1      46.770   6.162  12.717  0.00  0.00    +0.000 A 
ATOM      4  C   UNL     1      46.326   6.694  11.496  0.00  0.00    +0.000 A 
ATOM      5  C   UNL     1      45.434   5.988  10.684  0.00  0.00    +0.000 A 
ATOM      6  C   UNL     1      44.949   4.733  11.075  0.00  0.00    +0.000 A 
ATOM      7  C   UNL     1      45.337   4.227  12.322  0.00  0.00    +0.000 A 
ATOM      8  C   UNL     1      46.223   4.940  13.139  0.00  0.00    +0.000 A 
BRANCH   6   9
ATOM      9  C   UNL     1      44.043   3.932  10.168  0.00  0.00    +0.000 C 
BRANCH   9  10
ATOM     10  C   UNL     1      44.908   3.363   9.091  0.00  0.00    +0.000 A 
ATOM     11  C   UNL     1      45.512   2.123   9.007  0.00  0.00    +0.000 A 
ATOM     12  N   UNL     1      46.185   2.123   7.819  0.00  0.00    +0.000 N 
ATOM     13  C   UNL     1      46.008   3.349   7.246  0.00  0.00    +0.000 A 
ATOM     14  N   UNL     1      45.252   4.122   7.990  0.00  0.00    +0.000 NA
ATOM     15  H   UNL     1      46.717   1.358   7.428  0.00  0.00    +0.000 HD
ENDBRANCH   9  10
ENDBRANCH   6   9
ENDBRANCH   2   3
BRANCH   2  16
ATOM     16  N   UNL     1      48.210   6.152  14.673  0.00  0.00    +0.000 N 
ATOM     17  C   UNL     1      48.683   6.723  15.828  0.00  0.00    +0.000 C 
ATOM     18  O   UNL     1      48.684   7.935  16.023  0.00  0.00    +0.000 OA
ATOM     19  H   UNL     1      48.393   5.171  14.499  0.00  0.00    +0.000 HD
BRANCH  17  20
ATOM     20  C   UNL     1      49.149   5.782  16.852  0.00  0.00    +0.000 A 
ATOM     21  C   UNL     1      48.244   5.052  17.611  0.00  0.00    +0.000 A 
ATOM     22  S   UNL     1      48.992   3.987  18.717  0.00  0.00    +0.000 S 
ATOM     23  C   UNL     1      50.544   4.516  18.262  0.00  0.00    +0.000 A 
ATOM     24  N   UNL     1      51.660   4.023  18.865  0.00  0.00    +0.000 NA
ATOM     25  C   UNL     1      52.767   4.547  18.448  0.00  0.00    +0.000 A 
ATOM     26  N   UNL     1      52.859   5.513  17.481  0.00  0.00    +0.000 N 
ATOM     27  C   UNL     1      51.764   6.003  16.809  0.00  0.00    +0.000 A 
ATOM     28  O   UNL     1      51.897   6.801  15.887  0.00  0.00    +0.000 OA
ATOM     29  C   UNL     1      50.496   5.468  17.261  0.00  0.00    +0.000 A 
ATOM     30  H   UNL     1      53.755   5.868  17.184  0.00  0.00    +0.000 HD
ENDBRANCH  17  20
ENDBRANCH   2  16
TORSDOF 5
ENDMDL
MODEL 9
REMARK VINA RESULT:    -7.006      2.863      3.916
REMARK INTER + INTRA:          -9.528
REMARK INTER:                  -8.456
REMARK INTRA:                  -1.072
REMARK UNBOUND:                -0.474
REMARK  Name = 
REMARK  6 active torsions:
REMARK  status: ('A' for Active; 'I' for Inactive)
REMARK    1  A    between atoms: C_1  and  C_2
REMARK    2  A    between atoms: C_2  and  N_3
REMARK    3  A    between atoms: C_2  and  C_16
REMARK    4  A    between atoms: C_4  and  C_6
REMARK    5  A    between atoms: C_19  and  C_20
REMARK    6  A    between atoms: C_20  and  C_21
REMARK                            x       y       z     vdW  Elec       q    Type
REMARK                         _______ _______ _______ _____ _____    ______ ____
ROOT
ATOM      1  C   UNL     1      47.424   4.093  16.147  0.00  0.00    +0.000 C 
ATOM      2  C   UNL     1      47.871   5.050  15.036  0.00  0.00    +0.000 C 
ENDROOT
BRANCH   2   3
ATOM      3  C   UNL     1      47.024   4.971  13.774  0.00  0.00    +0.000 A 
ATOM      4  C   UNL     1      46.375   3.765  13.467  0.00  0.00    +0.000 A 
ATOM      5  C   UNL     1      45.517   3.667  12.368  0.00  0.00    +0.000 A 
ATOM      6  C   UNL     1      45.292   4.771  11.534  0.00  0.00    +0.000 A 
ATOM      7  C   UNL     1      45.989   5.957  11.797  0.00  0.00    +0.000 A 
ATOM      8  C   UNL     1      46.855   6.050  12.892  0.00  0.00    +0.000 A 
BRANCH   6   9
ATOM      9  C   UNL     1      44.309   4.693  10.389  0.00  0.00    +0.000 C 
BRANCH   9  10
ATOM     10  C   UNL     1      44.998   3.967   9.281  0.00  0.00    +0.000 A 
ATOM     11  C   UNL     1      45.054   2.612   9.014  0.00  0.00    +0.000 A 
ATOM     12  N   UNL     1      45.813   2.491   7.885  0.00  0.00    +0.000 N 
ATOM     13  C   UNL     1      46.221   3.745   7.529  0.00  0.00    +0.000 A 
ATOM     14  N   UNL     1      45.756   4.654   8.353  0.00  0.00    +0.000 NA
ATOM     15  H   UNL     1      46.035   1.636   7.397  0.00  0.00    +0.000 HD
ENDBRANCH   9  10
ENDBRANCH   6   9
ENDBRANCH   2   3
BRANCH   2  16
ATOM     16  N   UNL     1      47.910   6.416  15.514  0.00  0.00    +0.000 N 
ATOM     17  C   UNL     1      49.079   7.072  15.804  0.00  0.00    +0.000 C 
ATOM     18  O   UNL     1      50.187   6.605  15.556  0.00  0.00    +0.000 OA
ATOM     19  H   UNL     1      47.040   6.769  15.895  0.00  0.00    +0.000 HD
BRANCH  17  20
ATOM     20  C   UNL     1      48.925   8.407  16.391  0.00  0.00    +0.000 A 
ATOM     21  C   UNL     1      49.393   9.534  15.728  0.00  0.00    +0.000 A 
ATOM     22  S   UNL     1      49.078  10.991  16.563  0.00  0.00    +0.000 S 
ATOM     23  C   UNL     1      48.368  10.155  17.864  0.00  0.00    +0.000 A 
ATOM     24  N   UNL     1      47.910  10.820  18.960  0.00  0.00    +0.000 NA
ATOM     25  C   UNL     1      47.435  10.054  19.888  0.00  0.00    +0.000 A 
ATOM     26  N   UNL     1      47.372   8.687  19.818  0.00  0.00    +0.000 N 
ATOM     27  C   UNL     1      47.776   7.978  18.711  0.00  0.00    +0.000 A 
ATOM     28  O   UNL     1      47.618   6.762  18.652  0.00  0.00    +0.000 OA
ATOM     29  C   UNL     1      48.343   8.790  17.654  0.00  0.00    +0.000 A 
ATOM     30  H   UNL     1      46.971   8.146  20.568  0.00  0.00    +0.000 HD
ENDBRANCH  17  20
ENDBRANCH   2  16
TORSDOF 5
ENDMDL
