MODEL 1
REMARK VINA RESULT:    -7.339      0.000      0.000
REMARK INTER + INTRA:         -11.661
REMARK INTER:                 -10.342
REMARK INTRA:                  -1.320
REMARK UNBOUND:                -1.320
REMARK  Name = 
REMARK  7 active torsions:
REMARK  status: ('A' for Active; 'I' for Inactive)
REMARK    1  A    between atoms: C_2  and  C_19
REMARK    2  A    between atoms: N_3  and  C_4
REMARK    3  A    between atoms: C_4  and  C_5
REMARK    4  A    between atoms: C_8  and  C_9
REMARK    5  A    between atoms: C_9  and  N_10
REMARK    6  A    between atoms: N_10  and  C_11
REMARK    7  A    between atoms: C_11  and  C_12
REMARK                            x       y       z     vdW  Elec       q    Type
REMARK                         _______ _______ _______ _____ _____    ______ ____
ROOT
ATOM      1  C   UNL     1      46.783   7.349  12.933  0.00  0.00    +0.000 C 
ENDROOT
BRANCH   1   2
ATOM      2  C   UNL     1      46.061   6.273  12.176  0.00  0.00    +0.000 A 
ATOM      3  C   UNL     1      45.282   5.318  12.830  0.00  0.00    +0.000 A 
ATOM      4  C   UNL     1      44.635   4.327  12.093  0.00  0.00    +0.000 A 
ATOM      5  C   UNL     1      44.774   4.316  10.707  0.00  0.00    +0.000 A 
ATOM      6  N   UNL     1      45.504   5.249  10.044  0.00  0.00    +0.000 NA
ATOM      7  C   UNL     1      46.117   6.203  10.788  0.00  0.00    +0.000 A 
BRANCH   5   8
ATOM      8  C   UNL     1      44.110   3.222   9.884  0.00  0.00    +0.000 C 
BRANCH   8   9
ATOM      9  N   UNL     1      44.925   2.008   9.692  0.00  0.00    +0.000 NA
ATOM     10  H   UNL     1      44.333   1.214   9.950  0.00  0.00    +0.000 HD
BRANCH   9  11
ATOM     11  C   UNL     1      45.343   1.833   8.291  0.00  0.00    +0.000 C 
BRANCH  11  12
ATOM     12  C   UNL     1      46.697   2.544   8.017  0.00  0.00    +0.000 C 
ATOM     13  C   UNL     1      47.615   1.730   7.119  0.00  0.00    +0.000 C 
ATOM     14  C   UNL     1      47.145   2.082   5.722  0.00  0.00    +0.000 C 
ATOM     15  C   UNL     1      46.610   3.500   5.847  0.00  0.00    +0.000 C 
ATOM     16  N   UNL     1      46.542   3.809   7.278  0.00  0.00    +0.000 NA
ATOM     17  H   UNL     1      45.637   4.219   7.521  0.00  0.00    +0.000 HD
ENDBRANCH  11  12
ENDBRANCH   9  11
ENDBRANCH   8   9
ENDBRANCH   5   8
ENDBRANCH   1   2
BRANCH   1  20
ATOM     18  O   UNL     1      49.393   6.738  13.678  0.00  0.00    +0.000 OA
ATOM     19  C   UNL     1      48.515   6.684  14.534  0.00  0.00    +0.000 C 
ATOM     20  N   UNL     1      47.190   6.893  14.236  0.00  0.00    +0.000 N 
ATOM     21  H   UNL     1      46.538   7.046  14.997  0.00  0.00    +0.000 HD
BRANCH  19  22
ATOM     22  C   UNL     1      48.816   6.340  15.929  0.00  0.00    +0.000 A 
ATOM     23  C   UNL     1      49.464   7.251  16.749  0.00  0.00    +0.000 A 
ATOM     24  S   UNL     1      49.769   6.657  18.319  0.00  0.00    +0.000 S 
ATOM     25  C   UNL     1      48.994   5.181  17.972  0.00  0.00    +0.000 A 
ATOM     26  N   UNL     1      48.884   4.206  18.915  0.00  0.00    +0.000 NA
ATOM     27  C   UNL     1      48.237   3.158  18.524  0.00  0.00    +0.000 A 
ATOM     28  N   UNL     1      47.693   2.995  17.275  0.00  0.00    +0.000 N 
ATOM     29  C   UNL     1      47.813   3.936  16.281  0.00  0.00    +0.000 A 
ATOM     30  O   UNL     1      47.368   3.735  15.157  0.00  0.00    +0.000 OA
ATOM     31  C   UNL     1      48.522   5.138  16.674  0.00  0.00    +0.000 A 
ATOM     32  H   UNL     1      47.207   2.146  17.029  0.00  0.00    +0.000 HD
ENDBRANCH  19  22
ENDBRANCH   1  20
TORSDOF 7
ENDMDL
MODEL 2
REMARK VINA RESULT:    -7.032      4.113      9.075
REMARK INTER + INTRA:         -11.229
REMARK INTER:                 -10.494
REMARK INTRA:                  -0.735
REMARK UNBOUND:                -1.320
REMARK  Name = 
REMARK  7 active torsions:
REMARK  status: ('A' for Active; 'I' for Inactive)
REMARK    1  A    between atoms: C_2  and  C_19
REMARK    2  A    between atoms: N_3  and  C_4
REMARK    3  A    between atoms: C_4  and  C_5
REMARK    4  A    between atoms: C_8  and  C_9
REMARK    5  A    between atoms: C_9  and  N_10
REMARK    6  A    between atoms: N_10  and  C_11
REMARK    7  A    between atoms: C_11  and  C_12
REMARK                            x       y       z     vdW  Elec       q    Type
REMARK                         _______ _______ _______ _____ _____    ______ ____
ROOT
ATOM      1  C   UNL     1      47.107   3.563  16.842  0.00  0.00    +0.000 C 
ENDROOT
BRANCH   1   2
ATOM      2  C   UNL     1      48.578   3.504  17.131  0.00  0.00    +0.000 A 
ATOM      3  C   UNL     1      49.300   2.317  17.003  0.00  0.00    +0.000 A 
ATOM      4  C   UNL     1      50.664   2.301  17.291  0.00  0.00    +0.000 A 
ATOM      5  C   UNL     1      51.285   3.481  17.695  0.00  0.00    +0.000 A 
ATOM      6  N   UNL     1      50.611   4.655  17.800  0.00  0.00    +0.000 NA
ATOM      7  C   UNL     1      49.287   4.640  17.509  0.00  0.00    +0.000 A 
BRANCH   5   8
ATOM      8  C   UNL     1      52.764   3.480  18.052  0.00  0.00    +0.000 C 
BRANCH   8   9
ATOM      9  N   UNL     1      53.164   2.459  19.037  0.00  0.00    +0.000 NA
ATOM     10  H   UNL     1      52.325   1.910  19.246  0.00  0.00    +0.000 HD
BRANCH   9  11
ATOM     11  C   UNL     1      54.189   1.545  18.506  0.00  0.00    +0.000 C 
BRANCH  11  12
ATOM     12  C   UNL     1      53.543   0.383  17.703  0.00  0.00    +0.000 C 
ATOM     13  C   UNL     1      54.499  -0.237  16.697  0.00  0.00    +0.000 C 
ATOM     14  C   UNL     1      55.281  -1.239  17.522  0.00  0.00    +0.000 C 
ATOM     15  C   UNL     1      54.312  -1.670  18.613  0.00  0.00    +0.000 C 
ATOM     16  N   UNL     1      53.164  -0.761  18.552  0.00  0.00    +0.000 NA
ATOM     17  H   UNL     1      52.925  -0.410  19.482  0.00  0.00    +0.000 HD
ENDBRANCH  11  12
ENDBRANCH   9  11
ENDBRANCH   8   9
ENDBRANCH   5   8
ENDBRANCH   1   2
BRANCH   1  20
ATOM     18  O   UNL     1      47.237   3.111  14.100  0.00  0.00    +0.000 OA
ATOM     19  C   UNL     1      46.832   4.201  14.492  0.00  0.00    +0.000 C 
ATOM     20  N   UNL     1      46.811   4.537  15.824  0.00  0.00    +0.000 N 
ATOM     21  H   UNL     1      46.280   5.351  16.113  0.00  0.00    +0.000 HD
BRANCH  19  22
ATOM     22  C   UNL     1      46.391   5.245  13.557  0.00  0.00    +0.000 A 
ATOM     23  C   UNL     1      47.255   6.266  13.194  0.00  0.00    +0.000 A 
ATOM     24  S   UNL     1      46.552   7.408  12.138  0.00  0.00    +0.000 S 
ATOM     25  C   UNL     1      45.087   6.543  12.087  0.00  0.00    +0.000 A 
ATOM     26  N   UNL     1      44.040   6.976  11.333  0.00  0.00    +0.000 NA
ATOM     27  C   UNL     1      43.008   6.200  11.359  0.00  0.00    +0.000 A 
ATOM     28  N   UNL     1      42.925   5.033  12.073  0.00  0.00    +0.000 N 
ATOM     29  C   UNL     1      43.941   4.577  12.878  0.00  0.00    +0.000 A 
ATOM     30  O   UNL     1      43.814   3.561  13.551  0.00  0.00    +0.000 OA
ATOM     31  C   UNL     1      45.129   5.408  12.874  0.00  0.00    +0.000 A 
ATOM     32  H   UNL     1      42.084   4.475  12.058  0.00  0.00    +0.000 HD
ENDBRANCH  19  22
ENDBRANCH   1  20
TORSDOF 7
ENDMDL
MODEL 3
REMARK VINA RESULT:    -7.015      1.936      2.553
REMARK INTER + INTRA:         -11.205
REMARK INTER:                 -10.429
REMARK INTRA:                  -0.776
REMARK UNBOUND:                -1.320
REMARK  Name = 
REMARK  7 active torsions:
REMARK  status: ('A' for Active; 'I' for Inactive)
REMARK    1  A    between atoms: C_2  and  C_19
REMARK    2  A    between atoms: N_3  and  C_4
REMARK    3  A    between atoms: C_4  and  C_5
REMARK    4  A    between atoms: C_8  and  C_9
REMARK    5  A    between atoms: C_9  and  N_10
REMARK    6  A    between atoms: N_10  and  C_11
REMARK    7  A    between atoms: C_11  and  C_12
REMARK                            x       y       z     vdW  Elec       q    Type
REMARK                         _______ _______ _______ _____ _____    ______ ____
ROOT
ATOM      1  C   UNL     1      47.762   6.755  13.696  0.00  0.00    +0.000 C 
ENDROOT
BRANCH   1   2
ATOM      2  C   UNL     1      46.805   6.095  12.747  0.00  0.00    +0.000 A 
ATOM      3  C   UNL     1      46.679   6.520  11.424  0.00  0.00    +0.000 A 
ATOM      4  C   UNL     1      45.771   5.888  10.576  0.00  0.00    +0.000 A 
ATOM      5  C   UNL     1      45.010   4.830  11.067  0.00  0.00    +0.000 A 
ATOM      6  N   UNL     1      45.134   4.379  12.341  0.00  0.00    +0.000 NA
ATOM      7  C   UNL     1      46.028   5.010  13.141  0.00  0.00    +0.000 A 
BRANCH   5   8
ATOM      8  C   UNL     1      43.985   4.149  10.172  0.00  0.00    +0.000 C 
BRANCH   8   9
ATOM      9  N   UNL     1      44.180   4.367   8.727  0.00  0.00    +0.000 NA
ATOM     10  H   UNL     1      44.863   5.125   8.636  0.00  0.00    +0.000 HD
BRANCH   9  11
ATOM     11  C   UNL     1      44.723   3.177   8.052  0.00  0.00    +0.000 C 
BRANCH  11  12
ATOM     12  C   UNL     1      46.274   3.226   7.989  0.00  0.00    +0.000 C 
ATOM     13  C   UNL     1      46.890   1.882   7.634  0.00  0.00    +0.000 C 
ATOM     14  C   UNL     1      46.827   1.853   6.120  0.00  0.00    +0.000 C 
ATOM     15  C   UNL     1      46.925   3.314   5.708  0.00  0.00    +0.000 C 
ATOM     16  N   UNL     1      46.778   4.115   6.927  0.00  0.00    +0.000 NA
ATOM     17  H   UNL     1      46.104   4.871   6.789  0.00  0.00    +0.000 HD
ENDBRANCH  11  12
ENDBRANCH   9  11
ENDBRANCH   8   9
ENDBRANCH   5   8
ENDBRANCH   1   2
BRANCH   1  20
ATOM     18  O   UNL     1      49.913   6.695  15.460  0.00  0.00    +0.000 OA
ATOM     19  C   UNL     1      48.855   6.183  15.813  0.00  0.00    +0.000 C 
ATOM     20  N   UNL     1      47.769   6.097  14.977  0.00  0.00    +0.000 N 
ATOM     21  H   UNL     1      46.866   5.862  15.373  0.00  0.00    +0.000 HD
BRANCH  19  22
ATOM     22  C   UNL     1      48.696   5.575  17.141  0.00  0.00    +0.000 A 
ATOM     23  C   UNL     1      48.916   4.218  17.318  0.00  0.00    +0.000 A 
ATOM     24  S   UNL     1      48.637   3.687  18.916  0.00  0.00    +0.000 S 
ATOM     25  C   UNL     1      48.268   5.265  19.436  0.00  0.00    +0.000 A 
ATOM     26  N   UNL     1      47.950   5.522  20.734  0.00  0.00    +0.000 NA
ATOM     27  C   UNL     1      47.732   6.768  20.993  0.00  0.00    +0.000 A 
ATOM     28  N   UNL     1      47.800   7.782  20.072  0.00  0.00    +0.000 N 
ATOM     29  C   UNL     1      48.079   7.565  18.744  0.00  0.00    +0.000 A 
ATOM     30  O   UNL     1      48.073   8.484  17.933  0.00  0.00    +0.000 OA
ATOM     31  C   UNL     1      48.343   6.181  18.403  0.00  0.00    +0.000 A 
ATOM     32  H   UNL     1      47.609   8.736  20.337  0.00  0.00    +0.000 HD
ENDBRANCH  19  22
ENDBRANCH   1  20
TORSDOF 7
ENDMDL
MODEL 4
REMARK VINA RESULT:    -6.977      1.682      2.231
REMARK INTER + INTRA:         -11.151
REMARK INTER:                 -10.444
REMARK INTRA:                  -0.707
REMARK UNBOUND:                -1.320
REMARK  Name = 
REMARK  7 active torsions:
REMARK  status: ('A' for Active; 'I' for Inactive)
REMARK    1  A    between atoms: C_2  and  C_19
REMARK    2  A    between atoms: N_3  and  C_4
REMARK    3  A    between atoms: C_4  and  C_5
REMARK    4  A    between atoms: C_8  and  C_9
REMARK    5  A    between atoms: C_9  and  N_10
REMARK    6  A    between atoms: N_10  and  C_11
REMARK    7  A    between atoms: C_11  and  C_12
REMARK                            x       y       z     vdW  Elec       q    Type
REMARK                         _______ _______ _______ _____ _____    ______ ____
ROOT
ATOM      1  C   UNL     1      48.185   6.668  13.645  0.00  0.00    +0.000 C 
ENDROOT
BRANCH   1   2
ATOM      2  C   UNL     1      46.978   6.078  12.977  0.00  0.00    +0.000 A 
ATOM      3  C   UNL     1      46.576   6.483  11.704  0.00  0.00    +0.000 A 
ATOM      4  C   UNL     1      45.443   5.917  11.121  0.00  0.00    +0.000 A 
ATOM      5  C   UNL     1      44.734   4.945  11.824  0.00  0.00    +0.000 A 
ATOM      6  N   UNL     1      45.119   4.514  13.052  0.00  0.00    +0.000 NA
ATOM      7  C   UNL     1      46.228   5.079  13.590  0.00  0.00    +0.000 A 
BRANCH   5   8
ATOM      8  C   UNL     1      43.472   4.342  11.226  0.00  0.00    +0.000 C 
BRANCH   8   9
ATOM      9  N   UNL     1      43.583   2.923  10.844  0.00  0.00    +0.000 NA
ATOM     10  H   UNL     1      42.851   2.748  10.150  0.00  0.00    +0.000 HD
BRANCH   9  11
ATOM     11  C   UNL     1      44.884   2.612  10.228  0.00  0.00    +0.000 C 
BRANCH  11  12
ATOM     12  C   UNL     1      44.706   2.093   8.775  0.00  0.00    +0.000 C 
ATOM     13  C   UNL     1      44.766   3.209   7.743  0.00  0.00    +0.000 C 
ATOM     14  C   UNL     1      46.251   3.387   7.499  0.00  0.00    +0.000 C 
ATOM     15  C   UNL     1      46.843   2.007   7.747  0.00  0.00    +0.000 C 
ATOM     16  N   UNL     1      45.789   1.189   8.351  0.00  0.00    +0.000 NA
ATOM     17  H   UNL     1      46.137   0.691   9.173  0.00  0.00    +0.000 HD
ENDBRANCH  11  12
ENDBRANCH   9  11
ENDBRANCH   8   9
ENDBRANCH   5   8
ENDBRANCH   1   2
BRANCH   1  20
ATOM     18  O   UNL     1      50.300   6.763  15.450  0.00  0.00    +0.000 OA
ATOM     19  C   UNL     1      49.156   6.769  15.893  0.00  0.00    +0.000 C 
ATOM     20  N   UNL     1      48.055   6.644  15.079  0.00  0.00    +0.000 N 
ATOM     21  H   UNL     1      47.141   6.863  15.458  0.00  0.00    +0.000 HD
BRANCH  19  22
ATOM     22  C   UNL     1      48.884   6.855  17.334  0.00  0.00    +0.000 A 
ATOM     23  C   UNL     1      48.538   8.069  17.907  0.00  0.00    +0.000 A 
ATOM     24  S   UNL     1      48.307   7.982  19.596  0.00  0.00    +0.000 S 
ATOM     25  C   UNL     1      48.609   6.306  19.608  0.00  0.00    +0.000 A 
ATOM     26  N   UNL     1      48.552   5.590  20.763  0.00  0.00    +0.000 NA
ATOM     27  C   UNL     1      48.764   4.324  20.615  0.00  0.00    +0.000 A 
ATOM     28  N   UNL     1      49.030   3.710  19.419  0.00  0.00    +0.000 N 
ATOM     29  C   UNL     1      49.135   4.398  18.234  0.00  0.00    +0.000 A 
ATOM     30  O   UNL     1      49.434   3.829  17.191  0.00  0.00    +0.000 OA
ATOM     31  C   UNL     1      48.894   5.824  18.344  0.00  0.00    +0.000 A 
ATOM     32  H   UNL     1      49.196   2.716  19.372  0.00  0.00    +0.000 HD
ENDBRANCH  19  22
ENDBRANCH   1  20
TORSDOF 7
ENDMDL
MODEL 5
REMARK VINA RESULT:    -6.597      2.857      8.371
REMARK INTER + INTRA:         -10.617
REMARK INTER:                  -9.077
REMARK INTRA:                  -1.539
REMARK UNBOUND:                -1.320
REMARK  Name = 
REMARK  7 active torsions:
REMARK  status: ('A' for Active; 'I' for Inactive)
REMARK    1  A    between atoms: C_2  and  C_19
REMARK    2  A    between atoms: N_3  and  C_4
REMARK    3  A    between atoms: C_4  and  C_5
REMARK    4  A    between atoms: C_8  and  C_9
REMARK    5  A    between atoms: C_9  and  N_10
REMARK    6  A    between atoms: N_10  and  C_11
REMARK    7  A    between atoms: C_11  and  C_12
REMARK                            x       y       z     vdW  Elec       q    Type
REMARK                         _______ _______ _______ _____ _____    ______ ____
ROOT
ATOM      1  C   UNL     1      47.651   7.717  11.904  0.00  0.00    +0.000 C 
ENDROOT
BRANCH   1   2
ATOM      2  C   UNL     1      48.238   7.854  13.278  0.00  0.00    +0.000 A 
ATOM      3  C   UNL     1      47.781   8.821  14.173  0.00  0.00    +0.000 A 
ATOM      4  C   UNL     1      48.359   8.923  15.438  0.00  0.00    +0.000 A 
ATOM      5  C   UNL     1      49.383   8.045  15.787  0.00  0.00    +0.000 A 
ATOM      6  N   UNL     1      49.826   7.078  14.944  0.00  0.00    +0.000 NA
ATOM      7  C   UNL     1      49.242   7.000  13.724  0.00  0.00    +0.000 A 
BRANCH   5   8
ATOM      8  C   UNL     1      50.056   8.162  17.147  0.00  0.00    +0.000 C 
BRANCH   8   9
ATOM      9  N   UNL     1      50.559   6.893  17.702  0.00  0.00    +0.000 NA
ATOM     10  H   UNL     1      51.270   7.138  18.396  0.00  0.00    +0.000 HD
BRANCH   9  11
ATOM     11  C   UNL     1      49.502   6.124  18.380  0.00  0.00    +0.000 C 
BRANCH  11  12
ATOM     12  C   UNL     1      49.489   4.646  17.903  0.00  0.00    +0.000 C 
ATOM     13  C   UNL     1      48.410   3.820  18.584  0.00  0.00    +0.000 C 
ATOM     14  C   UNL     1      47.173   4.100  17.754  0.00  0.00    +0.000 C 
ATOM     15  C   UNL     1      47.708   4.377  16.357  0.00  0.00    +0.000 C 
ATOM     16  N   UNL     1      49.163   4.507  16.473  0.00  0.00    +0.000 NA
ATOM     17  H   UNL     1      49.497   5.339  15.981  0.00  0.00    +0.000 HD
ENDBRANCH  11  12
ENDBRANCH   9  11
ENDBRANCH   8   9
ENDBRANCH   5   8
ENDBRANCH   1   2
BRANCH   1  20
ATOM     18  O   UNL     1      44.884   7.470  12.048  0.00  0.00    +0.000 OA
ATOM     19  C   UNL     1      45.544   6.472  11.780  0.00  0.00    +0.000 C 
ATOM     20  N   UNL     1      46.918   6.485  11.766  0.00  0.00    +0.000 N 
ATOM     21  H   UNL     1      47.409   5.708  11.340  0.00  0.00    +0.000 HD
BRANCH  19  22
ATOM     22  C   UNL     1      44.909   5.175  11.506  0.00  0.00    +0.000 A 
ATOM     23  C   UNL     1      44.117   4.570  12.469  0.00  0.00    +0.000 A 
ATOM     24  S   UNL     1      43.505   3.050  11.989  0.00  0.00    +0.000 S 
ATOM     25  C   UNL     1      44.235   3.178  10.456  0.00  0.00    +0.000 A 
ATOM     26  N   UNL     1      44.088   2.198   9.523  0.00  0.00    +0.000 NA
ATOM     27  C   UNL     1      44.663   2.448   8.394  0.00  0.00    +0.000 A 
ATOM     28  N   UNL     1      45.375   3.586   8.113  0.00  0.00    +0.000 N 
ATOM     29  C   UNL     1      45.581   4.583   9.035  0.00  0.00    +0.000 A 
ATOM     30  O   UNL     1      46.272   5.560   8.773  0.00  0.00    +0.000 OA
ATOM     31  C   UNL     1      44.945   4.356  10.318  0.00  0.00    +0.000 A 
ATOM     32  H   UNL     1      45.808   3.716   7.211  0.00  0.00    +0.000 HD
ENDBRANCH  19  22
ENDBRANCH   1  20
TORSDOF 7
ENDMDL
MODEL 6
REMARK VINA RESULT:    -6.438      1.837      2.391
REMARK INTER + INTRA:         -10.393
REMARK INTER:                  -9.711
REMARK INTRA:                  -0.682
REMARK UNBOUND:                -1.320
REMARK  Name = 
REMARK  7 active torsions:
REMARK  status: ('A' for Active; 'I' for Inactive)
REMARK    1  A    between atoms: C_2  and  C_19
REMARK    2  A    between atoms: N_3  and  C_4
REMARK    3  A    between atoms: C_4  and  C_5
REMARK    4  A    between atoms: C_8  and  C_9
REMARK    5  A    between atoms: C_9  and  N_10
REMARK    6  A    between atoms: N_10  and  C_11
REMARK    7  A    between atoms: C_11  and  C_12
REMARK                            x       y       z     vdW  Elec       q    Type
REMARK                         _______ _______ _______ _____ _____    ______ ____
ROOT
ATOM      1  C   UNL     1      47.401   7.116  13.559  0.00  0.00    +0.000 C 
ENDROOT
BRANCH   1   2
ATOM      2  C   UNL     1      46.500   6.301  12.678  0.00  0.00    +0.000 A 
ATOM      3  C   UNL     1      46.242   4.956  12.941  0.00  0.00    +0.000 A 
ATOM      4  C   UNL     1      45.407   4.231  12.092  0.00  0.00    +0.000 A 
ATOM      5  C   UNL     1      44.835   4.872  10.996  0.00  0.00    +0.000 A 
ATOM      6  N   UNL     1      45.047   6.186  10.733  0.00  0.00    +0.000 NA
ATOM      7  C   UNL     1      45.860   6.866  11.579  0.00  0.00    +0.000 A 
BRANCH   5   8
ATOM      8  C   UNL     1      43.951   4.092  10.033  0.00  0.00    +0.000 C 
BRANCH   8   9
ATOM      9  N   UNL     1      44.190   4.371   8.606  0.00  0.00    +0.000 NA
ATOM     10  H   UNL     1      44.860   5.144   8.567  0.00  0.00    +0.000 HD
BRANCH   9  11
ATOM     11  C   UNL     1      44.779   3.219   7.904  0.00  0.00    +0.000 C 
BRANCH  11  12
ATOM     12  C   UNL     1      46.321   3.364   7.783  0.00  0.00    +0.000 C 
ATOM     13  C   UNL     1      47.028   2.023   7.662  0.00  0.00    +0.000 C 
ATOM     14  C   UNL     1      46.940   1.708   6.183  0.00  0.00    +0.000 C 
ATOM     15  C   UNL     1      46.921   3.071   5.506  0.00  0.00    +0.000 C 
ATOM     16  N   UNL     1      46.737   4.072   6.560  0.00  0.00    +0.000 NA
ATOM     17  H   UNL     1      46.007   4.741   6.307  0.00  0.00    +0.000 HD
ENDBRANCH  11  12
ENDBRANCH   9  11
ENDBRANCH   8   9
ENDBRANCH   5   8
ENDBRANCH   1   2
BRANCH   1  20
ATOM     18  O   UNL     1      48.961   8.081  15.651  0.00  0.00    +0.000 OA
ATOM     19  C   UNL     1      48.675   6.888  15.640  0.00  0.00    +0.000 C 
ATOM     20  N   UNL     1      47.977   6.312  14.605  0.00  0.00    +0.000 N 
ATOM     21  H   UNL     1      47.586   5.386  14.737  0.00  0.00    +0.000 HD
BRANCH  19  22
ATOM     22  C   UNL     1      49.107   5.979  16.711  0.00  0.00    +0.000 A 
ATOM     23  C   UNL     1      48.169   5.266  17.441  0.00  0.00    +0.000 A 
ATOM     24  S   UNL     1      48.855   4.301  18.670  0.00  0.00    +0.000 S 
ATOM     25  C   UNL     1      50.434   4.762  18.229  0.00  0.00    +0.000 A 
ATOM     26  N   UNL     1      51.520   4.270  18.885  0.00  0.00    +0.000 NA
ATOM     27  C   UNL     1      52.653   4.676  18.417  0.00  0.00    +0.000 A 
ATOM     28  N   UNL     1      52.801   5.532  17.356  0.00  0.00    +0.000 N 
ATOM     29  C   UNL     1      51.734   6.083  16.689  0.00  0.00    +0.000 A 
ATOM     30  O   UNL     1      51.897   6.892  15.784  0.00  0.00    +0.000 OA
ATOM     31  C   UNL     1      50.436   5.650  17.169  0.00  0.00    +0.000 A 
ATOM     32  H   UNL     1      53.717   5.819  17.045  0.00  0.00    +0.000 HD
ENDBRANCH  19  22
ENDBRANCH   1  20
TORSDOF 7
ENDMDL
MODEL 7
REMARK VINA RESULT:    -6.379      3.285      8.042
REMARK INTER + INTRA:         -10.309
REMARK INTER:                  -9.497
REMARK INTRA:                  -0.812
REMARK UNBOUND:                -1.320
REMARK  Name = 
REMARK  7 active torsions:
REMARK  status: ('A' for Active; 'I' for Inactive)
REMARK    1  A    between atoms: C_2  and  C_19
REMARK    2  A    between atoms: N_3  and  C_4
REMARK    3  A    between atoms: C_4  and  C_5
REMARK    4  A    between atoms: C_8  and  C_9
REMARK    5  A    between atoms: C_9  and  N_10
REMARK    6  A    between atoms: N_10  and  C_11
REMARK    7  A    between atoms: C_11  and  C_12
REMARK                            x       y       z     vdW  Elec       q    Type
REMARK                         _______ _______ _______ _____ _____    ______ ____
ROOT
ATOM      1  C   UNL     1      48.101   8.139  12.223  0.00  0.00    +0.000 C 
ENDROOT
BRANCH   1   2
ATOM      2  C   UNL     1      48.432   7.973  13.677  0.00  0.00    +0.000 A 
ATOM      3  C   UNL     1      48.110   8.954  14.616  0.00  0.00    +0.000 A 
ATOM      4  C   UNL     1      48.444   8.767  15.956  0.00  0.00    +0.000 A 
ATOM      5  C   UNL     1      49.090   7.592  16.336  0.00  0.00    +0.000 A 
ATOM      6  N   UNL     1      49.390   6.611  15.446  0.00  0.00    +0.000 NA
ATOM      7  C   UNL     1      49.048   6.819  14.151  0.00  0.00    +0.000 A 
BRANCH   5   8
ATOM      8  C   UNL     1      49.500   7.382  17.786  0.00  0.00    +0.000 C 
BRANCH   8   9
ATOM      9  N   UNL     1      49.500   5.978  18.233  0.00  0.00    +0.000 NA
ATOM     10  H   UNL     1      49.765   5.986  19.222  0.00  0.00    +0.000 HD
BRANCH   9  11
ATOM     11  C   UNL     1      48.170   5.356  18.119  0.00  0.00    +0.000 C 
BRANCH  11  12
ATOM     12  C   UNL     1      48.200   3.878  18.596  0.00  0.00    +0.000 C 
ATOM     13  C   UNL     1      47.439   2.947  17.666  0.00  0.00    +0.000 C 
ATOM     14  C   UNL     1      48.451   2.620  16.587  0.00  0.00    +0.000 C 
ATOM     15  C   UNL     1      49.797   2.705  17.291  0.00  0.00    +0.000 C 
ATOM     16  N   UNL     1      49.556   3.305  18.606  0.00  0.00    +0.000 NA
ATOM     17  H   UNL     1      50.225   4.055  18.794  0.00  0.00    +0.000 HD
ENDBRANCH  11  12
ENDBRANCH   9  11
ENDBRANCH   8   9
ENDBRANCH   5   8
ENDBRANCH   1   2
BRANCH   1  20
ATOM     18  O   UNL     1      45.364   7.886  11.789  0.00  0.00    +0.000 OA
ATOM     19  C   UNL     1      46.096   6.962  11.448  0.00  0.00    +0.000 C 
ATOM     20  N   UNL     1      47.448   6.969  11.697  0.00  0.00    +0.000 N 
ATOM     21  H   UNL     1      48.035   6.296  11.218  0.00  0.00    +0.000 HD
BRANCH  19  22
ATOM     22  C   UNL     1      45.567   5.756  10.797  0.00  0.00    +0.000 A 
ATOM     23  C   UNL     1      45.821   5.520   9.455  0.00  0.00    +0.000 A 
ATOM     24  S   UNL     1      45.087   4.097   8.864  0.00  0.00    +0.000 S 
ATOM     25  C   UNL     1      44.451   3.721  10.398  0.00  0.00    +0.000 A 
ATOM     26  N   UNL     1      43.716   2.593  10.597  0.00  0.00    +0.000 NA
ATOM     27  C   UNL     1      43.333   2.416  11.818  0.00  0.00    +0.000 A 
ATOM     28  N   UNL     1      43.615   3.265  12.857  0.00  0.00    +0.000 N 
ATOM     29  C   UNL     1      44.319   4.434  12.695  0.00  0.00    +0.000 A 
ATOM     30  O   UNL     1      44.503   5.202  13.632  0.00  0.00    +0.000 OA
ATOM     31  C   UNL     1      44.783   4.673  11.343  0.00  0.00    +0.000 A 
ATOM     32  H   UNL     1      43.277   3.074  13.788  0.00  0.00    +0.000 HD
ENDBRANCH  19  22
ENDBRANCH   1  20
TORSDOF 7
ENDMDL
MODEL 8
REMARK VINA RESULT:    -6.281      4.229      9.204
REMARK INTER + INTRA:         -10.171
REMARK INTER:                  -9.079
REMARK INTRA:                  -1.092
REMARK UNBOUND:                -1.320
REMARK  Name = 
REMARK  7 active torsions:
REMARK  status: ('A' for Active; 'I' for Inactive)
REMARK    1  A    between atoms: C_2  and  C_19
REMARK    2  A    between atoms: N_3  and  C_4
REMARK    3  A    between atoms: C_4  and  C_5
REMARK    4  A    between atoms: C_8  and  C_9
REMARK    5  A    between atoms: C_9  and  N_10
REMARK    6  A    between atoms: N_10  and  C_11
REMARK    7  A    between atoms: C_11  and  C_12
REMARK                            x       y       z     vdW  Elec       q    Type
REMARK                         _______ _______ _______ _____ _____    ______ ____
ROOT
ATOM      1  C   UNL     1      47.416   3.719  17.092  0.00  0.00    +0.000 C 
ENDROOT
BRANCH   1   2
ATOM      2  C   UNL     1      48.883   3.576  17.378  0.00  0.00    +0.000 A 
ATOM      3  C   UNL     1      49.622   4.617  17.939  0.00  0.00    +0.000 A 
ATOM      4  C   UNL     1      50.985   4.448  18.179  0.00  0.00    +0.000 A 
ATOM      5  C   UNL     1      51.583   3.231  17.861  0.00  0.00    +0.000 A 
ATOM      6  N   UNL     1      50.880   2.193  17.340  0.00  0.00    +0.000 NA
ATOM      7  C   UNL     1      49.556   2.386  17.122  0.00  0.00    +0.000 A 
BRANCH   5   8
ATOM      8  C   UNL     1      53.076   3.036  18.078  0.00  0.00    +0.000 C 
BRANCH   8   9
ATOM      9  N   UNL     1      53.429   2.069  19.133  0.00  0.00    +0.000 NA
ATOM     10  H   UNL     1      52.574   1.550  19.351  0.00  0.00    +0.000 HD
BRANCH   9  11
ATOM     11  C   UNL     1      54.450   1.106  18.687  0.00  0.00    +0.000 C 
BRANCH  11  12
ATOM     12  C   UNL     1      53.814  -0.039  17.852  0.00  0.00    +0.000 C 
ATOM     13  C   UNL     1      54.853  -0.928  17.188  0.00  0.00    +0.000 C 
ATOM     14  C   UNL     1      55.217  -1.920  18.274  0.00  0.00    +0.000 C 
ATOM     15  C   UNL     1      53.953  -2.046  19.111  0.00  0.00    +0.000 C 
ATOM     16  N   UNL     1      53.040  -0.987  18.673  0.00  0.00    +0.000 NA
ATOM     17  H   UNL     1      52.652  -0.483  19.473  0.00  0.00    +0.000 HD
ENDBRANCH  11  12
ENDBRANCH   9  11
ENDBRANCH   8   9
ENDBRANCH   5   8
ENDBRANCH   1   2
BRANCH   1  20
ATOM     18  O   UNL     1      47.336   3.090  14.383  0.00  0.00    +0.000 OA
ATOM     19  C   UNL     1      47.084   4.242  14.721  0.00  0.00    +0.000 C 
ATOM     20  N   UNL     1      47.178   4.659  16.027  0.00  0.00    +0.000 N 
ATOM     21  H   UNL     1      46.763   5.547  16.287  0.00  0.00    +0.000 HD
BRANCH  19  22
ATOM     22  C   UNL     1      46.716   5.272  13.741  0.00  0.00    +0.000 A 
ATOM     23  C   UNL     1      45.528   5.170  13.034  0.00  0.00    +0.000 A 
ATOM     24  S   UNL     1      45.295   6.433  11.910  0.00  0.00    +0.000 S 
ATOM     25  C   UNL     1      46.749   7.188  12.371  0.00  0.00    +0.000 A 
ATOM     26  N   UNL     1      47.150   8.355  11.796  0.00  0.00    +0.000 NA
ATOM     27  C   UNL     1      48.251   8.833  12.272  0.00  0.00    +0.000 A 
ATOM     28  N   UNL     1      48.991   8.250  13.268  0.00  0.00    +0.000 N 
ATOM     29  C   UNL     1      48.646   7.054  13.851  0.00  0.00    +0.000 A 
ATOM     30  O   UNL     1      49.360   6.528  14.697  0.00  0.00    +0.000 OA
ATOM     31  C   UNL     1      47.409   6.480  13.359  0.00  0.00    +0.000 A 
ATOM     32  H   UNL     1      49.850   8.670  13.590  0.00  0.00    +0.000 HD
ENDBRANCH  19  22
ENDBRANCH   1  20
TORSDOF 7
ENDMDL
MODEL 9
REMARK VINA RESULT:    -6.240      1.556      2.628
REMARK INTER + INTRA:         -10.113
REMARK INTER:                  -9.106
REMARK INTRA:                  -1.007
REMARK UNBOUND:                -1.320
REMARK  Name = 
REMARK  7 active torsions:
REMARK  status: ('A' for Active; 'I' for Inactive)
REMARK    1  A    between atoms: C_2  and  C_19
REMARK    2  A    between atoms: N_3  and  C_4
REMARK    3  A    between atoms: C_4  and  C_5
REMARK    4  A    between atoms: C_8  and  C_9
REMARK    5  A    between atoms: C_9  and  N_10
REMARK    6  A    between atoms: N_10  and  C_11
REMARK    7  A    between atoms: C_11  and  C_12
REMARK                            x       y       z     vdW  Elec       q    Type
REMARK                         _______ _______ _______ _____ _____    ______ ____
ROOT
ATOM      1  C   UNL     1      49.135   8.562  13.996  0.00  0.00    +0.000 C 
ENDROOT
BRANCH   1   2
ATOM      2  C   UNL     1      47.951   7.995  13.268  0.00  0.00    +0.000 A 
ATOM      3  C   UNL     1      46.767   8.719  13.125  0.00  0.00    +0.000 A 
ATOM      4  C   UNL     1      45.685   8.154  12.451  0.00  0.00    +0.000 A 
ATOM      5  C   UNL     1      45.812   6.872  11.922  0.00  0.00    +0.000 A 
ATOM      6  N   UNL     1      46.963   6.158  12.023  0.00  0.00    +0.000 NA
ATOM      7  C   UNL     1      47.998   6.735  12.679  0.00  0.00    +0.000 A 
BRANCH   5   8
ATOM      8  C   UNL     1      44.633   6.219  11.216  0.00  0.00    +0.000 C 
BRANCH   8   9
ATOM      9  N   UNL     1      44.991   5.377  10.060  0.00  0.00    +0.000 NA
ATOM     10  H   UNL     1      45.961   5.603   9.822  0.00  0.00    +0.000 HD
BRANCH   9  11
ATOM     11  C   UNL     1      44.918   3.940  10.373  0.00  0.00    +0.000 C 
BRANCH  11  12
ATOM     12  C   UNL     1      44.342   3.135   9.177  0.00  0.00    +0.000 C 
ATOM     13  C   UNL     1      44.836   3.647   7.833  0.00  0.00    +0.000 C 
ATOM     14  C   UNL     1      46.171   2.953   7.659  0.00  0.00    +0.000 C 
ATOM     15  C   UNL     1      46.016   1.639   8.409  0.00  0.00    +0.000 C 
ATOM     16  N   UNL     1      44.769   1.725   9.174  0.00  0.00    +0.000 NA
ATOM     17  H   UNL     1      44.912   1.426  10.141  0.00  0.00    +0.000 HD
ENDBRANCH  11  12
ENDBRANCH   9  11
ENDBRANCH   8   9
ENDBRANCH   5   8
ENDBRANCH   1   2
BRANCH   1  20
ATOM     18  O   UNL     1      47.951   9.192  16.433  0.00  0.00    +0.000 OA
ATOM     19  C   UNL     1      48.681   8.208  16.378  0.00  0.00    +0.000 C 
ATOM     20  N   UNL     1      49.368   7.870  15.237  0.00  0.00    +0.000 N 
ATOM     21  H   UNL     1      49.784   6.948  15.173  0.00  0.00    +0.000 HD
BRANCH  19  22
ATOM     22  C   UNL     1      48.914   7.350  17.548  0.00  0.00    +0.000 A 
ATOM     23  C   UNL     1      49.348   7.903  18.742  0.00  0.00    +0.000 A 
ATOM     24  S   UNL     1      49.608   6.748  19.972  0.00  0.00    +0.000 S 
ATOM     25  C   UNL     1      49.094   5.477  18.963  0.00  0.00    +0.000 A 
ATOM     26  N   UNL     1      49.055   4.193  19.414  0.00  0.00    +0.000 NA
ATOM     27  C   UNL     1      48.607   3.340  18.554  0.00  0.00    +0.000 A 
ATOM     28  N   UNL     1      48.199   3.652  17.282  0.00  0.00    +0.000 N 
ATOM     29  C   UNL     1      48.257   4.926  16.772  0.00  0.00    +0.000 A 
ATOM     30  O   UNL     1      47.942   5.163  15.612  0.00  0.00    +0.000 OA
ATOM     31  C   UNL     1      48.743   5.925  17.704  0.00  0.00    +0.000 A 
ATOM     32  H   UNL     1      47.868   2.935  16.654  0.00  0.00    +0.000 HD
ENDBRANCH  19  22
ENDBRANCH   1  20
TORSDOF 7
ENDMDL
