MODEL 1
REMARK VINA RESULT:    -7.168      0.000      0.000
REMARK INTER + INTRA:          -9.947
REMARK INTER:                  -9.473
REMARK INTRA:                  -0.474
REMARK UNBOUND:                -0.474
REMARK  Name = 
REMARK  6 active torsions:
REMARK  status: ('A' for Active; 'I' for Inactive)
REMARK    1  A    between atoms: N_1  and  C_2
REMARK    2  A    between atoms: C_2  and  C_3
REMARK    3  A    between atoms: C_3  and  C_4
REMARK    4  A    between atoms: C_8  and  O_9
REMARK    5  A    between atoms: O_9  and  C_10
REMARK    6  A    between atoms: C_10  and  C_11
REMARK                            x       y       z     vdW  Elec       q    Type
REMARK                         _______ _______ _______ _____ _____    ______ ____
ROOT
ATOM      1  C   UNL     1      45.413   5.234  12.497  0.00  0.00    +0.000 A 
ATOM      2  C   UNL     1      44.221   5.519  13.174  0.00  0.00    +0.000 A 
ATOM      3  C   UNL     1      42.991   5.210  12.590  0.00  0.00    +0.000 A 
ATOM      4  C   UNL     1      42.945   4.588  11.342  0.00  0.00    +0.000 A 
ATOM      5  C   UNL     1      44.126   4.259  10.680  0.00  0.00    +0.000 A 
ATOM      6  C   UNL     1      45.353   4.607  11.244  0.00  0.00    +0.000 A 
ENDROOT
BRANCH   1   7
ATOM      7  C   UNL     1      46.756   5.567  13.097  0.00  0.00    +0.000 C 
BRANCH   7   8
ATOM      8  C   UNL     1      47.019   4.789  14.393  0.00  0.00    +0.000 C 
BRANCH   8   9
ATOM      9  N   UNL     1      47.208   3.365  14.113  0.00  0.00    +0.000 NA
ATOM     10  H   UNL     1      46.906   3.166  13.159  0.00  0.00    +0.000 HD
ATOM     11  H   UNL     1      46.608   2.812  14.724  0.00  0.00    +0.000 HD
ENDBRANCH   8   9
ENDBRANCH   7   8
ENDBRANCH   1   7
BRANCH   5  12
ATOM     12  O   UNL     1      43.977   3.594   9.493  0.00  0.00    +0.000 OA
BRANCH  12  13
ATOM     13  C   UNL     1      44.583   2.297   9.449  0.00  0.00    +0.000 C 
BRANCH  13  14
ATOM     14  C   UNL     1      45.646   2.255   8.380  0.00  0.00    +0.000 A 
ATOM     15  C   UNL     1      45.836   3.355   7.543  0.00  0.00    +0.000 A 
ATOM     16  C   UNL     1      46.776   3.267   6.524  0.00  0.00    +0.000 A 
ATOM     17  C   UNL     1      47.499   2.091   6.364  0.00  0.00    +0.000 A 
ATOM     18  C   UNL     1      47.247   1.044   7.234  0.00  0.00    +0.000 A 
ATOM     19  N   UNL     1      46.337   1.095   8.231  0.00  0.00    +0.000 NA
ENDBRANCH  13  14
ENDBRANCH  12  13
ENDBRANCH   5  12
TORSDOF 6
ENDMDL
MODEL 2
REMARK VINA RESULT:    -6.805      1.392      5.844
REMARK INTER + INTRA:          -9.467
REMARK INTER:                  -9.058
REMARK INTRA:                  -0.409
REMARK UNBOUND:                -0.474
REMARK  Name = 
REMARK  6 active torsions:
REMARK  status: ('A' for Active; 'I' for Inactive)
REMARK    1  A    between atoms: N_1  and  C_2
REMARK    2  A    between atoms: C_2  and  C_3
REMARK    3  A    between atoms: C_3  and  C_4
REMARK    4  A    between atoms: C_8  and  O_9
REMARK    5  A    between atoms: O_9  and  C_10
REMARK    6  A    between atoms: C_10  and  C_11
REMARK                            x       y       z     vdW  Elec       q    Type
REMARK                         _______ _______ _______ _____ _____    ______ ____
ROOT
ATOM      1  C   UNL     1      46.031   3.310   7.899  0.00  0.00    +0.000 A 
ATOM      2  C   UNL     1      45.763   1.974   8.223  0.00  0.00    +0.000 A 
ATOM      3  C   UNL     1      44.841   1.667   9.226  0.00  0.00    +0.000 A 
ATOM      4  C   UNL     1      44.162   2.689   9.890  0.00  0.00    +0.000 A 
ATOM      5  C   UNL     1      44.388   4.020   9.544  0.00  0.00    +0.000 A 
ATOM      6  C   UNL     1      45.341   4.327   8.572  0.00  0.00    +0.000 A 
ENDROOT
BRANCH   1   7
ATOM      7  C   UNL     1      47.030   3.673   6.829  0.00  0.00    +0.000 C 
BRANCH   7   8
ATOM      8  C   UNL     1      47.120   2.601   5.735  0.00  0.00    +0.000 C 
BRANCH   8   9
ATOM      9  N   UNL     1      48.432   1.954   5.751  0.00  0.00    +0.000 NA
ATOM     10  H   UNL     1      48.893   2.148   6.640  0.00  0.00    +0.000 HD
ATOM     11  H   UNL     1      49.024   2.360   5.028  0.00  0.00    +0.000 HD
ENDBRANCH   8   9
ENDBRANCH   7   8
ENDBRANCH   1   7
BRANCH   5  12
ATOM     12  O   UNL     1      43.627   4.944  10.207  0.00  0.00    +0.000 OA
BRANCH  12  13
ATOM     13  C   UNL     1      43.475   4.703  11.610  0.00  0.00    +0.000 C 
BRANCH  13  14
ATOM     14  C   UNL     1      44.728   5.106  12.347  0.00  0.00    +0.000 A 
ATOM     15  C   UNL     1      45.376   6.297  12.018  0.00  0.00    +0.000 A 
ATOM     16  C   UNL     1      46.565   6.614  12.666  0.00  0.00    +0.000 A 
ATOM     17  C   UNL     1      47.075   5.740  13.618  0.00  0.00    +0.000 A 
ATOM     18  C   UNL     1      46.373   4.576  13.882  0.00  0.00    +0.000 A 
ATOM     19  N   UNL     1      45.219   4.237  13.267  0.00  0.00    +0.000 NA
ENDBRANCH  13  14
ENDBRANCH  12  13
ENDBRANCH   5  12
TORSDOF 6
ENDMDL
MODEL 3
REMARK VINA RESULT:    -6.751      1.433      1.660
REMARK INTER + INTRA:          -9.395
REMARK INTER:                  -8.901
REMARK INTRA:                  -0.494
REMARK UNBOUND:                -0.474
REMARK  Name = 
REMARK  6 active torsions:
REMARK  status: ('A' for Active; 'I' for Inactive)
REMARK    1  A    between atoms: N_1  and  C_2
REMARK    2  A    between atoms: C_2  and  C_3
REMARK    3  A    between atoms: C_3  and  C_4
REMARK    4  A    between atoms: C_8  and  O_9
REMARK    5  A    between atoms: O_9  and  C_10
REMARK    6  A    between atoms: C_10  and  C_11
REMARK                            x       y       z     vdW  Elec       q    Type
REMARK                         _______ _______ _______ _____ _____    ______ ____
ROOT
ATOM      1  C   UNL     1      46.237   6.196  12.076  0.00  0.00    +0.000 A 
ATOM      2  C   UNL     1      45.926   5.461  13.226  0.00  0.00    +0.000 A 
ATOM      3  C   UNL     1      45.057   4.370  13.148  0.00  0.00    +0.000 A 
ATOM      4  C   UNL     1      44.518   3.991  11.919  0.00  0.00    +0.000 A 
ATOM      5  C   UNL     1      44.856   4.688  10.761  0.00  0.00    +0.000 A 
ATOM      6  C   UNL     1      45.690   5.803  10.846  0.00  0.00    +0.000 A 
ENDROOT
BRANCH   1   7
ATOM      7  C   UNL     1      47.163   7.385  12.130  0.00  0.00    +0.000 C 
BRANCH   7   8
ATOM      8  C   UNL     1      48.174   7.278  13.279  0.00  0.00    +0.000 C 
BRANCH   8   9
ATOM      9  N   UNL     1      49.395   6.608  12.834  0.00  0.00    +0.000 NA
ATOM     10  H   UNL     1      50.098   7.310  12.600  0.00  0.00    +0.000 HD
ATOM     11  H   UNL     1      49.211   6.091  11.975  0.00  0.00    +0.000 HD
ENDBRANCH   8   9
ENDBRANCH   7   8
ENDBRANCH   1   7
BRANCH   5  12
ATOM     12  O   UNL     1      44.327   4.199   9.597  0.00  0.00    +0.000 OA
BRANCH  12  13
ATOM     13  C   UNL     1      44.468   2.786   9.419  0.00  0.00    +0.000 C 
BRANCH  13  14
ATOM     14  C   UNL     1      45.524   2.493   8.383  0.00  0.00    +0.000 A 
ATOM     15  C   UNL     1      45.840   3.452   7.420  0.00  0.00    +0.000 A 
ATOM     16  C   UNL     1      46.769   3.133   6.437  0.00  0.00    +0.000 A 
ATOM     17  C   UNL     1      47.357   1.875   6.437  0.00  0.00    +0.000 A 
ATOM     18  C   UNL     1      46.985   0.978   7.426  0.00  0.00    +0.000 A 
ATOM     19  N   UNL     1      46.082   1.255   8.392  0.00  0.00    +0.000 NA
ENDBRANCH  13  14
ENDBRANCH  12  13
ENDBRANCH   5  12
TORSDOF 6
ENDMDL
MODEL 4
REMARK VINA RESULT:    -6.560      1.625      2.287
REMARK INTER + INTRA:          -9.144
REMARK INTER:                  -8.702
REMARK INTRA:                  -0.441
REMARK UNBOUND:                -0.474
REMARK  Name = 
REMARK  6 active torsions:
REMARK  status: ('A' for Active; 'I' for Inactive)
REMARK    1  A    between atoms: N_1  and  C_2
REMARK    2  A    between atoms: C_2  and  C_3
REMARK    3  A    between atoms: C_3  and  C_4
REMARK    4  A    between atoms: C_8  and  O_9
REMARK    5  A    between atoms: O_9  and  C_10
REMARK    6  A    between atoms: C_10  and  C_11
REMARK                            x       y       z     vdW  Elec       q    Type
REMARK                         _______ _______ _______ _____ _____    ______ ____
ROOT
ATOM      1  C   UNL     1      46.606   4.208  13.756  0.00  0.00    +0.000 A 
ATOM      2  C   UNL     1      46.695   5.601  13.653  0.00  0.00    +0.000 A 
ATOM      3  C   UNL     1      46.037   6.272  12.620  0.00  0.00    +0.000 A 
ATOM      4  C   UNL     1      45.265   5.560  11.703  0.00  0.00    +0.000 A 
ATOM      5  C   UNL     1      45.133   4.178  11.822  0.00  0.00    +0.000 A 
ATOM      6  C   UNL     1      45.825   3.504  12.828  0.00  0.00    +0.000 A 
ENDROOT
BRANCH   1   7
ATOM      7  C   UNL     1      47.315   3.454  14.853  0.00  0.00    +0.000 C 
BRANCH   7   8
ATOM      8  C   UNL     1      47.231   4.182  16.201  0.00  0.00    +0.000 C 
BRANCH   8   9
ATOM      9  N   UNL     1      46.740   3.283  17.245  0.00  0.00    +0.000 NA
ATOM     10  H   UNL     1      46.208   3.821  17.930  0.00  0.00    +0.000 HD
ATOM     11  H   UNL     1      47.528   2.879  17.750  0.00  0.00    +0.000 HD
ENDBRANCH   8   9
ENDBRANCH   7   8
ENDBRANCH   1   7
BRANCH   5  12
ATOM     12  O   UNL     1      44.303   3.579  10.913  0.00  0.00    +0.000 OA
BRANCH  12  13
ATOM     13  C   UNL     1      44.297   4.183   9.615  0.00  0.00    +0.000 C 
BRANCH  13  14
ATOM     14  C   UNL     1      45.223   3.435   8.688  0.00  0.00    +0.000 A 
ATOM     15  C   UNL     1      45.418   2.064   8.856  0.00  0.00    +0.000 A 
ATOM     16  C   UNL     1      46.326   1.411   8.031  0.00  0.00    +0.000 A 
ATOM     17  C   UNL     1      47.014   2.137   7.067  0.00  0.00    +0.000 A 
ATOM     18  C   UNL     1      46.767   3.496   6.969  0.00  0.00    +0.000 A 
ATOM     19  N   UNL     1      45.895   4.161   7.758  0.00  0.00    +0.000 NA
ENDBRANCH  13  14
ENDBRANCH  12  13
ENDBRANCH   5  12
TORSDOF 6
ENDMDL
MODEL 5
REMARK VINA RESULT:    -6.547      2.221      2.825
REMARK INTER + INTRA:          -9.126
REMARK INTER:                  -8.654
REMARK INTRA:                  -0.472
REMARK UNBOUND:                -0.474
REMARK  Name = 
REMARK  6 active torsions:
REMARK  status: ('A' for Active; 'I' for Inactive)
REMARK    1  A    between atoms: N_1  and  C_2
REMARK    2  A    between atoms: C_2  and  C_3
REMARK    3  A    between atoms: C_3  and  C_4
REMARK    4  A    between atoms: C_8  and  O_9
REMARK    5  A    between atoms: O_9  and  C_10
REMARK    6  A    between atoms: C_10  and  C_11
REMARK                            x       y       z     vdW  Elec       q    Type
REMARK                         _______ _______ _______ _____ _____    ______ ____
ROOT
ATOM      1  C   UNL     1      46.269   6.307  12.299  0.00  0.00    +0.000 A 
ATOM      2  C   UNL     1      46.862   5.584  13.341  0.00  0.00    +0.000 A 
ATOM      3  C   UNL     1      46.533   4.241  13.540  0.00  0.00    +0.000 A 
ATOM      4  C   UNL     1      45.633   3.607  12.683  0.00  0.00    +0.000 A 
ATOM      5  C   UNL     1      45.072   4.305  11.616  0.00  0.00    +0.000 A 
ATOM      6  C   UNL     1      45.368   5.657  11.444  0.00  0.00    +0.000 A 
ENDROOT
BRANCH   1   7
ATOM      7  C   UNL     1      46.596   7.761  12.067  0.00  0.00    +0.000 C 
BRANCH   7   8
ATOM      8  C   UNL     1      46.108   8.653  13.215  0.00  0.00    +0.000 C 
BRANCH   8   9
ATOM      9  N   UNL     1      44.985   9.485  12.783  0.00  0.00    +0.000 NA
ATOM     10  H   UNL     1      45.149   9.804  11.827  0.00  0.00    +0.000 HD
ATOM     11  H   UNL     1      44.936  10.324  13.359  0.00  0.00    +0.000 HD
ENDBRANCH   8   9
ENDBRANCH   7   8
ENDBRANCH   1   7
BRANCH   5  12
ATOM     12  O   UNL     1      44.252   3.578  10.795  0.00  0.00    +0.000 OA
BRANCH  12  13
ATOM     13  C   UNL     1      44.182   4.049   9.445  0.00  0.00    +0.000 C 
BRANCH  13  14
ATOM     14  C   UNL     1      45.215   3.352   8.595  0.00  0.00    +0.000 A 
ATOM     15  C   UNL     1      45.468   1.993   8.783  0.00  0.00    +0.000 A 
ATOM     16  C   UNL     1      46.471   1.388   8.033  0.00  0.00    +0.000 A 
ATOM     17  C   UNL     1      47.192   2.149   7.122  0.00  0.00    +0.000 A 
ATOM     18  C   UNL     1      46.881   3.494   7.000  0.00  0.00    +0.000 A 
ATOM     19  N   UNL     1      45.917   4.112   7.716  0.00  0.00    +0.000 NA
ENDBRANCH  13  14
ENDBRANCH  12  13
ENDBRANCH   5  12
TORSDOF 6
ENDMDL
MODEL 6
REMARK VINA RESULT:    -6.033      1.795      2.563
REMARK INTER + INTRA:          -8.446
REMARK INTER:                  -8.038
REMARK INTRA:                  -0.408
REMARK UNBOUND:                -0.474
REMARK  Name = 
REMARK  6 active torsions:
REMARK  status: ('A' for Active; 'I' for Inactive)
REMARK    1  A    between atoms: N_1  and  C_2
REMARK    2  A    between atoms: C_2  and  C_3
REMARK    3  A    between atoms: C_3  and  C_4
REMARK    4  A    between atoms: C_8  and  O_9
REMARK    5  A    between atoms: O_9  and  C_10
REMARK    6  A    between atoms: C_10  and  C_11
REMARK                            x       y       z     vdW  Elec       q    Type
REMARK                         _______ _______ _______ _____ _____    ______ ____
ROOT
ATOM      1  C   UNL     1      45.417   5.119  12.496  0.00  0.00    +0.000 A 
ATOM      2  C   UNL     1      46.274   6.183  12.803  0.00  0.00    +0.000 A 
ATOM      3  C   UNL     1      46.911   6.889  11.779  0.00  0.00    +0.000 A 
ATOM      4  C   UNL     1      46.672   6.555  10.446  0.00  0.00    +0.000 A 
ATOM      5  C   UNL     1      45.786   5.528  10.129  0.00  0.00    +0.000 A 
ATOM      6  C   UNL     1      45.185   4.796  11.152  0.00  0.00    +0.000 A 
ENDROOT
BRANCH   1   7
ATOM      7  C   UNL     1      44.725   4.331  13.580  0.00  0.00    +0.000 C 
BRANCH   7   8
ATOM      8  C   UNL     1      43.215   4.216  13.335  0.00  0.00    +0.000 C 
BRANCH   8   9
ATOM      9  N   UNL     1      42.596   5.540  13.286  0.00  0.00    +0.000 NA
ATOM     10  H   UNL     1      43.040   6.146  13.975  0.00  0.00    +0.000 HD
ATOM     11  H   UNL     1      41.615   5.472  13.555  0.00  0.00    +0.000 HD
ENDBRANCH   8   9
ENDBRANCH   7   8
ENDBRANCH   1   7
BRANCH   5  12
ATOM     12  O   UNL     1      45.570   5.320   8.793  0.00  0.00    +0.000 OA
BRANCH  12  13
ATOM     13  C   UNL     1      44.862   4.116   8.479  0.00  0.00    +0.000 C 
BRANCH  13  14
ATOM     14  C   UNL     1      45.799   3.104   7.869  0.00  0.00    +0.000 A 
ATOM     15  C   UNL     1      46.542   3.437   6.736  0.00  0.00    +0.000 A 
ATOM     16  C   UNL     1      47.348   2.466   6.155  0.00  0.00    +0.000 A 
ATOM     17  C   UNL     1      47.394   1.195   6.713  0.00  0.00    +0.000 A 
ATOM     18  C   UNL     1      46.622   0.944   7.835  0.00  0.00    +0.000 A 
ATOM     19  N   UNL     1      45.824   1.863   8.421  0.00  0.00    +0.000 NA
ENDBRANCH  13  14
ENDBRANCH  12  13
ENDBRANCH   5  12
TORSDOF 6
ENDMDL
MODEL 7
REMARK VINA RESULT:    -5.744      2.424      6.638
REMARK INTER + INTRA:          -8.064
REMARK INTER:                  -7.734
REMARK INTRA:                  -0.330
REMARK UNBOUND:                -0.474
REMARK  Name = 
REMARK  6 active torsions:
REMARK  status: ('A' for Active; 'I' for Inactive)
REMARK    1  A    between atoms: N_1  and  C_2
REMARK    2  A    between atoms: C_2  and  C_3
REMARK    3  A    between atoms: C_3  and  C_4
REMARK    4  A    between atoms: C_8  and  O_9
REMARK    5  A    between atoms: O_9  and  C_10
REMARK    6  A    between atoms: C_10  and  C_11
REMARK                            x       y       z     vdW  Elec       q    Type
REMARK                         _______ _______ _______ _____ _____    ______ ____
ROOT
ATOM      1  C   UNL     1      44.517   3.691  10.709  0.00  0.00    +0.000 A 
ATOM      2  C   UNL     1      43.402   4.532  10.627  0.00  0.00    +0.000 A 
ATOM      3  C   UNL     1      42.990   5.263  11.744  0.00  0.00    +0.000 A 
ATOM      4  C   UNL     1      43.707   5.180  12.938  0.00  0.00    +0.000 A 
ATOM      5  C   UNL     1      44.845   4.381  13.017  0.00  0.00    +0.000 A 
ATOM      6  C   UNL     1      45.230   3.618  11.914  0.00  0.00    +0.000 A 
ENDROOT
BRANCH   1   7
ATOM      7  C   UNL     1      44.979   2.881   9.524  0.00  0.00    +0.000 C 
BRANCH   7   8
ATOM      8  C   UNL     1      44.849   3.658   8.208  0.00  0.00    +0.000 C 
BRANCH   8   9
ATOM      9  N   UNL     1      46.056   4.443   7.949  0.00  0.00    +0.000 NA
ATOM     10  H   UNL     1      46.508   4.668   8.835  0.00  0.00    +0.000 HD
ATOM     11  H   UNL     1      45.802   5.334   7.524  0.00  0.00    +0.000 HD
ENDBRANCH   8   9
ENDBRANCH   7   8
ENDBRANCH   1   7
BRANCH   5  12
ATOM     12  O   UNL     1      45.515   4.416  14.210  0.00  0.00    +0.000 OA
BRANCH  12  13
ATOM     13  C   UNL     1      46.917   4.137  14.121  0.00  0.00    +0.000 C 
BRANCH  13  14
ATOM     14  C   UNL     1      47.456   3.746  15.474  0.00  0.00    +0.000 A 
ATOM     15  C   UNL     1      47.151   4.518  16.596  0.00  0.00    +0.000 A 
ATOM     16  C   UNL     1      47.714   4.174  17.819  0.00  0.00    +0.000 A 
ATOM     17  C   UNL     1      48.563   3.078  17.894  0.00  0.00    +0.000 A 
ATOM     18  C   UNL     1      48.819   2.367  16.733  0.00  0.00    +0.000 A 
ATOM     19  N   UNL     1      48.293   2.677  15.528  0.00  0.00    +0.000 NA
ENDBRANCH  13  14
ENDBRANCH  12  13
ENDBRANCH   5  12
TORSDOF 6
ENDMDL
MODEL 8
REMARK VINA RESULT:    -5.636      1.762      6.109
REMARK INTER + INTRA:          -7.922
REMARK INTER:                  -7.514
REMARK INTRA:                  -0.408
REMARK UNBOUND:                -0.474
REMARK  Name = 
REMARK  6 active torsions:
REMARK  status: ('A' for Active; 'I' for Inactive)
REMARK    1  A    between atoms: N_1  and  C_2
REMARK    2  A    between atoms: C_2  and  C_3
REMARK    3  A    between atoms: C_3  and  C_4
REMARK    4  A    between atoms: C_8  and  O_9
REMARK    5  A    between atoms: O_9  and  C_10
REMARK    6  A    between atoms: C_10  and  C_11
REMARK                            x       y       z     vdW  Elec       q    Type
REMARK                         _______ _______ _______ _____ _____    ______ ____
ROOT
ATOM      1  C   UNL     1      45.433   2.529   8.776  0.00  0.00    +0.000 A 
ATOM      2  C   UNL     1      46.157   3.454   8.014  0.00  0.00    +0.000 A 
ATOM      3  C   UNL     1      46.099   4.815   8.322  0.00  0.00    +0.000 A 
ATOM      4  C   UNL     1      45.343   5.256   9.408  0.00  0.00    +0.000 A 
ATOM      5  C   UNL     1      44.655   4.339  10.200  0.00  0.00    +0.000 A 
ATOM      6  C   UNL     1      44.678   2.985   9.866  0.00  0.00    +0.000 A 
ENDROOT
BRANCH   1   7
ATOM      7  C   UNL     1      45.466   1.055   8.461  0.00  0.00    +0.000 C 
BRANCH   7   8
ATOM      8  C   UNL     1      46.731   0.657   7.690  0.00  0.00    +0.000 C 
BRANCH   8   9
ATOM      9  N   UNL     1      46.854  -0.798   7.612  0.00  0.00    +0.000 NA
ATOM     10  H   UNL     1      47.347  -1.140   8.437  0.00  0.00    +0.000 HD
ATOM     11  H   UNL     1      47.429  -1.053   6.810  0.00  0.00    +0.000 HD
ENDBRANCH   8   9
ENDBRANCH   7   8
ENDBRANCH   1   7
BRANCH   5  12
ATOM     12  O   UNL     1      43.995   4.863  11.279  0.00  0.00    +0.000 OA
BRANCH  12  13
ATOM     13  C   UNL     1      44.621   4.618  12.544  0.00  0.00    +0.000 C 
BRANCH  13  14
ATOM     14  C   UNL     1      45.643   5.688  12.835  0.00  0.00    +0.000 A 
ATOM     15  C   UNL     1      46.928   5.331  13.242  0.00  0.00    +0.000 A 
ATOM     16  C   UNL     1      47.831   6.336  13.568  0.00  0.00    +0.000 A 
ATOM     17  C   UNL     1      47.433   7.664  13.481  0.00  0.00    +0.000 A 
ATOM     18  C   UNL     1      46.137   7.934  13.073  0.00  0.00    +0.000 A 
ATOM     19  N   UNL     1      45.234   6.981  12.754  0.00  0.00    +0.000 NA
ENDBRANCH  13  14
ENDBRANCH  12  13
ENDBRANCH   5  12
TORSDOF 6
ENDMDL
MODEL 9
REMARK VINA RESULT:    -5.503      2.529      5.816
REMARK INTER + INTRA:          -7.747
REMARK INTER:                  -7.257
REMARK INTRA:                  -0.490
REMARK UNBOUND:                -0.474
REMARK  Name = 
REMARK  6 active torsions:
REMARK  status: ('A' for Active; 'I' for Inactive)
REMARK    1  A    between atoms: N_1  and  C_2
REMARK    2  A    between atoms: C_2  and  C_3
REMARK    3  A    between atoms: C_3  and  C_4
REMARK    4  A    between atoms: C_8  and  O_9
REMARK    5  A    between atoms: O_9  and  C_10
REMARK    6  A    between atoms: C_10  and  C_11
REMARK                            x       y       z     vdW  Elec       q    Type
REMARK                         _______ _______ _______ _____ _____    ______ ____
ROOT
ATOM      1  C   UNL     1      44.618   3.948   9.743  0.00  0.00    +0.000 A 
ATOM      2  C   UNL     1      44.009   2.847  10.357  0.00  0.00    +0.000 A 
ATOM      3  C   UNL     1      43.887   2.798  11.747  0.00  0.00    +0.000 A 
ATOM      4  C   UNL     1      44.344   3.859  12.528  0.00  0.00    +0.000 A 
ATOM      5  C   UNL     1      44.910   4.980  11.924  0.00  0.00    +0.000 A 
ATOM      6  C   UNL     1      45.072   5.009  10.539  0.00  0.00    +0.000 A 
ENDROOT
BRANCH   1   7
ATOM      7  C   UNL     1      44.775   4.025   8.245  0.00  0.00    +0.000 C 
BRANCH   7   8
ATOM      8  C   UNL     1      46.025   3.280   7.757  0.00  0.00    +0.000 C 
BRANCH   8   9
ATOM      9  N   UNL     1      46.876   4.164   6.961  0.00  0.00    +0.000 NA
ATOM     10  H   UNL     1      46.635   5.135   7.162  0.00  0.00    +0.000 HD
ATOM     11  H   UNL     1      46.688   4.023   5.969  0.00  0.00    +0.000 HD
ENDBRANCH   8   9
ENDBRANCH   7   8
ENDBRANCH   1   7
BRANCH   5  12
ATOM     12  O   UNL     1      45.268   5.994  12.771  0.00  0.00    +0.000 OA
BRANCH  12  13
ATOM     13  C   UNL     1      46.529   5.814  13.425  0.00  0.00    +0.000 C 
BRANCH  13  14
ATOM     14  C   UNL     1      47.536   6.808  12.899  0.00  0.00    +0.000 A 
ATOM     15  C   UNL     1      47.104   8.036  12.396  0.00  0.00    +0.000 A 
ATOM     16  C   UNL     1      48.044   8.906  11.857  0.00  0.00    +0.000 A 
ATOM     17  C   UNL     1      49.382   8.533  11.832  0.00  0.00    +0.000 A 
ATOM     18  C   UNL     1      49.727   7.294  12.347  0.00  0.00    +0.000 A 
ATOM     19  N   UNL     1      48.838   6.423  12.873  0.00  0.00    +0.000 NA
ENDBRANCH  13  14
ENDBRANCH  12  13
ENDBRANCH   5  12
TORSDOF 6
ENDMDL
