MODEL 1
REMARK VINA RESULT:    -7.805      0.000      0.000
REMARK INTER + INTRA:         -11.589
REMARK INTER:                 -10.771
REMARK INTRA:                  -0.818
REMARK UNBOUND:                -0.818
REMARK  Name = 
REMARK  7 active torsions:
REMARK  status: ('A' for Active; 'I' for Inactive)
REMARK    1  A    between atoms: N_1  and  C_2
REMARK    2  A    between atoms: C_2  and  C_3
REMARK    3  A    between atoms: C_7  and  C_8
REMARK    4  A    between atoms: C_8  and  C_9
REMARK    5  A    between atoms: C_9  and  O_10
REMARK    6  A    between atoms: O_10  and  C_11
REMARK    7  A    between atoms: C_14  and  C_15
REMARK                            x       y       z     vdW  Elec       q    Type
REMARK                         _______ _______ _______ _____ _____    ______ ____
ROOT
ATOM      1  C   UNL     1      43.346   4.875  10.513  0.00  0.00    +0.000 C 
ENDROOT
BRANCH   1   2
ATOM      2  C   UNL     1      43.473   5.374  11.948  0.00  0.00    +0.000 C 
BRANCH   2   7
ATOM      3  C   UNL     1      46.774   5.195  13.879  0.00  0.00    +0.000 A 
ATOM      4  C   UNL     1      47.598   5.978  13.059  0.00  0.00    +0.000 A 
ATOM      5  C   UNL     1      47.086   6.591  11.916  0.00  0.00    +0.000 A 
ATOM      6  C   UNL     1      45.748   6.410  11.564  0.00  0.00    +0.000 A 
ATOM      7  C   UNL     1      44.911   5.606  12.347  0.00  0.00    +0.000 A 
ATOM      8  C   UNL     1      45.428   5.022  13.516  0.00  0.00    +0.000 A 
BRANCH   3   9
ATOM      9  C   UNL     1      47.339   4.505  15.096  0.00  0.00    +0.000 C 
BRANCH   9  10
ATOM     10  N   UNL     1      47.619   3.095  14.846  0.00  0.00    +0.000 NA
ATOM     11  H   UNL     1      48.609   2.986  14.639  0.00  0.00    +0.000 HD
ATOM     12  H   UNL     1      47.115   2.805  14.009  0.00  0.00    +0.000 HD
ENDBRANCH   9  10
ENDBRANCH   3   9
ENDBRANCH   2   7
ENDBRANCH   1   2
BRANCH   1  13
ATOM     13  O   UNL     1      43.634   3.468  10.460  0.00  0.00    +0.000 OA
BRANCH  13  14
ATOM     14  C   UNL     1      44.578   3.182   9.491  0.00  0.00    +0.000 A 
ATOM     15  C   UNL     1      45.080   4.235   8.742  0.00  0.00    +0.000 A 
ATOM     16  C   UNL     1      46.035   3.952   7.761  0.00  0.00    +0.000 A 
ATOM     17  C   UNL     1      46.456   2.630   7.560  0.00  0.00    +0.000 A 
ATOM     18  C   UNL     1      45.891   1.656   8.363  0.00  0.00    +0.000 A 
ATOM     19  N   UNL     1      44.966   1.902   9.317  0.00  0.00    +0.000 NA
BRANCH  17  20
ATOM     20  C   UNL     1      47.467   2.324   6.520  0.00  0.00    +0.000 C 
ATOM     21  N   UNL     1      47.475   3.056   5.364  0.00  0.00    +0.000 N 
ATOM     22  O   UNL     1      48.290   1.430   6.685  0.00  0.00    +0.000 OA
ATOM     23  H   UNL     1      46.846   3.806   5.128  0.00  0.00    +0.000 HD
ATOM     24  H   UNL     1      48.183   2.815   4.682  0.00  0.00    +0.000 HD
ENDBRANCH  17  20
ENDBRANCH  13  14
ENDBRANCH   1  13
TORSDOF 7
ENDMDL
MODEL 2
REMARK VINA RESULT:    -7.795      2.046      2.583
REMARK INTER + INTRA:         -11.575
REMARK INTER:                 -10.932
REMARK INTRA:                  -0.642
REMARK UNBOUND:                -0.818
REMARK  Name = 
REMARK  7 active torsions:
REMARK  status: ('A' for Active; 'I' for Inactive)
REMARK    1  A    between atoms: N_1  and  C_2
REMARK    2  A    between atoms: C_2  and  C_3
REMARK    3  A    between atoms: C_7  and  C_8
REMARK    4  A    between atoms: C_8  and  C_9
REMARK    5  A    between atoms: C_9  and  O_10
REMARK    6  A    between atoms: O_10  and  C_11
REMARK    7  A    between atoms: C_14  and  C_15
REMARK                            x       y       z     vdW  Elec       q    Type
REMARK                         _______ _______ _______ _____ _____    ______ ____
ROOT
ATOM      1  C   UNL     1      43.388   3.736  11.287  0.00  0.00    +0.000 C 
ENDROOT
BRANCH   1   2
ATOM      2  C   UNL     1      43.323   4.668  12.492  0.00  0.00    +0.000 C 
BRANCH   2   7
ATOM      3  C   UNL     1      45.998   7.382  12.866  0.00  0.00    +0.000 A 
ATOM      4  C   UNL     1      47.080   6.619  13.329  0.00  0.00    +0.000 A 
ATOM      5  C   UNL     1      46.961   5.238  13.482  0.00  0.00    +0.000 A 
ATOM      6  C   UNL     1      45.751   4.603  13.196  0.00  0.00    +0.000 A 
ATOM      7  C   UNL     1      44.645   5.345  12.763  0.00  0.00    +0.000 A 
ATOM      8  C   UNL     1      44.786   6.731  12.579  0.00  0.00    +0.000 A 
BRANCH   3   9
ATOM      9  C   UNL     1      46.119   8.879  12.736  0.00  0.00    +0.000 C 
BRANCH   9  10
ATOM     10  N   UNL     1      44.823   9.544  12.822  0.00  0.00    +0.000 NA
ATOM     11  H   UNL     1      44.968  10.525  13.049  0.00  0.00    +0.000 HD
ATOM     12  H   UNL     1      44.301   9.141  13.600  0.00  0.00    +0.000 HD
ENDBRANCH   9  10
ENDBRANCH   3   9
ENDBRANCH   2   7
ENDBRANCH   1   2
BRANCH   1  13
ATOM     13  O   UNL     1      43.690   4.493  10.103  0.00  0.00    +0.000 OA
BRANCH  13  14
ATOM     14  C   UNL     1      44.609   3.837   9.306  0.00  0.00    +0.000 A 
ATOM     15  C   UNL     1      44.727   2.462   9.445  0.00  0.00    +0.000 A 
ATOM     16  C   UNL     1      45.654   1.794   8.641  0.00  0.00    +0.000 A 
ATOM     17  C   UNL     1      46.432   2.517   7.725  0.00  0.00    +0.000 A 
ATOM     18  C   UNL     1      46.234   3.884   7.667  0.00  0.00    +0.000 A 
ATOM     19  N   UNL     1      45.346   4.556   8.433  0.00  0.00    +0.000 NA
BRANCH  17  20
ATOM     20  C   UNL     1      47.417   1.812   6.872  0.00  0.00    +0.000 C 
ATOM     21  N   UNL     1      48.508   2.498   6.409  0.00  0.00    +0.000 N 
ATOM     22  O   UNL     1      47.267   0.631   6.580  0.00  0.00    +0.000 OA
ATOM     23  H   UNL     1      48.726   3.465   6.588  0.00  0.00    +0.000 HD
ATOM     24  H   UNL     1      49.157   1.978   5.832  0.00  0.00    +0.000 HD
ENDBRANCH  17  20
ENDBRANCH  13  14
ENDBRANCH   1  13
TORSDOF 7
ENDMDL
MODEL 3
REMARK VINA RESULT:    -7.107      1.385      1.771
REMARK INTER + INTRA:         -10.626
REMARK INTER:                 -10.065
REMARK INTRA:                  -0.561
REMARK UNBOUND:                -0.818
REMARK  Name = 
REMARK  7 active torsions:
REMARK  status: ('A' for Active; 'I' for Inactive)
REMARK    1  A    between atoms: N_1  and  C_2
REMARK    2  A    between atoms: C_2  and  C_3
REMARK    3  A    between atoms: C_7  and  C_8
REMARK    4  A    between atoms: C_8  and  C_9
REMARK    5  A    between atoms: C_9  and  O_10
REMARK    6  A    between atoms: O_10  and  C_11
REMARK    7  A    between atoms: C_14  and  C_15
REMARK                            x       y       z     vdW  Elec       q    Type
REMARK                         _______ _______ _______ _____ _____    ______ ____
ROOT
ATOM      1  C   UNL     1      43.687   4.522  10.925  0.00  0.00    +0.000 C 
ENDROOT
BRANCH   1   2
ATOM      2  C   UNL     1      44.832   4.505  11.932  0.00  0.00    +0.000 C 
BRANCH   2   7
ATOM      3  C   UNL     1      47.546   7.167  12.384  0.00  0.00    +0.000 A 
ATOM      4  C   UNL     1      46.800   8.337  12.184  0.00  0.00    +0.000 A 
ATOM      5  C   UNL     1      45.428   8.272  11.946  0.00  0.00    +0.000 A 
ATOM      6  C   UNL     1      44.786   7.034  11.879  0.00  0.00    +0.000 A 
ATOM      7  C   UNL     1      45.514   5.848  12.043  0.00  0.00    +0.000 A 
ATOM      8  C   UNL     1      46.890   5.927  12.318  0.00  0.00    +0.000 A 
BRANCH   3   9
ATOM      9  C   UNL     1      49.036   7.239  12.607  0.00  0.00    +0.000 C 
BRANCH   9  10
ATOM     10  N   UNL     1      49.423   6.703  13.907  0.00  0.00    +0.000 NA
ATOM     11  H   UNL     1      50.252   7.193  14.234  0.00  0.00    +0.000 HD
ATOM     12  H   UNL     1      49.691   5.726  13.792  0.00  0.00    +0.000 HD
ENDBRANCH   9  10
ENDBRANCH   3   9
ENDBRANCH   2   7
ENDBRANCH   1   2
BRANCH   1  13
ATOM     13  O   UNL     1      43.547   3.222  10.327  0.00  0.00    +0.000 OA
BRANCH  13  14
ATOM     14  C   UNL     1      44.516   3.001   9.367  0.00  0.00    +0.000 A 
ATOM     15  C   UNL     1      44.889   4.066   8.561  0.00  0.00    +0.000 A 
ATOM     16  C   UNL     1      45.869   3.848   7.590  0.00  0.00    +0.000 A 
ATOM     17  C   UNL     1      46.446   2.576   7.454  0.00  0.00    +0.000 A 
ATOM     18  C   UNL     1      46.001   1.586   8.309  0.00  0.00    +0.000 A 
ATOM     19  N   UNL     1      45.054   1.768   9.256  0.00  0.00    +0.000 NA
BRANCH  17  20
ATOM     20  C   UNL     1      47.484   2.340   6.423  0.00  0.00    +0.000 C 
ATOM     21  N   UNL     1      47.475   3.095   5.282  0.00  0.00    +0.000 N 
ATOM     22  O   UNL     1      48.346   1.482   6.583  0.00  0.00    +0.000 OA
ATOM     23  H   UNL     1      46.816   3.821   5.052  0.00  0.00    +0.000 HD
ATOM     24  H   UNL     1      48.203   2.902   4.606  0.00  0.00    +0.000 HD
ENDBRANCH  17  20
ENDBRANCH  13  14
ENDBRANCH   1  13
TORSDOF 7
ENDMDL
MODEL 4
REMARK VINA RESULT:    -6.965      2.557      6.332
REMARK INTER + INTRA:         -10.430
REMARK INTER:                  -9.731
REMARK INTRA:                  -0.699
REMARK UNBOUND:                -0.818
REMARK  Name = 
REMARK  7 active torsions:
REMARK  status: ('A' for Active; 'I' for Inactive)
REMARK    1  A    between atoms: N_1  and  C_2
REMARK    2  A    between atoms: C_2  and  C_3
REMARK    3  A    between atoms: C_7  and  C_8
REMARK    4  A    between atoms: C_8  and  C_9
REMARK    5  A    between atoms: C_9  and  O_10
REMARK    6  A    between atoms: O_10  and  C_11
REMARK    7  A    between atoms: C_14  and  C_15
REMARK                            x       y       z     vdW  Elec       q    Type
REMARK                         _______ _______ _______ _____ _____    ______ ____
ROOT
ATOM      1  C   UNL     1      44.644   2.960  11.741  0.00  0.00    +0.000 C 
ENDROOT
BRANCH   1   2
ATOM      2  C   UNL     1      44.003   2.837  10.364  0.00  0.00    +0.000 C 
BRANCH   2   7
ATOM      3  C   UNL     1      46.566   1.995   7.646  0.00  0.00    +0.000 A 
ATOM      4  C   UNL     1      46.831   3.273   7.133  0.00  0.00    +0.000 A 
ATOM      5  C   UNL     1      46.220   4.399   7.684  0.00  0.00    +0.000 A 
ATOM      6  C   UNL     1      45.317   4.262   8.739  0.00  0.00    +0.000 A 
ATOM      7  C   UNL     1      45.010   2.994   9.249  0.00  0.00    +0.000 A 
ATOM      8  C   UNL     1      45.657   1.869   8.711  0.00  0.00    +0.000 A 
BRANCH   3   9
ATOM      9  C   UNL     1      47.200   0.775   7.026  0.00  0.00    +0.000 C 
BRANCH   9  10
ATOM     10  N   UNL     1      46.829  -0.451   7.725  0.00  0.00    +0.000 NA
ATOM     11  H   UNL     1      46.237  -0.214   8.517  0.00  0.00    +0.000 HD
ATOM     12  H   UNL     1      47.672  -0.875   8.110  0.00  0.00    +0.000 HD
ENDBRANCH   9  10
ENDBRANCH   3   9
ENDBRANCH   2   7
ENDBRANCH   1   2
BRANCH   1  13
ATOM     13  O   UNL     1      44.343   4.248  12.304  0.00  0.00    +0.000 OA
BRANCH  13  14
ATOM     14  C   UNL     1      45.485   4.880  12.758  0.00  0.00    +0.000 A 
ATOM     15  C   UNL     1      46.032   5.880  11.968  0.00  0.00    +0.000 A 
ATOM     16  C   UNL     1      47.186   6.523  12.422  0.00  0.00    +0.000 A 
ATOM     17  C   UNL     1      47.756   6.149  13.648  0.00  0.00    +0.000 A 
ATOM     18  C   UNL     1      47.129   5.141  14.356  0.00  0.00    +0.000 A 
ATOM     19  N   UNL     1      46.014   4.501  13.940  0.00  0.00    +0.000 NA
BRANCH  17  20
ATOM     20  C   UNL     1      48.982   6.827  14.133  0.00  0.00    +0.000 C 
ATOM     21  N   UNL     1      49.881   7.309  13.221  0.00  0.00    +0.000 N 
ATOM     22  O   UNL     1      49.195   6.961  15.333  0.00  0.00    +0.000 OA
ATOM     23  H   UNL     1      49.804   7.252  12.218  0.00  0.00    +0.000 HD
ATOM     24  H   UNL     1      50.703   7.767  13.595  0.00  0.00    +0.000 HD
ENDBRANCH  17  20
ENDBRANCH  13  14
ENDBRANCH   1  13
TORSDOF 7
ENDMDL
MODEL 5
REMARK VINA RESULT:    -6.705      2.232      6.862
REMARK INTER + INTRA:         -10.071
REMARK INTER:                  -9.563
REMARK INTRA:                  -0.508
REMARK UNBOUND:                -0.818
REMARK  Name = 
REMARK  7 active torsions:
REMARK  status: ('A' for Active; 'I' for Inactive)
REMARK    1  A    between atoms: N_1  and  C_2
REMARK    2  A    between atoms: C_2  and  C_3
REMARK    3  A    between atoms: C_7  and  C_8
REMARK    4  A    between atoms: C_8  and  C_9
REMARK    5  A    between atoms: C_9  and  O_10
REMARK    6  A    between atoms: O_10  and  C_11
REMARK    7  A    between atoms: C_14  and  C_15
REMARK                            x       y       z     vdW  Elec       q    Type
REMARK                         _______ _______ _______ _____ _____    ______ ____
ROOT
ATOM      1  C   UNL     1      44.372   4.842  10.532  0.00  0.00    +0.000 C 
ENDROOT
BRANCH   1   2
ATOM      2  C   UNL     1      44.232   4.688   9.022  0.00  0.00    +0.000 C 
BRANCH   2   7
ATOM      3  C   UNL     1      46.580   2.585   6.849  0.00  0.00    +0.000 A 
ATOM      4  C   UNL     1      46.550   1.364   7.538  0.00  0.00    +0.000 A 
ATOM      5  C   UNL     1      45.750   1.208   8.669  0.00  0.00    +0.000 A 
ATOM      6  C   UNL     1      44.987   2.277   9.142  0.00  0.00    +0.000 A 
ATOM      7  C   UNL     1      45.024   3.516   8.491  0.00  0.00    +0.000 A 
ATOM      8  C   UNL     1      45.806   3.653   7.332  0.00  0.00    +0.000 A 
BRANCH   3   9
ATOM      9  C   UNL     1      47.473   2.762   5.646  0.00  0.00    +0.000 C 
BRANCH   9  10
ATOM     10  N   UNL     1      48.581   1.812   5.641  0.00  0.00    +0.000 NA
ATOM     11  H   UNL     1      49.449   2.317   5.805  0.00  0.00    +0.000 HD
ATOM     12  H   UNL     1      48.656   1.402   4.711  0.00  0.00    +0.000 HD
ENDBRANCH   9  10
ENDBRANCH   3   9
ENDBRANCH   2   7
ENDBRANCH   1   2
BRANCH   1  13
ATOM     13  O   UNL     1      45.516   5.658  10.834  0.00  0.00    +0.000 OA
BRANCH  13  14
ATOM     14  C   UNL     1      46.045   5.348  12.072  0.00  0.00    +0.000 A 
ATOM     15  C   UNL     1      46.776   6.325  12.730  0.00  0.00    +0.000 A 
ATOM     16  C   UNL     1      47.313   6.018  13.983  0.00  0.00    +0.000 A 
ATOM     17  C   UNL     1      47.103   4.747  14.539  0.00  0.00    +0.000 A 
ATOM     18  C   UNL     1      46.358   3.848  13.798  0.00  0.00    +0.000 A 
ATOM     19  N   UNL     1      45.829   4.118  12.584  0.00  0.00    +0.000 NA
BRANCH  17  20
ATOM     20  C   UNL     1      47.672   4.416  15.866  0.00  0.00    +0.000 C 
ATOM     21  N   UNL     1      46.921   3.687  16.749  0.00  0.00    +0.000 N 
ATOM     22  O   UNL     1      48.799   4.784  16.178  0.00  0.00    +0.000 OA
ATOM     23  H   UNL     1      45.990   3.338  16.596  0.00  0.00    +0.000 HD
ATOM     24  H   UNL     1      47.349   3.482  17.643  0.00  0.00    +0.000 HD
ENDBRANCH  17  20
ENDBRANCH  13  14
ENDBRANCH   1  13
TORSDOF 7
ENDMDL
MODEL 6
REMARK VINA RESULT:    -6.533      3.555      5.982
REMARK INTER + INTRA:          -9.834
REMARK INTER:                  -9.446
REMARK INTRA:                  -0.388
REMARK UNBOUND:                -0.818
REMARK  Name = 
REMARK  7 active torsions:
REMARK  status: ('A' for Active; 'I' for Inactive)
REMARK    1  A    between atoms: N_1  and  C_2
REMARK    2  A    between atoms: C_2  and  C_3
REMARK    3  A    between atoms: C_7  and  C_8
REMARK    4  A    between atoms: C_8  and  C_9
REMARK    5  A    between atoms: C_9  and  O_10
REMARK    6  A    between atoms: O_10  and  C_11
REMARK    7  A    between atoms: C_14  and  C_15
REMARK                            x       y       z     vdW  Elec       q    Type
REMARK                         _______ _______ _______ _____ _____    ______ ____
ROOT
ATOM      1  C   UNL     1      47.215   4.130  15.653  0.00  0.00    +0.000 C 
ENDROOT
BRANCH   1   2
ATOM      2  C   UNL     1      47.661   3.255  16.819  0.00  0.00    +0.000 C 
BRANCH   2   7
ATOM      3  C   UNL     1      51.344   2.511  17.556  0.00  0.00    +0.000 A 
ATOM      4  C   UNL     1      51.847   3.811  17.710  0.00  0.00    +0.000 A 
ATOM      5  C   UNL     1      51.000   4.915  17.617  0.00  0.00    +0.000 A 
ATOM      6  C   UNL     1      49.643   4.736  17.344  0.00  0.00    +0.000 A 
ATOM      7  C   UNL     1      49.121   3.451  17.154  0.00  0.00    +0.000 A 
ATOM      8  C   UNL     1      49.976   2.343  17.285  0.00  0.00    +0.000 A 
BRANCH   3   9
ATOM      9  C   UNL     1      52.269   1.321  17.623  0.00  0.00    +0.000 C 
BRANCH   9  10
ATOM     10  N   UNL     1      51.602   0.139  18.160  0.00  0.00    +0.000 NA
ATOM     11  H   UNL     1      52.116  -0.690  17.869  0.00  0.00    +0.000 HD
ATOM     12  H   UNL     1      50.676   0.068  17.741  0.00  0.00    +0.000 HD
ENDBRANCH   9  10
ENDBRANCH   3   9
ENDBRANCH   2   7
ENDBRANCH   1   2
BRANCH   1  13
ATOM     13  O   UNL     1      47.470   3.453  14.411  0.00  0.00    +0.000 OA
BRANCH  13  14
ATOM     14  C   UNL     1      46.556   3.817  13.440  0.00  0.00    +0.000 A 
ATOM     15  C   UNL     1      46.559   5.133  13.005  0.00  0.00    +0.000 A 
ATOM     16  C   UNL     1      45.637   5.507  12.023  0.00  0.00    +0.000 A 
ATOM     17  C   UNL     1      44.744   4.556  11.509  0.00  0.00    +0.000 A 
ATOM     18  C   UNL     1      44.826   3.272  12.013  0.00  0.00    +0.000 A 
ATOM     19  N   UNL     1      45.707   2.884  12.963  0.00  0.00    +0.000 NA
BRANCH  17  20
ATOM     20  C   UNL     1      43.763   4.948  10.469  0.00  0.00    +0.000 C 
ATOM     21  N   UNL     1      43.958   4.534   9.179  0.00  0.00    +0.000 N 
ATOM     22  O   UNL     1      42.785   5.632  10.752  0.00  0.00    +0.000 OA
ATOM     23  H   UNL     1      44.723   3.973   8.841  0.00  0.00    +0.000 HD
ATOM     24  H   UNL     1      43.263   4.822   8.502  0.00  0.00    +0.000 HD
ENDBRANCH  17  20
ENDBRANCH  13  14
ENDBRANCH   1  13
TORSDOF 7
ENDMDL
MODEL 7
REMARK VINA RESULT:    -6.137      2.995      7.524
REMARK INTER + INTRA:          -9.286
REMARK INTER:                  -8.754
REMARK INTRA:                  -0.532
REMARK UNBOUND:                -0.818
REMARK  Name = 
REMARK  7 active torsions:
REMARK  status: ('A' for Active; 'I' for Inactive)
REMARK    1  A    between atoms: N_1  and  C_2
REMARK    2  A    between atoms: C_2  and  C_3
REMARK    3  A    between atoms: C_7  and  C_8
REMARK    4  A    between atoms: C_8  and  C_9
REMARK    5  A    between atoms: C_9  and  O_10
REMARK    6  A    between atoms: O_10  and  C_11
REMARK    7  A    between atoms: C_14  and  C_15
REMARK                            x       y       z     vdW  Elec       q    Type
REMARK                         _______ _______ _______ _____ _____    ______ ____
ROOT
ATOM      1  C   UNL     1      45.777   6.240  12.630  0.00  0.00    +0.000 C 
ENDROOT
BRANCH   1   2
ATOM      2  C   UNL     1      45.447   6.417  11.152  0.00  0.00    +0.000 C 
BRANCH   2   7
ATOM      3  C   UNL     1      45.311   3.629   8.532  0.00  0.00    +0.000 A 
ATOM      4  C   UNL     1      44.608   2.642   9.237  0.00  0.00    +0.000 A 
ATOM      5  C   UNL     1      44.146   2.887  10.530  0.00  0.00    +0.000 A 
ATOM      6  C   UNL     1      44.403   4.114  11.145  0.00  0.00    +0.000 A 
ATOM      7  C   UNL     1      45.132   5.104  10.475  0.00  0.00    +0.000 A 
ATOM      8  C   UNL     1      45.561   4.861   9.160  0.00  0.00    +0.000 A 
BRANCH   3   9
ATOM      9  C   UNL     1      45.839   3.349   7.147  0.00  0.00    +0.000 C 
BRANCH   9  10
ATOM     10  N   UNL     1      46.992   4.181   6.821  0.00  0.00    +0.000 NA
ATOM     11  H   UNL     1      47.817   3.589   6.746  0.00  0.00    +0.000 HD
ATOM     12  H   UNL     1      47.164   4.819   7.596  0.00  0.00    +0.000 HD
ENDBRANCH   9  10
ENDBRANCH   3   9
ENDBRANCH   2   7
ENDBRANCH   1   2
BRANCH   1  13
ATOM     13  O   UNL     1      47.184   5.993  12.788  0.00  0.00    +0.000 OA
BRANCH  13  14
ATOM     14  C   UNL     1      47.481   5.566  14.068  0.00  0.00    +0.000 A 
ATOM     15  C   UNL     1      46.855   4.419  14.533  0.00  0.00    +0.000 A 
ATOM     16  C   UNL     1      47.152   3.982  15.826  0.00  0.00    +0.000 A 
ATOM     17  C   UNL     1      48.062   4.702  16.614  0.00  0.00    +0.000 A 
ATOM     18  C   UNL     1      48.628   5.831  16.053  0.00  0.00    +0.000 A 
ATOM     19  N   UNL     1      48.359   6.277  14.806  0.00  0.00    +0.000 NA
BRANCH  17  20
ATOM     20  C   UNL     1      48.379   4.244  17.987  0.00  0.00    +0.000 C 
ATOM     21  N   UNL     1      47.721   4.809  19.046  0.00  0.00    +0.000 N 
ATOM     22  O   UNL     1      49.216   3.369  18.182  0.00  0.00    +0.000 OA
ATOM     23  H   UNL     1      47.021   5.531  18.998  0.00  0.00    +0.000 HD
ATOM     24  H   UNL     1      47.967   4.465  19.966  0.00  0.00    +0.000 HD
ENDBRANCH  17  20
ENDBRANCH  13  14
ENDBRANCH   1  13
TORSDOF 7
ENDMDL
MODEL 8
REMARK VINA RESULT:    -5.852      3.791      6.399
REMARK INTER + INTRA:          -8.893
REMARK INTER:                  -8.485
REMARK INTRA:                  -0.408
REMARK UNBOUND:                -0.818
REMARK  Name = 
REMARK  7 active torsions:
REMARK  status: ('A' for Active; 'I' for Inactive)
REMARK    1  A    between atoms: N_1  and  C_2
REMARK    2  A    between atoms: C_2  and  C_3
REMARK    3  A    between atoms: C_7  and  C_8
REMARK    4  A    between atoms: C_8  and  C_9
REMARK    5  A    between atoms: C_9  and  O_10
REMARK    6  A    between atoms: O_10  and  C_11
REMARK    7  A    between atoms: C_14  and  C_15
REMARK                            x       y       z     vdW  Elec       q    Type
REMARK                         _______ _______ _______ _____ _____    ______ ____
ROOT
ATOM      1  C   UNL     1      47.462   3.927  15.857  0.00  0.00    +0.000 C 
ENDROOT
BRANCH   1   2
ATOM      2  C   UNL     1      47.855   2.931  16.942  0.00  0.00    +0.000 C 
BRANCH   2   7
ATOM      3  C   UNL     1      51.291   4.210  18.046  0.00  0.00    +0.000 A 
ATOM      4  C   UNL     1      52.063   3.050  17.892  0.00  0.00    +0.000 A 
ATOM      5  C   UNL     1      51.491   1.877  17.400  0.00  0.00    +0.000 A 
ATOM      6  C   UNL     1      50.133   1.841  17.077  0.00  0.00    +0.000 A 
ATOM      7  C   UNL     1      49.333   2.976  17.252  0.00  0.00    +0.000 A 
ATOM      8  C   UNL     1      49.926   4.163  17.715  0.00  0.00    +0.000 A 
BRANCH   3   9
ATOM      9  C   UNL     1      51.904   5.467  18.611  0.00  0.00    +0.000 C 
BRANCH   9  10
ATOM     10  N   UNL     1      51.584   6.642  17.807  0.00  0.00    +0.000 NA
ATOM     11  H   UNL     1      52.433   6.972  17.351  0.00  0.00    +0.000 HD
ATOM     12  H   UNL     1      51.280   7.390  18.429  0.00  0.00    +0.000 HD
ENDBRANCH   9  10
ENDBRANCH   3   9
ENDBRANCH   2   7
ENDBRANCH   1   2
BRANCH   1  13
ATOM     13  O   UNL     1      47.519   3.291  14.569  0.00  0.00    +0.000 OA
BRANCH  13  14
ATOM     14  C   UNL     1      46.588   3.827  13.700  0.00  0.00    +0.000 A 
ATOM     15  C   UNL     1      46.447   5.206  13.667  0.00  0.00    +0.000 A 
ATOM     16  C   UNL     1      45.507   5.753  12.789  0.00  0.00    +0.000 A 
ATOM     17  C   UNL     1      44.739   4.908  11.974  0.00  0.00    +0.000 A 
ATOM     18  C   UNL     1      44.961   3.548  12.087  0.00  0.00    +0.000 A 
ATOM     19  N   UNL     1      45.862   2.992  12.928  0.00  0.00    +0.000 NA
BRANCH  17  20
ATOM     20  C   UNL     1      43.740   5.483  11.044  0.00  0.00    +0.000 C 
ATOM     21  N   UNL     1      43.233   6.729  11.297  0.00  0.00    +0.000 N 
ATOM     22  O   UNL     1      43.367   4.859  10.056  0.00  0.00    +0.000 OA
ATOM     23  H   UNL     1      43.469   7.322  12.076  0.00  0.00    +0.000 HD
ATOM     24  H   UNL     1      42.555   7.084  10.635  0.00  0.00    +0.000 HD
ENDBRANCH  17  20
ENDBRANCH  13  14
ENDBRANCH   1  13
TORSDOF 7
ENDMDL
MODEL 9
REMARK VINA RESULT:    -5.623      3.063      5.373
REMARK INTER + INTRA:          -8.577
REMARK INTER:                  -7.961
REMARK INTRA:                  -0.617
REMARK UNBOUND:                -0.818
REMARK  Name = 
REMARK  7 active torsions:
REMARK  status: ('A' for Active; 'I' for Inactive)
REMARK    1  A    between atoms: N_1  and  C_2
REMARK    2  A    between atoms: C_2  and  C_3
REMARK    3  A    between atoms: C_7  and  C_8
REMARK    4  A    between atoms: C_8  and  C_9
REMARK    5  A    between atoms: C_9  and  O_10
REMARK    6  A    between atoms: O_10  and  C_11
REMARK    7  A    between atoms: C_14  and  C_15
REMARK                            x       y       z     vdW  Elec       q    Type
REMARK                         _______ _______ _______ _____ _____    ______ ____
ROOT
ATOM      1  C   UNL     1      48.448   6.802  13.781  0.00  0.00    +0.000 C 
ENDROOT
BRANCH   1   2
ATOM      2  C   UNL     1      48.647   7.401  15.168  0.00  0.00    +0.000 C 
BRANCH   2   7
ATOM      3  C   UNL     1      48.648   4.143  17.180  0.00  0.00    +0.000 A 
ATOM      4  C   UNL     1      49.716   4.380  18.058  0.00  0.00    +0.000 A 
ATOM      5  C   UNL     1      50.403   5.592  18.029  0.00  0.00    +0.000 A 
ATOM      6  C   UNL     1      50.048   6.577  17.106  0.00  0.00    +0.000 A 
ATOM      7  C   UNL     1      49.007   6.355  16.196  0.00  0.00    +0.000 A 
ATOM      8  C   UNL     1      48.298   5.143  16.257  0.00  0.00    +0.000 A 
BRANCH   3   9
ATOM      9  C   UNL     1      47.929   2.817  17.190  0.00  0.00    +0.000 C 
BRANCH   9  10
ATOM     10  N   UNL     1      46.567   2.936  17.698  0.00  0.00    +0.000 NA
ATOM     11  H   UNL     1      45.921   2.569  17.003  0.00  0.00    +0.000 HD
ATOM     12  H   UNL     1      46.343   3.925  17.806  0.00  0.00    +0.000 HD
ENDBRANCH   9  10
ENDBRANCH   3   9
ENDBRANCH   2   7
ENDBRANCH   1   2
BRANCH   1  13
ATOM     13  O   UNL     1      47.222   7.290  13.211  0.00  0.00    +0.000 OA
BRANCH  13  14
ATOM     14  C   UNL     1      46.485   6.266  12.646  0.00  0.00    +0.000 A 
ATOM     15  C   UNL     1      46.178   5.172  13.439  0.00  0.00    +0.000 A 
ATOM     16  C   UNL     1      45.433   4.134  12.873  0.00  0.00    +0.000 A 
ATOM     17  C   UNL     1      45.018   4.222  11.536  0.00  0.00    +0.000 A 
ATOM     18  C   UNL     1      45.379   5.358  10.836  0.00  0.00    +0.000 A 
ATOM     19  N   UNL     1      46.100   6.375  11.357  0.00  0.00    +0.000 NA
BRANCH  17  20
ATOM     20  C   UNL     1      44.230   3.123  10.931  0.00  0.00    +0.000 C 
ATOM     21  N   UNL     1      44.821   2.313  10.000  0.00  0.00    +0.000 N 
ATOM     22  O   UNL     1      43.062   2.934  11.254  0.00  0.00    +0.000 OA
ATOM     23  H   UNL     1      45.768   2.381   9.665  0.00  0.00    +0.000 HD
ATOM     24  H   UNL     1      44.247   1.574   9.614  0.00  0.00    +0.000 HD
ENDBRANCH  17  20
ENDBRANCH  13  14
ENDBRANCH   1  13
TORSDOF 7
ENDMDL
