MODEL 1
REMARK VINA RESULT:    -8.194      0.000      0.000
REMARK INTER + INTRA:         -13.081
REMARK INTER:                 -12.027
REMARK INTRA:                  -1.054
REMARK UNBOUND:                -1.054
REMARK  Name = 
REMARK  9 active torsions:
REMARK  status: ('A' for Active; 'I' for Inactive)
REMARK    1  A    between atoms: C_1  and  C_2
REMARK    2  A    between atoms: C_2  and  C_3
REMARK    3  A    between atoms: C_7  and  C_8
REMARK    4  A    between atoms: C_8  and  C_9
REMARK    5  A    between atoms: C_9  and  N_10
REMARK    6  A    between atoms: N_10  and  C_11
REMARK    7  A    between atoms: C_14  and  C_15
REMARK    8  A    between atoms: N_23  and  C_24
REMARK    9  A    between atoms: C_24  and  C_25
REMARK                            x       y       z     vdW  Elec       q    Type
REMARK                         _______ _______ _______ _____ _____    ______ ____
ROOT
ATOM      1  C   UNL     1      47.249   8.592  12.180  0.00  0.00    +0.000 A 
ATOM      2  C   UNL     1      46.872   9.941  12.074  0.00  0.00    +0.000 A 
ATOM      3  C   UNL     1      45.553  10.305  11.817  0.00  0.00    +0.000 A 
ATOM      4  C   UNL     1      44.584   9.330  11.621  0.00  0.00    +0.000 A 
ATOM      5  C   UNL     1      44.923   7.972  11.654  0.00  0.00    +0.000 A 
ATOM      6  C   UNL     1      46.260   7.623  11.916  0.00  0.00    +0.000 A 
ENDROOT
BRANCH   1   8
ATOM      7  C   UNL     1      49.572   8.820  11.384  0.00  0.00    +0.000 C 
ATOM      8  C   UNL     1      48.704   8.198  12.492  0.00  0.00    +0.000 C 
ATOM      9  C   UNL     1      49.200   8.636  13.894  0.00  0.00    +0.000 C 
ATOM     10  C   UNL     1      49.172   7.393  14.786  0.00  0.00    +0.000 C 
ATOM     11  N   UNL     1      48.697   6.268  13.974  0.00  0.00    +0.000 NA
ATOM     12  C   UNL     1      48.964   6.673  12.582  0.00  0.00    +0.000 C 
BRANCH  11  13
ATOM     13  C   UNL     1      47.268   5.960  14.252  0.00  0.00    +0.000 C 
BRANCH  13  14
ATOM     14  C   UNL     1      46.784   4.495  14.138  0.00  0.00    +0.000 C 
ATOM     15  F   UNL     1      47.259   3.698  15.122  0.00  0.00    +0.000 F 
ATOM     16  F   UNL     1      45.431   4.430  14.189  0.00  0.00    +0.000 F 
ATOM     17  F   UNL     1      47.162   3.945  12.961  0.00  0.00    +0.000 F 
ENDBRANCH  13  14
ENDBRANCH  11  13
ENDBRANCH   1   8
BRANCH   5  18
ATOM     18  C   UNL     1      43.914   6.860  11.408  0.00  0.00    +0.000 C 
BRANCH  18  19
ATOM     19  C   UNL     1      44.541   5.476  11.218  0.00  0.00    +0.000 C 
BRANCH  19  20
ATOM     20  N   UNL     1      43.862   4.678  10.203  0.00  0.00    +0.000 N 
ATOM     21  H   UNL     1      43.036   4.180  10.524  0.00  0.00    +0.000 HD
BRANCH  20  22
ATOM     22  C   UNL     1      44.652   3.915   9.331  0.00  0.00    +0.000 A 
ATOM     23  C   UNL     1      44.767   2.519   9.410  0.00  0.00    +0.000 A 
ATOM     24  C   UNL     1      45.653   1.812   8.594  0.00  0.00    +0.000 A 
ATOM     25  C   UNL     1      46.469   2.493   7.692  0.00  0.00    +0.000 A 
ATOM     26  C   UNL     1      46.385   3.886   7.608  0.00  0.00    +0.000 A 
ATOM     27  C   UNL     1      45.484   4.584   8.424  0.00  0.00    +0.000 A 
BRANCH  25  28
ATOM     28  C   UNL     1      47.437   1.699   6.892  0.00  0.00    +0.000 C 
ATOM     29  N   UNL     1      48.568   2.332   6.461  0.00  0.00    +0.000 N 
ATOM     30  O   UNL     1      47.223   0.529   6.596  0.00  0.00    +0.000 OA
ATOM     31  H   UNL     1      48.674   3.334   6.480  0.00  0.00    +0.000 HD
ATOM     32  H   UNL     1      49.166   1.803   5.838  0.00  0.00    +0.000 HD
ENDBRANCH  25  28
ENDBRANCH  20  22
ENDBRANCH  19  20
ENDBRANCH  18  19
ENDBRANCH   5  18
TORSDOF 8
ENDMDL
MODEL 2
REMARK VINA RESULT:    -8.101      2.136      3.148
REMARK INTER + INTRA:         -12.944
REMARK INTER:                 -11.485
REMARK INTRA:                  -1.459
REMARK UNBOUND:                -1.054
REMARK  Name = 
REMARK  9 active torsions:
REMARK  status: ('A' for Active; 'I' for Inactive)
REMARK    1  A    between atoms: C_1  and  C_2
REMARK    2  A    between atoms: C_2  and  C_3
REMARK    3  A    between atoms: C_7  and  C_8
REMARK    4  A    between atoms: C_8  and  C_9
REMARK    5  A    between atoms: C_9  and  N_10
REMARK    6  A    between atoms: N_10  and  C_11
REMARK    7  A    between atoms: C_14  and  C_15
REMARK    8  A    between atoms: N_23  and  C_24
REMARK    9  A    between atoms: C_24  and  C_25
REMARK                            x       y       z     vdW  Elec       q    Type
REMARK                         _______ _______ _______ _____ _____    ______ ____
ROOT
ATOM      1  C   UNL     1      47.874   7.115  12.692  0.00  0.00    +0.000 A 
ATOM      2  C   UNL     1      48.086   6.079  13.618  0.00  0.00    +0.000 A 
ATOM      3  C   UNL     1      47.111   5.116  13.861  0.00  0.00    +0.000 A 
ATOM      4  C   UNL     1      45.883   5.186  13.216  0.00  0.00    +0.000 A 
ATOM      5  C   UNL     1      45.601   6.236  12.333  0.00  0.00    +0.000 A 
ATOM      6  C   UNL     1      46.599   7.198  12.098  0.00  0.00    +0.000 A 
ENDROOT
BRANCH   1   8
ATOM      7  C   UNL     1      49.858   7.570  11.298  0.00  0.00    +0.000 C 
ATOM      8  C   UNL     1      48.969   8.160  12.407  0.00  0.00    +0.000 C 
ATOM      9  C   UNL     1      48.432   9.556  12.002  0.00  0.00    +0.000 C 
ATOM     10  C   UNL     1      48.556  10.457  13.233  0.00  0.00    +0.000 C 
ATOM     11  N   UNL     1      49.140   9.659  14.316  0.00  0.00    +0.000 NA
ATOM     12  C   UNL     1      49.832   8.552  13.633  0.00  0.00    +0.000 C 
BRANCH  11  13
ATOM     13  C   UNL     1      48.104   9.217  15.288  0.00  0.00    +0.000 C 
BRANCH  13  14
ATOM     14  C   UNL     1      48.555   8.675  16.665  0.00  0.00    +0.000 C 
ATOM     15  F   UNL     1      49.843   8.964  16.957  0.00  0.00    +0.000 F 
ATOM     16  F   UNL     1      47.794   9.194  17.659  0.00  0.00    +0.000 F 
ATOM     17  F   UNL     1      48.424   7.330  16.728  0.00  0.00    +0.000 F 
ENDBRANCH  13  14
ENDBRANCH  11  13
ENDBRANCH   1   8
BRANCH   5  18
ATOM     18  C   UNL     1      44.261   6.387  11.627  0.00  0.00    +0.000 C 
BRANCH  18  19
ATOM     19  C   UNL     1      43.626   5.060  11.201  0.00  0.00    +0.000 C 
BRANCH  19  20
ATOM     20  N   UNL     1      43.608   4.876   9.754  0.00  0.00    +0.000 N 
ATOM     21  H   UNL     1      42.688   4.737   9.346  0.00  0.00    +0.000 HD
BRANCH  20  22
ATOM     22  C   UNL     1      44.586   4.047   9.186  0.00  0.00    +0.000 A 
ATOM     23  C   UNL     1      45.571   4.506   8.298  0.00  0.00    +0.000 A 
ATOM     24  C   UNL     1      46.454   3.625   7.669  0.00  0.00    +0.000 A 
ATOM     25  C   UNL     1      46.352   2.252   7.893  0.00  0.00    +0.000 A 
ATOM     26  C   UNL     1      45.366   1.771   8.760  0.00  0.00    +0.000 A 
ATOM     27  C   UNL     1      44.494   2.665   9.396  0.00  0.00    +0.000 A 
BRANCH  25  28
ATOM     28  C   UNL     1      47.275   1.355   7.151  0.00  0.00    +0.000 C 
ATOM     29  N   UNL     1      48.335   1.931   6.511  0.00  0.00    +0.000 N 
ATOM     30  O   UNL     1      47.083   0.146   7.082  0.00  0.00    +0.000 OA
ATOM     31  H   UNL     1      48.400   2.923   6.347  0.00  0.00    +0.000 HD
ATOM     32  H   UNL     1      48.895   1.316   5.932  0.00  0.00    +0.000 HD
ENDBRANCH  25  28
ENDBRANCH  20  22
ENDBRANCH  19  20
ENDBRANCH  18  19
ENDBRANCH   5  18
TORSDOF 8
ENDMDL
MODEL 3
REMARK VINA RESULT:    -8.060      1.560      2.065
REMARK INTER + INTRA:         -12.885
REMARK INTER:                 -11.379
REMARK INTRA:                  -1.506
REMARK UNBOUND:                -1.054
REMARK  Name = 
REMARK  9 active torsions:
REMARK  status: ('A' for Active; 'I' for Inactive)
REMARK    1  A    between atoms: C_1  and  C_2
REMARK    2  A    between atoms: C_2  and  C_3
REMARK    3  A    between atoms: C_7  and  C_8
REMARK    4  A    between atoms: C_8  and  C_9
REMARK    5  A    between atoms: C_9  and  N_10
REMARK    6  A    between atoms: N_10  and  C_11
REMARK    7  A    between atoms: C_14  and  C_15
REMARK    8  A    between atoms: N_23  and  C_24
REMARK    9  A    between atoms: C_24  and  C_25
REMARK                            x       y       z     vdW  Elec       q    Type
REMARK                         _______ _______ _______ _____ _____    ______ ____
ROOT
ATOM      1  C   UNL     1      47.835   8.171  12.426  0.00  0.00    +0.000 A 
ATOM      2  C   UNL     1      46.898   9.216  12.496  0.00  0.00    +0.000 A 
ATOM      3  C   UNL     1      45.531   8.967  12.408  0.00  0.00    +0.000 A 
ATOM      4  C   UNL     1      45.067   7.674  12.208  0.00  0.00    +0.000 A 
ATOM      5  C   UNL     1      45.964   6.608  12.068  0.00  0.00    +0.000 A 
ATOM      6  C   UNL     1      47.341   6.877  12.162  0.00  0.00    +0.000 A 
ENDROOT
BRANCH   1   8
ATOM      7  C   UNL     1      49.932   8.321  11.137  0.00  0.00    +0.000 C 
ATOM      8  C   UNL     1      49.344   8.450  12.552  0.00  0.00    +0.000 C 
ATOM      9  C   UNL     1      49.691   9.829  13.171  0.00  0.00    +0.000 C 
ATOM     10  C   UNL     1      50.098   9.576  14.624  0.00  0.00    +0.000 C 
ATOM     11  N   UNL     1      50.011   8.133  14.871  0.00  0.00    +0.000 NA
ATOM     12  C   UNL     1      50.101   7.520  13.533  0.00  0.00    +0.000 C 
BRANCH  11  13
ATOM     13  C   UNL     1      48.773   7.779  15.617  0.00  0.00    +0.000 C 
BRANCH  13  14
ATOM     14  C   UNL     1      48.626   6.346  16.181  0.00  0.00    +0.000 C 
ATOM     15  F   UNL     1      47.903   5.529  15.383  0.00  0.00    +0.000 F 
ATOM     16  F   UNL     1      49.841   5.769  16.349  0.00  0.00    +0.000 F 
ATOM     17  F   UNL     1      48.023   6.357  17.392  0.00  0.00    +0.000 F 
ENDBRANCH  13  14
ENDBRANCH  11  13
ENDBRANCH   1   8
BRANCH   5  18
ATOM     18  C   UNL     1      45.517   5.177  11.809  0.00  0.00    +0.000 C 
BRANCH  18  19
ATOM     19  C   UNL     1      44.059   5.050  11.357  0.00  0.00    +0.000 C 
BRANCH  19  20
ATOM     20  N   UNL     1      43.915   5.012   9.906  0.00  0.00    +0.000 N 
ATOM     21  H   UNL     1      42.970   5.153   9.560  0.00  0.00    +0.000 HD
BRANCH  20  22
ATOM     22  C   UNL     1      44.607   4.014   9.203  0.00  0.00    +0.000 A 
ATOM     23  C   UNL     1      44.463   2.642   9.462  0.00  0.00    +0.000 A 
ATOM     24  C   UNL     1      45.256   1.691   8.816  0.00  0.00    +0.000 A 
ATOM     25  C   UNL     1      46.236   2.094   7.910  0.00  0.00    +0.000 A 
ATOM     26  C   UNL     1      46.409   3.457   7.650  0.00  0.00    +0.000 A 
ATOM     27  C   UNL     1      45.600   4.403   8.294  0.00  0.00    +0.000 A 
BRANCH  25  28
ATOM     28  C   UNL     1      47.092   1.046   7.298  0.00  0.00    +0.000 C 
ATOM     29  N   UNL     1      46.864  -0.249   7.665  0.00  0.00    +0.000 N 
ATOM     30  O   UNL     1      47.994   1.325   6.516  0.00  0.00    +0.000 OA
ATOM     31  H   UNL     1      46.302  -0.498   8.464  0.00  0.00    +0.000 HD
ATOM     32  H   UNL     1      47.519  -0.936   7.312  0.00  0.00    +0.000 HD
ENDBRANCH  25  28
ENDBRANCH  20  22
ENDBRANCH  19  20
ENDBRANCH  18  19
ENDBRANCH   5  18
TORSDOF 8
ENDMDL
MODEL 4
REMARK VINA RESULT:    -7.342      2.695      3.815
REMARK INTER + INTRA:         -11.830
REMARK INTER:                 -10.588
REMARK INTRA:                  -1.241
REMARK UNBOUND:                -1.054
REMARK  Name = 
REMARK  9 active torsions:
REMARK  status: ('A' for Active; 'I' for Inactive)
REMARK    1  A    between atoms: C_1  and  C_2
REMARK    2  A    between atoms: C_2  and  C_3
REMARK    3  A    between atoms: C_7  and  C_8
REMARK    4  A    between atoms: C_8  and  C_9
REMARK    5  A    between atoms: C_9  and  N_10
REMARK    6  A    between atoms: N_10  and  C_11
REMARK    7  A    between atoms: C_14  and  C_15
REMARK    8  A    between atoms: N_23  and  C_24
REMARK    9  A    between atoms: C_24  and  C_25
REMARK                            x       y       z     vdW  Elec       q    Type
REMARK                         _______ _______ _______ _____ _____    ______ ____
ROOT
ATOM      1  C   UNL     1      48.212   8.001  12.787  0.00  0.00    +0.000 A 
ATOM      2  C   UNL     1      48.588   6.861  13.517  0.00  0.00    +0.000 A 
ATOM      3  C   UNL     1      47.874   5.670  13.417  0.00  0.00    +0.000 A 
ATOM      4  C   UNL     1      46.743   5.598  12.615  0.00  0.00    +0.000 A 
ATOM      5  C   UNL     1      46.292   6.726  11.917  0.00  0.00    +0.000 A 
ATOM      6  C   UNL     1      47.026   7.920  12.029  0.00  0.00    +0.000 A 
ENDROOT
BRANCH   1   8
ATOM      7  C   UNL     1      48.042  10.398  13.342  0.00  0.00    +0.000 C 
ATOM      8  C   UNL     1      49.023   9.306  12.882  0.00  0.00    +0.000 C 
ATOM      9  C   UNL     1      50.249   9.231  13.828  0.00  0.00    +0.000 C 
ATOM     10  C   UNL     1      51.488   9.082  12.942  0.00  0.00    +0.000 C 
ATOM     11  N   UNL     1      51.043   9.076  11.544  0.00  0.00    +0.000 NA
ATOM     12  C   UNL     1      49.726   9.736  11.569  0.00  0.00    +0.000 C 
BRANCH  11  13
ATOM     13  C   UNL     1      51.019   7.697  10.985  0.00  0.00    +0.000 C 
BRANCH  13  14
ATOM     14  C   UNL     1      52.239   7.198  10.175  0.00  0.00    +0.000 C 
ATOM     15  F   UNL     1      53.418   7.662  10.646  0.00  0.00    +0.000 F 
ATOM     16  F   UNL     1      52.306   5.844  10.192  0.00  0.00    +0.000 F 
ATOM     17  F   UNL     1      52.151   7.573   8.878  0.00  0.00    +0.000 F 
ENDBRANCH  13  14
ENDBRANCH  11  13
ENDBRANCH   1   8
BRANCH   5  18
ATOM     18  C   UNL     1      45.038   6.719  11.055  0.00  0.00    +0.000 C 
BRANCH  18  19
ATOM     19  C   UNL     1      44.192   5.450  11.192  0.00  0.00    +0.000 C 
BRANCH  19  20
ATOM     20  N   UNL     1      43.826   4.869   9.905  0.00  0.00    +0.000 N 
ATOM     21  H   UNL     1      42.890   4.477   9.856  0.00  0.00    +0.000 HD
BRANCH  20  22
ATOM     22  C   UNL     1      44.780   4.078   9.247  0.00  0.00    +0.000 A 
ATOM     23  C   UNL     1      45.700   4.587   8.316  0.00  0.00    +0.000 A 
ATOM     24  C   UNL     1      46.555   3.746   7.601  0.00  0.00    +0.000 A 
ATOM     25  C   UNL     1      46.492   2.365   7.782  0.00  0.00    +0.000 A 
ATOM     26  C   UNL     1      45.571   1.834   8.691  0.00  0.00    +0.000 A 
ATOM     27  C   UNL     1      44.726   2.688   9.412  0.00  0.00    +0.000 A 
BRANCH  25  28
ATOM     28  C   UNL     1      47.381   1.512   6.951  0.00  0.00    +0.000 C 
ATOM     29  N   UNL     1      48.422   2.122   6.312  0.00  0.00    +0.000 N 
ATOM     30  O   UNL     1      47.177   0.311   6.812  0.00  0.00    +0.000 OA
ATOM     31  H   UNL     1      48.489   3.122   6.210  0.00  0.00    +0.000 HD
ATOM     32  H   UNL     1      48.957   1.543   5.676  0.00  0.00    +0.000 HD
ENDBRANCH  25  28
ENDBRANCH  20  22
ENDBRANCH  19  20
ENDBRANCH  18  19
ENDBRANCH   5  18
TORSDOF 8
ENDMDL
MODEL 5
REMARK VINA RESULT:    -7.094      2.553      3.736
REMARK INTER + INTRA:         -11.467
REMARK INTER:                 -10.367
REMARK INTRA:                  -1.100
REMARK UNBOUND:                -1.054
REMARK  Name = 
REMARK  9 active torsions:
REMARK  status: ('A' for Active; 'I' for Inactive)
REMARK    1  A    between atoms: C_1  and  C_2
REMARK    2  A    between atoms: C_2  and  C_3
REMARK    3  A    between atoms: C_7  and  C_8
REMARK    4  A    between atoms: C_8  and  C_9
REMARK    5  A    between atoms: C_9  and  N_10
REMARK    6  A    between atoms: N_10  and  C_11
REMARK    7  A    between atoms: C_14  and  C_15
REMARK    8  A    between atoms: N_23  and  C_24
REMARK    9  A    between atoms: C_24  and  C_25
REMARK                            x       y       z     vdW  Elec       q    Type
REMARK                         _______ _______ _______ _____ _____    ______ ____
ROOT
ATOM      1  C   UNL     1      46.801   6.890  13.153  0.00  0.00    +0.000 A 
ATOM      2  C   UNL     1      47.544   6.366  14.224  0.00  0.00    +0.000 A 
ATOM      3  C   UNL     1      47.603   4.996  14.461  0.00  0.00    +0.000 A 
ATOM      4  C   UNL     1      46.889   4.116  13.659  0.00  0.00    +0.000 A 
ATOM      5  C   UNL     1      46.082   4.595  12.619  0.00  0.00    +0.000 A 
ATOM      6  C   UNL     1      46.036   5.982  12.393  0.00  0.00    +0.000 A 
ENDROOT
BRANCH   1   8
ATOM      7  C   UNL     1      45.278   8.804  12.828  0.00  0.00    +0.000 C 
ATOM      8  C   UNL     1      46.763   8.405  12.880  0.00  0.00    +0.000 C 
ATOM      9  C   UNL     1      47.530   9.262  13.920  0.00  0.00    +0.000 C 
ATOM     10  C   UNL     1      48.860   9.659  13.278  0.00  0.00    +0.000 C 
ATOM     11  N   UNL     1      48.897   9.086  11.929  0.00  0.00    +0.000 NA
ATOM     12  C   UNL     1      47.483   8.853  11.583  0.00  0.00    +0.000 C 
BRANCH  11  13
ATOM     13  C   UNL     1      49.741   7.861  11.878  0.00  0.00    +0.000 C 
BRANCH  13  14
ATOM     14  C   UNL     1      51.111   7.928  11.163  0.00  0.00    +0.000 C 
ATOM     15  F   UNL     1      51.257   6.992  10.198  0.00  0.00    +0.000 F 
ATOM     16  F   UNL     1      51.289   9.138  10.577  0.00  0.00    +0.000 F 
ATOM     17  F   UNL     1      52.129   7.761  12.039  0.00  0.00    +0.000 F 
ENDBRANCH  13  14
ENDBRANCH  11  13
ENDBRANCH   1   8
BRANCH   5  18
ATOM     18  C   UNL     1      45.247   3.683  11.732  0.00  0.00    +0.000 C 
BRANCH  18  19
ATOM     19  C   UNL     1      43.873   4.254  11.366  0.00  0.00    +0.000 C 
BRANCH  19  20
ATOM     20  N   UNL     1      43.769   4.627   9.960  0.00  0.00    +0.000 N 
ATOM     21  H   UNL     1      42.821   4.690   9.597  0.00  0.00    +0.000 HD
BRANCH  20  22
ATOM     22  C   UNL     1      44.659   4.032   9.054  0.00  0.00    +0.000 A 
ATOM     23  C   UNL     1      44.697   2.652   8.799  0.00  0.00    +0.000 A 
ATOM     24  C   UNL     1      45.675   2.090   7.975  0.00  0.00    +0.000 A 
ATOM     25  C   UNL     1      46.660   2.896   7.405  0.00  0.00    +0.000 A 
ATOM     26  C   UNL     1      46.651   4.271   7.660  0.00  0.00    +0.000 A 
ATOM     27  C   UNL     1      45.658   4.827   8.479  0.00  0.00    +0.000 A 
BRANCH  25  28
ATOM     28  C   UNL     1      47.711   2.239   6.588  0.00  0.00    +0.000 C 
ATOM     29  N   UNL     1      47.993   2.782   5.367  0.00  0.00    +0.000 N 
ATOM     30  O   UNL     1      48.288   1.228   6.971  0.00  0.00    +0.000 OA
ATOM     31  H   UNL     1      47.394   3.459   4.920  0.00  0.00    +0.000 HD
ATOM     32  H   UNL     1      48.641   2.265   4.787  0.00  0.00    +0.000 HD
ENDBRANCH  25  28
ENDBRANCH  20  22
ENDBRANCH  19  20
ENDBRANCH  18  19
ENDBRANCH   5  18
TORSDOF 8
ENDMDL
MODEL 6
REMARK VINA RESULT:    -6.843      3.811      7.643
REMARK INTER + INTRA:         -11.098
REMARK INTER:                  -9.245
REMARK INTRA:                  -1.853
REMARK UNBOUND:                -1.054
REMARK  Name = 
REMARK  9 active torsions:
REMARK  status: ('A' for Active; 'I' for Inactive)
REMARK    1  A    between atoms: C_1  and  C_2
REMARK    2  A    between atoms: C_2  and  C_3
REMARK    3  A    between atoms: C_7  and  C_8
REMARK    4  A    between atoms: C_8  and  C_9
REMARK    5  A    between atoms: C_9  and  N_10
REMARK    6  A    between atoms: N_10  and  C_11
REMARK    7  A    between atoms: C_14  and  C_15
REMARK    8  A    between atoms: N_23  and  C_24
REMARK    9  A    between atoms: C_24  and  C_25
REMARK                            x       y       z     vdW  Elec       q    Type
REMARK                         _______ _______ _______ _____ _____    ______ ____
ROOT
ATOM      1  C   UNL     1      45.878   6.002  12.627  0.00  0.00    +0.000 A 
ATOM      2  C   UNL     1      44.940   7.045  12.537  0.00  0.00    +0.000 A 
ATOM      3  C   UNL     1      45.316   8.323  12.133  0.00  0.00    +0.000 A 
ATOM      4  C   UNL     1      46.645   8.603  11.847  0.00  0.00    +0.000 A 
ATOM      5  C   UNL     1      47.627   7.614  11.984  0.00  0.00    +0.000 A 
ATOM      6  C   UNL     1      47.229   6.328  12.391  0.00  0.00    +0.000 A 
ENDROOT
BRANCH   1   8
ATOM      7  C   UNL     1      46.214   4.263  14.343  0.00  0.00    +0.000 C 
ATOM      8  C   UNL     1      45.450   4.585  13.047  0.00  0.00    +0.000 C 
ATOM      9  C   UNL     1      43.922   4.410  13.249  0.00  0.00    +0.000 C 
ATOM     10  C   UNL     1      43.388   3.692  12.008  0.00  0.00    +0.000 C 
ATOM     11  N   UNL     1      44.521   3.438  11.112  0.00  0.00    +0.000 NA
ATOM     12  C   UNL     1      45.706   3.484  11.987  0.00  0.00    +0.000 C 
BRANCH  11  13
ATOM     13  C   UNL     1      44.559   4.415   9.990  0.00  0.00    +0.000 C 
BRANCH  13  14
ATOM     14  C   UNL     1      45.313   4.033   8.694  0.00  0.00    +0.000 C 
ATOM     15  F   UNL     1      45.885   2.809   8.749  0.00  0.00    +0.000 F 
ATOM     16  F   UNL     1      44.472   4.033   7.631  0.00  0.00    +0.000 F 
ATOM     17  F   UNL     1      46.296   4.922   8.420  0.00  0.00    +0.000 F 
ENDBRANCH  13  14
ENDBRANCH  11  13
ENDBRANCH   1   8
BRANCH   5  18
ATOM     18  C   UNL     1      49.104   7.872  11.723  0.00  0.00    +0.000 C 
BRANCH  18  19
ATOM     19  C   UNL     1      49.990   7.744  12.964  0.00  0.00    +0.000 C 
BRANCH  19  20
ATOM     20  N   UNL     1      49.580   8.626  14.051  0.00  0.00    +0.000 N 
ATOM     21  H   UNL     1      50.135   9.471  14.157  0.00  0.00    +0.000 HD
BRANCH  20  22
ATOM     22  C   UNL     1      49.241   8.041  15.280  0.00  0.00    +0.000 A 
ATOM     23  C   UNL     1      49.095   6.657  15.465  0.00  0.00    +0.000 A 
ATOM     24  C   UNL     1      48.646   6.127  16.678  0.00  0.00    +0.000 A 
ATOM     25  C   UNL     1      48.306   6.976  17.730  0.00  0.00    +0.000 A 
ATOM     26  C   UNL     1      48.427   8.359  17.562  0.00  0.00    +0.000 A 
ATOM     27  C   UNL     1      48.890   8.879  16.345  0.00  0.00    +0.000 A 
BRANCH  25  28
ATOM     28  C   UNL     1      47.776   6.363  18.975  0.00  0.00    +0.000 C 
ATOM     29  N   UNL     1      46.704   5.525  18.859  0.00  0.00    +0.000 N 
ATOM     30  O   UNL     1      48.254   6.619  20.074  0.00  0.00    +0.000 OA
ATOM     31  H   UNL     1      46.143   5.470  18.024  0.00  0.00    +0.000 HD
ATOM     32  H   UNL     1      46.299   5.195  19.726  0.00  0.00    +0.000 HD
ENDBRANCH  25  28
ENDBRANCH  20  22
ENDBRANCH  19  20
ENDBRANCH  18  19
ENDBRANCH   5  18
TORSDOF 8
ENDMDL
MODEL 7
REMARK VINA RESULT:    -6.828      3.577      5.890
REMARK INTER + INTRA:         -11.076
REMARK INTER:                  -9.457
REMARK INTRA:                  -1.619
REMARK UNBOUND:                -1.054
REMARK  Name = 
REMARK  9 active torsions:
REMARK  status: ('A' for Active; 'I' for Inactive)
REMARK    1  A    between atoms: C_1  and  C_2
REMARK    2  A    between atoms: C_2  and  C_3
REMARK    3  A    between atoms: C_7  and  C_8
REMARK    4  A    between atoms: C_8  and  C_9
REMARK    5  A    between atoms: C_9  and  N_10
REMARK    6  A    between atoms: N_10  and  C_11
REMARK    7  A    between atoms: C_14  and  C_15
REMARK    8  A    between atoms: N_23  and  C_24
REMARK    9  A    between atoms: C_24  and  C_25
REMARK                            x       y       z     vdW  Elec       q    Type
REMARK                         _______ _______ _______ _____ _____    ______ ____
ROOT
ATOM      1  C   UNL     1      48.794   6.167  17.202  0.00  0.00    +0.000 A 
ATOM      2  C   UNL     1      49.799   6.995  17.731  0.00  0.00    +0.000 A 
ATOM      3  C   UNL     1      50.509   7.878  16.921  0.00  0.00    +0.000 A 
ATOM      4  C   UNL     1      50.261   7.928  15.556  0.00  0.00    +0.000 A 
ATOM      5  C   UNL     1      49.314   7.077  14.973  0.00  0.00    +0.000 A 
ATOM      6  C   UNL     1      48.605   6.193  15.806  0.00  0.00    +0.000 A 
ENDROOT
BRANCH   1   8
ATOM      7  C   UNL     1      47.151   6.102  19.041  0.00  0.00    +0.000 C 
ATOM      8  C   UNL     1      47.995   5.214  18.109  0.00  0.00    +0.000 C 
ATOM      9  C   UNL     1      47.098   4.205  17.346  0.00  0.00    +0.000 C 
ATOM     10  C   UNL     1      47.823   2.858  17.370  0.00  0.00    +0.000 C 
ATOM     11  N   UNL     1      49.077   3.035  18.108  0.00  0.00    +0.000 NA
ATOM     12  C   UNL     1      48.855   4.230  18.942  0.00  0.00    +0.000 C 
BRANCH  11  13
ATOM     13  C   UNL     1      50.241   3.147  17.188  0.00  0.00    +0.000 C 
BRANCH  13  14
ATOM     14  C   UNL     1      51.607   3.593  17.763  0.00  0.00    +0.000 C 
ATOM     15  F   UNL     1      52.090   4.715  17.185  0.00  0.00    +0.000 F 
ATOM     16  F   UNL     1      51.511   3.838  19.093  0.00  0.00    +0.000 F 
ATOM     17  F   UNL     1      52.542   2.627  17.606  0.00  0.00    +0.000 F 
ENDBRANCH  13  14
ENDBRANCH  11  13
ENDBRANCH   1   8
BRANCH   5  18
ATOM     18  C   UNL     1      49.027   7.059  13.478  0.00  0.00    +0.000 C 
BRANCH  18  19
ATOM     19  C   UNL     1      47.927   8.030  13.040  0.00  0.00    +0.000 C 
BRANCH  19  20
ATOM     20  N   UNL     1      46.588   7.564  13.381  0.00  0.00    +0.000 N 
ATOM     21  H   UNL     1      46.361   7.582  14.372  0.00  0.00    +0.000 HD
BRANCH  20  22
ATOM     22  C   UNL     1      46.108   6.416  12.735  0.00  0.00    +0.000 A 
ATOM     23  C   UNL     1      45.885   6.341  11.351  0.00  0.00    +0.000 A 
ATOM     24  C   UNL     1      45.299   5.215  10.766  0.00  0.00    +0.000 A 
ATOM     25  C   UNL     1      44.896   4.143  11.561  0.00  0.00    +0.000 A 
ATOM     26  C   UNL     1      45.091   4.203  12.944  0.00  0.00    +0.000 A 
ATOM     27  C   UNL     1      45.691   5.332  13.519  0.00  0.00    +0.000 A 
BRANCH  25  28
ATOM     28  C   UNL     1      44.222   2.998  10.896  0.00  0.00    +0.000 C 
ATOM     29  N   UNL     1      44.879   2.394   9.863  0.00  0.00    +0.000 N 
ATOM     30  O   UNL     1      43.105   2.622  11.232  0.00  0.00    +0.000 OA
ATOM     31  H   UNL     1      45.678   2.807   9.408  0.00  0.00    +0.000 HD
ATOM     32  H   UNL     1      44.364   1.681   9.361  0.00  0.00    +0.000 HD
ENDBRANCH  25  28
ENDBRANCH  20  22
ENDBRANCH  19  20
ENDBRANCH  18  19
ENDBRANCH   5  18
TORSDOF 8
ENDMDL
MODEL 8
REMARK VINA RESULT:    -6.705      3.184      5.738
REMARK INTER + INTRA:         -10.896
REMARK INTER:                  -9.549
REMARK INTRA:                  -1.346
REMARK UNBOUND:                -1.054
REMARK  Name = 
REMARK  9 active torsions:
REMARK  status: ('A' for Active; 'I' for Inactive)
REMARK    1  A    between atoms: C_1  and  C_2
REMARK    2  A    between atoms: C_2  and  C_3
REMARK    3  A    between atoms: C_7  and  C_8
REMARK    4  A    between atoms: C_8  and  C_9
REMARK    5  A    between atoms: C_9  and  N_10
REMARK    6  A    between atoms: N_10  and  C_11
REMARK    7  A    between atoms: C_14  and  C_15
REMARK    8  A    between atoms: N_23  and  C_24
REMARK    9  A    between atoms: C_24  and  C_25
REMARK                            x       y       z     vdW  Elec       q    Type
REMARK                         _______ _______ _______ _____ _____    ______ ____
ROOT
ATOM      1  C   UNL     1      50.285   6.917  17.817  0.00  0.00    +0.000 A 
ATOM      2  C   UNL     1      51.666   6.669  17.729  0.00  0.00    +0.000 A 
ATOM      3  C   UNL     1      52.369   6.906  16.550  0.00  0.00    +0.000 A 
ATOM      4  C   UNL     1      51.704   7.357  15.418  0.00  0.00    +0.000 A 
ATOM      5  C   UNL     1      50.318   7.558  15.438  0.00  0.00    +0.000 A 
ATOM      6  C   UNL     1      49.625   7.315  16.637  0.00  0.00    +0.000 A 
ENDROOT
BRANCH   1   8
ATOM      7  C   UNL     1      50.116   7.651  20.165  0.00  0.00    +0.000 C 
ATOM      8  C   UNL     1      49.521   6.679  19.132  0.00  0.00    +0.000 C 
ATOM      9  C   UNL     1      47.985   6.862  19.022  0.00  0.00    +0.000 C 
ATOM     10  C   UNL     1      47.372   5.462  18.965  0.00  0.00    +0.000 C 
ATOM     11  N   UNL     1      48.466   4.488  19.044  0.00  0.00    +0.000 NA
ATOM     12  C   UNL     1      49.578   5.227  19.668  0.00  0.00    +0.000 C 
BRANCH  11  13
ATOM     13  C   UNL     1      48.790   3.922  17.706  0.00  0.00    +0.000 C 
BRANCH  13  14
ATOM     14  C   UNL     1      47.687   3.167  16.928  0.00  0.00    +0.000 C 
ATOM     15  F   UNL     1      46.855   2.463  17.728  0.00  0.00    +0.000 F 
ATOM     16  F   UNL     1      46.922   4.032  16.218  0.00  0.00    +0.000 F 
ATOM     17  F   UNL     1      48.222   2.295  16.042  0.00  0.00    +0.000 F 
ENDBRANCH  13  14
ENDBRANCH  11  13
ENDBRANCH   1   8
BRANCH   5  18
ATOM     18  C   UNL     1      49.530   8.013  14.219  0.00  0.00    +0.000 C 
BRANCH  18  19
ATOM     19  C   UNL     1      48.733   6.898  13.537  0.00  0.00    +0.000 C 
BRANCH  19  20
ATOM     20  N   UNL     1      47.297   6.998  13.773  0.00  0.00    +0.000 N 
ATOM     21  H   UNL     1      47.014   6.958  14.748  0.00  0.00    +0.000 HD
BRANCH  20  22
ATOM     22  C   UNL     1      46.441   6.274  12.929  0.00  0.00    +0.000 A 
ATOM     23  C   UNL     1      45.802   5.084  13.309  0.00  0.00    +0.000 A 
ATOM     24  C   UNL     1      45.049   4.338  12.400  0.00  0.00    +0.000 A 
ATOM     25  C   UNL     1      44.940   4.753  11.073  0.00  0.00    +0.000 A 
ATOM     26  C   UNL     1      45.583   5.926  10.668  0.00  0.00    +0.000 A 
ATOM     27  C   UNL     1      46.326   6.674  11.592  0.00  0.00    +0.000 A 
BRANCH  25  28
ATOM     28  C   UNL     1      44.179   3.890  10.134  0.00  0.00    +0.000 C 
ATOM     29  N   UNL     1      44.110   4.286   8.829  0.00  0.00    +0.000 N 
ATOM     30  O   UNL     1      43.603   2.876  10.511  0.00  0.00    +0.000 OA
ATOM     31  H   UNL     1      44.364   5.214   8.526  0.00  0.00    +0.000 HD
ATOM     32  H   UNL     1      43.508   3.738   8.226  0.00  0.00    +0.000 HD
ENDBRANCH  25  28
ENDBRANCH  20  22
ENDBRANCH  19  20
ENDBRANCH  18  19
ENDBRANCH   5  18
TORSDOF 8
ENDMDL
MODEL 9
REMARK VINA RESULT:    -6.652      3.458      7.064
REMARK INTER + INTRA:         -10.818
REMARK INTER:                  -9.152
REMARK INTRA:                  -1.666
REMARK UNBOUND:                -1.054
REMARK  Name = 
REMARK  9 active torsions:
REMARK  status: ('A' for Active; 'I' for Inactive)
REMARK    1  A    between atoms: C_1  and  C_2
REMARK    2  A    between atoms: C_2  and  C_3
REMARK    3  A    between atoms: C_7  and  C_8
REMARK    4  A    between atoms: C_8  and  C_9
REMARK    5  A    between atoms: C_9  and  N_10
REMARK    6  A    between atoms: N_10  and  C_11
REMARK    7  A    between atoms: C_14  and  C_15
REMARK    8  A    between atoms: N_23  and  C_24
REMARK    9  A    between atoms: C_24  and  C_25
REMARK                            x       y       z     vdW  Elec       q    Type
REMARK                         _______ _______ _______ _____ _____    ______ ____
ROOT
ATOM      1  C   UNL     1      45.340   5.102  12.490  0.00  0.00    +0.000 A 
ATOM      2  C   UNL     1      46.003   4.410  13.518  0.00  0.00    +0.000 A 
ATOM      3  C   UNL     1      47.252   4.822  13.977  0.00  0.00    +0.000 A 
ATOM      4  C   UNL     1      47.888   5.909  13.394  0.00  0.00    +0.000 A 
ATOM      5  C   UNL     1      47.295   6.591  12.323  0.00  0.00    +0.000 A 
ATOM      6  C   UNL     1      46.033   6.163  11.874  0.00  0.00    +0.000 A 
ENDROOT
BRANCH   1   8
ATOM      7  C   UNL     1      43.019   4.723  13.233  0.00  0.00    +0.000 C 
ATOM      8  C   UNL     1      43.947   4.658  12.008  0.00  0.00    +0.000 C 
ATOM      9  C   UNL     1      43.376   5.499  10.838  0.00  0.00    +0.000 C 
ATOM     10  C   UNL     1      43.559   4.673   9.563  0.00  0.00    +0.000 C 
ATOM     11  N   UNL     1      44.194   3.405   9.936  0.00  0.00    +0.000 NA
ATOM     12  C   UNL     1      43.895   3.246  11.371  0.00  0.00    +0.000 C 
BRANCH  11  13
ATOM     13  C   UNL     1      45.648   3.408   9.618  0.00  0.00    +0.000 C 
BRANCH  13  14
ATOM     14  C   UNL     1      46.087   3.300   8.138  0.00  0.00    +0.000 C 
ATOM     15  F   UNL     1      46.868   2.225   7.890  0.00  0.00    +0.000 F 
ATOM     16  F   UNL     1      45.009   3.209   7.322  0.00  0.00    +0.000 F 
ATOM     17  F   UNL     1      46.782   4.396   7.754  0.00  0.00    +0.000 F 
ENDBRANCH  13  14
ENDBRANCH  11  13
ENDBRANCH   1   8
BRANCH   5  18
ATOM     18  C   UNL     1      47.961   7.764  11.619  0.00  0.00    +0.000 C 
BRANCH  18  19
ATOM     19  C   UNL     1      48.080   9.025  12.480  0.00  0.00    +0.000 C 
BRANCH  19  20
ATOM     20  N   UNL     1      46.798   9.472  13.014  0.00  0.00    +0.000 N 
ATOM     21  H   UNL     1      46.408   8.889  13.750  0.00  0.00    +0.000 HD
BRANCH  20  22
ATOM     22  C   UNL     1      45.828   9.921  12.106  0.00  0.00    +0.000 A 
ATOM     23  C   UNL     1      44.628   9.239  11.854  0.00  0.00    +0.000 A 
ATOM     24  C   UNL     1      43.743   9.662  10.859  0.00  0.00    +0.000 A 
ATOM     25  C   UNL     1      44.054  10.768  10.069  0.00  0.00    +0.000 A 
ATOM     26  C   UNL     1      45.254  11.452  10.291  0.00  0.00    +0.000 A 
ATOM     27  C   UNL     1      46.128  11.026  11.300  0.00  0.00    +0.000 A 
BRANCH  25  28
ATOM     28  C   UNL     1      43.109  11.138   8.985  0.00  0.00    +0.000 C 
ATOM     29  N   UNL     1      41.813  11.388   9.336  0.00  0.00    +0.000 N 
ATOM     30  O   UNL     1      43.460  11.188   7.812  0.00  0.00    +0.000 OA
ATOM     31  H   UNL     1      41.433  11.136  10.235  0.00  0.00    +0.000 HD
ATOM     32  H   UNL     1      41.165  11.543   8.574  0.00  0.00    +0.000 HD
ENDBRANCH  25  28
ENDBRANCH  20  22
ENDBRANCH  19  20
ENDBRANCH  18  19
ENDBRANCH   5  18
TORSDOF 8
ENDMDL
