MODEL 1
REMARK VINA RESULT:    -7.973      0.000      0.000
REMARK INTER + INTRA:         -11.760
REMARK INTER:                 -11.003
REMARK INTRA:                  -0.757
REMARK UNBOUND:                -0.757
REMARK  Name = 
REMARK  10 active torsions:
REMARK  status: ('A' for Active; 'I' for Inactive)
REMARK    1  A    between atoms: C_1  and  O_2
REMARK    2  A    between atoms: O_2  and  C_3
REMARK    3  A    between atoms: C_5  and  C_6
REMARK    4  A    between atoms: C_6  and  O_7
REMARK    5  A    between atoms: O_7  and  C_8
REMARK    6  A    between atoms: C_13  and  C_14
REMARK    7  A    between atoms: C_17  and  C_18
REMARK    8  A    between atoms: C_19  and  O_20
REMARK    9  A    between atoms: C_24  and  O_25
REMARK   10  A    between atoms: O_25  and  C_26
REMARK                            x       y       z     vdW  Elec       q    Type
REMARK                         _______ _______ _______ _____ _____    ______ ____
ROOT
ATOM      1  C   UNL     1      44.578   5.783  12.303  0.00  0.00    +0.000 A 
ATOM      2  C   UNL     1      43.543   5.122  12.958  0.00  0.00    +0.000 A 
ATOM      3  C   UNL     1      43.133   3.870  12.508  0.00  0.00    +0.000 A 
ATOM      4  C   UNL     1      43.740   3.298  11.388  0.00  0.00    +0.000 A 
ATOM      5  F   UNL     1      43.324   2.079  11.013  0.00  0.00    +0.000 F 
ATOM      6  C   UNL     1      44.735   3.970  10.661  0.00  0.00    +0.000 A 
ATOM      7  C   UNL     1      45.139   5.225  11.151  0.00  0.00    +0.000 A 
ENDROOT
BRANCH   6   8
ATOM      8  C   UNL     1      45.297   3.470   9.387  0.00  0.00    +0.000 A 
ATOM      9  C   UNL     1      45.706   4.356   8.380  0.00  0.00    +0.000 A 
ATOM     10  C   UNL     1      46.361   3.906   7.229  0.00  0.00    +0.000 A 
ATOM     11  C   UNL     1      46.653   2.550   7.054  0.00  0.00    +0.000 A 
ATOM     12  C   UNL     1      47.386   2.111   5.823  0.00  0.00    +0.000 C 
ATOM     13  C   UNL     1      46.244   1.659   8.046  0.00  0.00    +0.000 A 
ATOM     14  C   UNL     1      45.552   2.105   9.172  0.00  0.00    +0.000 A 
BRANCH  13  15
ATOM     15  O   UNL     1      46.516   0.320   7.998  0.00  0.00    +0.000 OA
ATOM     16  H   UNL     1      47.476   0.196   7.933  0.00  0.00    +0.000 HD
ENDBRANCH  13  15
ENDBRANCH   6   8
BRANCH   1  17
ATOM     17  O   UNL     1      44.961   6.981  12.837  0.00  0.00    +0.000 OA
BRANCH  17  18
ATOM     18  C   UNL     1      45.738   7.805  11.963  0.00  0.00    +0.000 C 
BRANCH  18  21
ATOM     19  C   UNL     1      49.492   8.382  12.141  0.00  0.00    +0.000 A 
ATOM     20  C   UNL     1      48.167   8.433  11.711  0.00  0.00    +0.000 A 
ATOM     21  C   UNL     1      47.164   7.771  12.434  0.00  0.00    +0.000 A 
ATOM     22  C   UNL     1      47.497   7.057  13.593  0.00  0.00    +0.000 A 
ATOM     23  C   UNL     1      48.819   6.987  14.017  0.00  0.00    +0.000 A 
ATOM     24  C   UNL     1      49.807   7.668  13.301  0.00  0.00    +0.000 A 
BRANCH  19  26
ATOM     25  C   UNL     1      51.573   8.097  11.027  0.00  0.00    +0.000 C 
ATOM     26  O   UNL     1      50.557   8.970  11.513  0.00  0.00    +0.000 OA
ENDBRANCH  19  26
BRANCH  23  27
ATOM     27  O   UNL     1      49.248   6.301  15.120  0.00  0.00    +0.000 OA
ATOM     28  C   UNL     1      49.062   6.977  16.362  0.00  0.00    +0.000 C 
ENDBRANCH  23  27
ENDBRANCH  18  21
ENDBRANCH  17  18
ENDBRANCH   1  17
TORSDOF 7
ENDMDL
MODEL 2
REMARK VINA RESULT:    -7.932      0.142      2.300
REMARK INTER + INTRA:         -11.702
REMARK INTER:                 -10.929
REMARK INTRA:                  -0.773
REMARK UNBOUND:                -0.757
REMARK  Name = 
REMARK  10 active torsions:
REMARK  status: ('A' for Active; 'I' for Inactive)
REMARK    1  A    between atoms: C_1  and  O_2
REMARK    2  A    between atoms: O_2  and  C_3
REMARK    3  A    between atoms: C_5  and  C_6
REMARK    4  A    between atoms: C_6  and  O_7
REMARK    5  A    between atoms: O_7  and  C_8
REMARK    6  A    between atoms: C_13  and  C_14
REMARK    7  A    between atoms: C_17  and  C_18
REMARK    8  A    between atoms: C_19  and  O_20
REMARK    9  A    between atoms: C_24  and  O_25
REMARK   10  A    between atoms: O_25  and  C_26
REMARK                            x       y       z     vdW  Elec       q    Type
REMARK                         _______ _______ _______ _____ _____    ______ ____
ROOT
ATOM      1  C   UNL     1      44.680   5.789  12.292  0.00  0.00    +0.000 A 
ATOM      2  C   UNL     1      43.624   5.150  12.935  0.00  0.00    +0.000 A 
ATOM      3  C   UNL     1      43.182   3.914  12.471  0.00  0.00    +0.000 A 
ATOM      4  C   UNL     1      43.779   3.337  11.349  0.00  0.00    +0.000 A 
ATOM      5  F   UNL     1      43.333   2.133  10.960  0.00  0.00    +0.000 F 
ATOM      6  C   UNL     1      44.797   3.988  10.633  0.00  0.00    +0.000 A 
ATOM      7  C   UNL     1      45.232   5.227  11.138  0.00  0.00    +0.000 A 
ENDROOT
BRANCH   6   8
ATOM      8  C   UNL     1      45.352   3.485   9.358  0.00  0.00    +0.000 A 
ATOM      9  C   UNL     1      45.761   4.368   8.349  0.00  0.00    +0.000 A 
ATOM     10  C   UNL     1      46.410   3.914   7.196  0.00  0.00    +0.000 A 
ATOM     11  C   UNL     1      46.696   2.557   7.021  0.00  0.00    +0.000 A 
ATOM     12  C   UNL     1      47.423   2.114   5.789  0.00  0.00    +0.000 C 
ATOM     13  C   UNL     1      46.288   1.668   8.015  0.00  0.00    +0.000 A 
ATOM     14  C   UNL     1      45.601   2.118   9.144  0.00  0.00    +0.000 A 
BRANCH  13  15
ATOM     15  O   UNL     1      46.555   0.329   7.968  0.00  0.00    +0.000 OA
ATOM     16  H   UNL     1      46.602   0.049   7.040  0.00  0.00    +0.000 HD
ENDBRANCH  13  15
ENDBRANCH   6   8
BRANCH   1  17
ATOM     17  O   UNL     1      45.093   6.971  12.839  0.00  0.00    +0.000 OA
BRANCH  17  18
ATOM     18  C   UNL     1      45.880   7.791  11.971  0.00  0.00    +0.000 C 
BRANCH  18  21
ATOM     19  C   UNL     1      48.967   6.975  14.035  0.00  0.00    +0.000 A 
ATOM     20  C   UNL     1      47.646   7.011  13.594  0.00  0.00    +0.000 A 
ATOM     21  C   UNL     1      47.306   7.730  12.438  0.00  0.00    +0.000 A 
ATOM     22  C   UNL     1      48.301   8.414  11.727  0.00  0.00    +0.000 A 
ATOM     23  C   UNL     1      49.618   8.396  12.172  0.00  0.00    +0.000 A 
ATOM     24  C   UNL     1      49.948   7.659  13.312  0.00  0.00    +0.000 A 
BRANCH  19  26
ATOM     25  C   UNL     1      48.743   6.615  16.375  0.00  0.00    +0.000 C 
ATOM     26  O   UNL     1      49.417   6.325  15.154  0.00  0.00    +0.000 OA
ENDBRANCH  19  26
BRANCH  23  27
ATOM     27  O   UNL     1      50.656   9.046  11.560  0.00  0.00    +0.000 OA
ATOM     28  C   UNL     1      51.686   8.198  11.058  0.00  0.00    +0.000 C 
ENDBRANCH  23  27
ENDBRANCH  18  21
ENDBRANCH  17  18
ENDBRANCH   1  17
TORSDOF 7
ENDMDL
MODEL 3
REMARK VINA RESULT:    -7.717      1.771      2.769
REMARK INTER + INTRA:         -11.406
REMARK INTER:                 -10.601
REMARK INTRA:                  -0.805
REMARK UNBOUND:                -0.757
REMARK  Name = 
REMARK  10 active torsions:
REMARK  status: ('A' for Active; 'I' for Inactive)
REMARK    1  A    between atoms: C_1  and  O_2
REMARK    2  A    between atoms: O_2  and  C_3
REMARK    3  A    between atoms: C_5  and  C_6
REMARK    4  A    between atoms: C_6  and  O_7
REMARK    5  A    between atoms: O_7  and  C_8
REMARK    6  A    between atoms: C_13  and  C_14
REMARK    7  A    between atoms: C_17  and  C_18
REMARK    8  A    between atoms: C_19  and  O_20
REMARK    9  A    between atoms: C_24  and  O_25
REMARK   10  A    between atoms: O_25  and  C_26
REMARK                            x       y       z     vdW  Elec       q    Type
REMARK                         _______ _______ _______ _____ _____    ______ ____
ROOT
ATOM      1  C   UNL     1      45.334   6.002  12.334  0.00  0.00    +0.000 A 
ATOM      2  C   UNL     1      44.099   5.696  12.898  0.00  0.00    +0.000 A 
ATOM      3  C   UNL     1      43.334   4.664  12.361  0.00  0.00    +0.000 A 
ATOM      4  C   UNL     1      43.794   3.963  11.245  0.00  0.00    +0.000 A 
ATOM      5  F   UNL     1      43.030   2.961  10.785  0.00  0.00    +0.000 F 
ATOM      6  C   UNL     1      45.001   4.294  10.608  0.00  0.00    +0.000 A 
ATOM      7  C   UNL     1      45.758   5.330  11.185  0.00  0.00    +0.000 A 
ENDROOT
BRANCH   6   8
ATOM      8  C   UNL     1      45.452   3.680   9.340  0.00  0.00    +0.000 A 
ATOM      9  C   UNL     1      45.866   4.473   8.260  0.00  0.00    +0.000 A 
ATOM     10  C   UNL     1      46.422   3.908   7.107  0.00  0.00    +0.000 A 
ATOM     11  C   UNL     1      46.605   2.527   7.001  0.00  0.00    +0.000 A 
ATOM     12  C   UNL     1      47.234   1.963   5.764  0.00  0.00    +0.000 C 
ATOM     13  C   UNL     1      46.191   1.728   8.067  0.00  0.00    +0.000 A 
ATOM     14  C   UNL     1      45.597   2.289   9.198  0.00  0.00    +0.000 A 
BRANCH  13  15
ATOM     15  O   UNL     1      46.363   0.372   8.089  0.00  0.00    +0.000 OA
ATOM     16  H   UNL     1      45.594  -0.050   7.676  0.00  0.00    +0.000 HD
ENDBRANCH  13  15
ENDBRANCH   6   8
BRANCH   1  17
ATOM     17  O   UNL     1      46.051   6.989  12.950  0.00  0.00    +0.000 OA
BRANCH  17  18
ATOM     18  C   UNL     1      47.463   6.765  12.995  0.00  0.00    +0.000 C 
BRANCH  18  21
ATOM     19  C   UNL     1      49.055   6.321  16.418  0.00  0.00    +0.000 A 
ATOM     20  C   UNL     1      48.727   6.857  15.175  0.00  0.00    +0.000 A 
ATOM     21  C   UNL     1      47.804   6.203  14.345  0.00  0.00    +0.000 A 
ATOM     22  C   UNL     1      47.213   5.006  14.769  0.00  0.00    +0.000 A 
ATOM     23  C   UNL     1      47.550   4.457  16.001  0.00  0.00    +0.000 A 
ATOM     24  C   UNL     1      48.454   5.129  16.829  0.00  0.00    +0.000 A 
BRANCH  19  26
ATOM     25  C   UNL     1      50.283   8.230  17.129  0.00  0.00    +0.000 C 
ATOM     26  O   UNL     1      49.951   6.855  17.306  0.00  0.00    +0.000 OA
ENDBRANCH  19  26
BRANCH  23  27
ATOM     27  O   UNL     1      47.044   3.286  16.496  0.00  0.00    +0.000 OA
ATOM     28  C   UNL     1      47.654   2.826  17.700  0.00  0.00    +0.000 C 
ENDBRANCH  23  27
ENDBRANCH  18  21
ENDBRANCH  17  18
ENDBRANCH   1  17
TORSDOF 7
ENDMDL
MODEL 4
REMARK VINA RESULT:    -7.384      3.322      4.333
REMARK INTER + INTRA:         -10.946
REMARK INTER:                 -10.076
REMARK INTRA:                  -0.870
REMARK UNBOUND:                -0.757
REMARK  Name = 
REMARK  10 active torsions:
REMARK  status: ('A' for Active; 'I' for Inactive)
REMARK    1  A    between atoms: C_1  and  O_2
REMARK    2  A    between atoms: O_2  and  C_3
REMARK    3  A    between atoms: C_5  and  C_6
REMARK    4  A    between atoms: C_6  and  O_7
REMARK    5  A    between atoms: O_7  and  C_8
REMARK    6  A    between atoms: C_13  and  C_14
REMARK    7  A    between atoms: C_17  and  C_18
REMARK    8  A    between atoms: C_19  and  O_20
REMARK    9  A    between atoms: C_24  and  O_25
REMARK   10  A    between atoms: O_25  and  C_26
REMARK                            x       y       z     vdW  Elec       q    Type
REMARK                         _______ _______ _______ _____ _____    ______ ____
ROOT
ATOM      1  C   UNL     1      45.229   4.535  13.186  0.00  0.00    +0.000 A 
ATOM      2  C   UNL     1      44.101   5.348  13.243  0.00  0.00    +0.000 A 
ATOM      3  C   UNL     1      43.327   5.533  12.101  0.00  0.00    +0.000 A 
ATOM      4  C   UNL     1      43.701   4.928  10.900  0.00  0.00    +0.000 A 
ATOM      5  F   UNL     1      42.905   5.117   9.837  0.00  0.00    +0.000 F 
ATOM      6  C   UNL     1      44.872   4.162  10.789  0.00  0.00    +0.000 A 
ATOM      7  C   UNL     1      45.623   3.980  11.965  0.00  0.00    +0.000 A 
ENDROOT
BRANCH   6   8
ATOM      8  C   UNL     1      45.385   3.629   9.508  0.00  0.00    +0.000 A 
ATOM      9  C   UNL     1      45.864   4.487   8.509  0.00  0.00    +0.000 A 
ATOM     10  C   UNL     1      46.475   3.995   7.350  0.00  0.00    +0.000 A 
ATOM     11  C   UNL     1      46.650   2.621   7.160  0.00  0.00    +0.000 A 
ATOM     12  C   UNL     1      47.338   2.134   5.922  0.00  0.00    +0.000 C 
ATOM     13  C   UNL     1      46.171   1.757   8.145  0.00  0.00    +0.000 A 
ATOM     14  C   UNL     1      45.523   2.249   9.279  0.00  0.00    +0.000 A 
BRANCH  13  15
ATOM     15  O   UNL     1      46.328   0.401   8.083  0.00  0.00    +0.000 OA
ATOM     16  H   UNL     1      45.511  -0.025   8.384  0.00  0.00    +0.000 HD
ENDBRANCH  13  15
ENDBRANCH   6   8
BRANCH   1  17
ATOM     17  O   UNL     1      45.905   4.357  14.360  0.00  0.00    +0.000 OA
BRANCH  17  18
ATOM     18  C   UNL     1      47.005   3.446  14.286  0.00  0.00    +0.000 C 
BRANCH  18  21
ATOM     19  C   UNL     1      47.930   4.288  17.876  0.00  0.00    +0.000 A 
ATOM     20  C   UNL     1      47.294   4.312  16.636  0.00  0.00    +0.000 A 
ATOM     21  C   UNL     1      47.672   3.410  15.631  0.00  0.00    +0.000 A 
ATOM     22  C   UNL     1      48.694   2.483  15.876  0.00  0.00    +0.000 A 
ATOM     23  C   UNL     1      49.344   2.466  17.104  0.00  0.00    +0.000 A 
ATOM     24  C   UNL     1      48.944   3.355  18.106  0.00  0.00    +0.000 A 
BRANCH  19  26
ATOM     25  C   UNL     1      48.788   5.683  19.600  0.00  0.00    +0.000 C 
ATOM     26  O   UNL     1      47.663   5.126  18.926  0.00  0.00    +0.000 OA
ENDBRANCH  19  26
BRANCH  23  27
ATOM     27  O   UNL     1      50.364   1.615  17.434  0.00  0.00    +0.000 OA
ATOM     28  C   UNL     1      51.630   2.239  17.635  0.00  0.00    +0.000 C 
ENDBRANCH  23  27
ENDBRANCH  18  21
ENDBRANCH  17  18
ENDBRANCH   1  17
TORSDOF 7
ENDMDL
MODEL 5
REMARK VINA RESULT:    -7.166      1.790      3.181
REMARK INTER + INTRA:         -10.645
REMARK INTER:                  -9.645
REMARK INTRA:                  -1.001
REMARK UNBOUND:                -0.757
REMARK  Name = 
REMARK  10 active torsions:
REMARK  status: ('A' for Active; 'I' for Inactive)
REMARK    1  A    between atoms: C_1  and  O_2
REMARK    2  A    between atoms: O_2  and  C_3
REMARK    3  A    between atoms: C_5  and  C_6
REMARK    4  A    between atoms: C_6  and  O_7
REMARK    5  A    between atoms: O_7  and  C_8
REMARK    6  A    between atoms: C_13  and  C_14
REMARK    7  A    between atoms: C_17  and  C_18
REMARK    8  A    between atoms: C_19  and  O_20
REMARK    9  A    between atoms: C_24  and  O_25
REMARK   10  A    between atoms: O_25  and  C_26
REMARK                            x       y       z     vdW  Elec       q    Type
REMARK                         _______ _______ _______ _____ _____    ______ ____
ROOT
ATOM      1  C   UNL     1      45.586   6.356  12.384  0.00  0.00    +0.000 A 
ATOM      2  C   UNL     1      44.282   6.282  12.864  0.00  0.00    +0.000 A 
ATOM      3  C   UNL     1      43.381   5.399  12.276  0.00  0.00    +0.000 A 
ATOM      4  C   UNL     1      43.780   4.615  11.192  0.00  0.00    +0.000 A 
ATOM      5  F   UNL     1      42.880   3.762  10.680  0.00  0.00    +0.000 F 
ATOM      6  C   UNL     1      45.065   4.719  10.635  0.00  0.00    +0.000 A 
ATOM      7  C   UNL     1      45.956   5.608  11.263  0.00  0.00    +0.000 A 
ENDROOT
BRANCH   6   8
ATOM      8  C   UNL     1      45.481   4.022   9.398  0.00  0.00    +0.000 A 
ATOM      9  C   UNL     1      46.000   4.733   8.308  0.00  0.00    +0.000 A 
ATOM     10  C   UNL     1      46.522   4.078   7.187  0.00  0.00    +0.000 A 
ATOM     11  C   UNL     1      46.563   2.682   7.126  0.00  0.00    +0.000 A 
ATOM     12  C   UNL     1      47.160   2.017   5.924  0.00  0.00    +0.000 C 
ATOM     13  C   UNL     1      46.043   1.964   8.203  0.00  0.00    +0.000 A 
ATOM     14  C   UNL     1      45.484   2.619   9.301  0.00  0.00    +0.000 A 
BRANCH  13  15
ATOM     15  O   UNL     1      46.074   0.599   8.269  0.00  0.00    +0.000 OA
ATOM     16  H   UNL     1      45.645   0.314   9.091  0.00  0.00    +0.000 HD
ENDBRANCH  13  15
ENDBRANCH   6   8
BRANCH   1  17
ATOM     17  O   UNL     1      46.427   7.205  13.047  0.00  0.00    +0.000 OA
BRANCH  17  18
ATOM     18  C   UNL     1      47.791   6.778  13.099  0.00  0.00    +0.000 C 
BRANCH  18  21
ATOM     19  C   UNL     1      47.951   4.721  16.293  0.00  0.00    +0.000 A 
ATOM     20  C   UNL     1      47.684   5.100  14.979  0.00  0.00    +0.000 A 
ATOM     21  C   UNL     1      48.095   6.356  14.508  0.00  0.00    +0.000 A 
ATOM     22  C   UNL     1      48.774   7.232  15.365  0.00  0.00    +0.000 A 
ATOM     23  C   UNL     1      49.027   6.867  16.682  0.00  0.00    +0.000 A 
ATOM     24  C   UNL     1      48.633   5.605  17.133  0.00  0.00    +0.000 A 
BRANCH  19  26
ATOM     25  C   UNL     1      48.522   2.463  16.772  0.00  0.00    +0.000 C 
ATOM     26  O   UNL     1      47.587   3.534  16.870  0.00  0.00    +0.000 OA
ENDBRANCH  19  26
BRANCH  23  27
ATOM     27  O   UNL     1      49.664   7.657  17.601  0.00  0.00    +0.000 OA
ATOM     28  C   UNL     1      49.170   7.552  18.934  0.00  0.00    +0.000 C 
ENDBRANCH  23  27
ENDBRANCH  18  21
ENDBRANCH  17  18
ENDBRANCH   1  17
TORSDOF 7
ENDMDL
MODEL 6
REMARK VINA RESULT:    -6.946      3.520      6.556
REMARK INTER + INTRA:         -10.342
REMARK INTER:                  -9.308
REMARK INTRA:                  -1.034
REMARK UNBOUND:                -0.757
REMARK  Name = 
REMARK  10 active torsions:
REMARK  status: ('A' for Active; 'I' for Inactive)
REMARK    1  A    between atoms: C_1  and  O_2
REMARK    2  A    between atoms: O_2  and  C_3
REMARK    3  A    between atoms: C_5  and  C_6
REMARK    4  A    between atoms: C_6  and  O_7
REMARK    5  A    between atoms: O_7  and  C_8
REMARK    6  A    between atoms: C_13  and  C_14
REMARK    7  A    between atoms: C_17  and  C_18
REMARK    8  A    between atoms: C_19  and  O_20
REMARK    9  A    between atoms: C_24  and  O_25
REMARK   10  A    between atoms: O_25  and  C_26
REMARK                            x       y       z     vdW  Elec       q    Type
REMARK                         _______ _______ _______ _____ _____    ______ ____
ROOT
ATOM      1  C   UNL     1      46.865   4.124  13.663  0.00  0.00    +0.000 A 
ATOM      2  C   UNL     1      45.743   3.721  12.945  0.00  0.00    +0.000 A 
ATOM      3  C   UNL     1      45.258   4.524  11.917  0.00  0.00    +0.000 A 
ATOM      4  C   UNL     1      45.879   5.741  11.631  0.00  0.00    +0.000 A 
ATOM      5  F   UNL     1      45.387   6.463  10.613  0.00  0.00    +0.000 F 
ATOM      6  C   UNL     1      46.967   6.213  12.383  0.00  0.00    +0.000 A 
ATOM      7  C   UNL     1      47.443   5.370  13.404  0.00  0.00    +0.000 A 
ENDROOT
BRANCH   6   8
ATOM      8  C   UNL     1      47.558   7.558  12.214  0.00  0.00    +0.000 A 
ATOM      9  C   UNL     1      48.833   7.722  11.656  0.00  0.00    +0.000 A 
ATOM     10  C   UNL     1      49.349   8.990  11.365  0.00  0.00    +0.000 A 
ATOM     11  C   UNL     1      48.594  10.143  11.602  0.00  0.00    +0.000 A 
ATOM     12  C   UNL     1      49.167  11.480  11.246  0.00  0.00    +0.000 C 
ATOM     13  C   UNL     1      47.326   9.992  12.163  0.00  0.00    +0.000 A 
ATOM     14  C   UNL     1      46.832   8.729  12.493  0.00  0.00    +0.000 A 
BRANCH  13  15
ATOM     15  O   UNL     1      46.487  11.045  12.395  0.00  0.00    +0.000 OA
ATOM     16  H   UNL     1      46.312  11.106  13.347  0.00  0.00    +0.000 HD
ENDBRANCH  13  15
ENDBRANCH   6   8
BRANCH   1  17
ATOM     17  O   UNL     1      47.314   3.258  14.619  0.00  0.00    +0.000 OA
BRANCH  17  18
ATOM     18  C   UNL     1      47.223   3.745  15.960  0.00  0.00    +0.000 C 
BRANCH  18  21
ATOM     19  C   UNL     1      50.490   4.506  17.750  0.00  0.00    +0.000 A 
ATOM     20  C   UNL     1      49.236   4.671  17.165  0.00  0.00    +0.000 A 
ATOM     21  C   UNL     1      48.565   3.569  16.612  0.00  0.00    +0.000 A 
ATOM     22  C   UNL     1      49.159   2.301  16.651  0.00  0.00    +0.000 A 
ATOM     23  C   UNL     1      50.417   2.134  17.218  0.00  0.00    +0.000 A 
ATOM     24  C   UNL     1      51.067   3.234  17.784  0.00  0.00    +0.000 A 
BRANCH  19  26
ATOM     25  C   UNL     1      51.760   6.488  17.411  0.00  0.00    +0.000 C 
ATOM     26  O   UNL     1      51.248   5.503  18.304  0.00  0.00    +0.000 OA
ENDBRANCH  19  26
BRANCH  23  27
ATOM     27  O   UNL     1      51.089   0.944  17.287  0.00  0.00    +0.000 OA
ATOM     28  C   UNL     1      52.457   1.044  17.675  0.00  0.00    +0.000 C 
ENDBRANCH  23  27
ENDBRANCH  18  21
ENDBRANCH  17  18
ENDBRANCH   1  17
TORSDOF 7
ENDMDL
MODEL 7
REMARK VINA RESULT:    -6.907      2.578      4.722
REMARK INTER + INTRA:         -10.289
REMARK INTER:                  -9.092
REMARK INTRA:                  -1.197
REMARK UNBOUND:                -0.757
REMARK  Name = 
REMARK  10 active torsions:
REMARK  status: ('A' for Active; 'I' for Inactive)
REMARK    1  A    between atoms: C_1  and  O_2
REMARK    2  A    between atoms: O_2  and  C_3
REMARK    3  A    between atoms: C_5  and  C_6
REMARK    4  A    between atoms: C_6  and  O_7
REMARK    5  A    between atoms: O_7  and  C_8
REMARK    6  A    between atoms: C_13  and  C_14
REMARK    7  A    between atoms: C_17  and  C_18
REMARK    8  A    between atoms: C_19  and  O_20
REMARK    9  A    between atoms: C_24  and  O_25
REMARK   10  A    between atoms: O_25  and  C_26
REMARK                            x       y       z     vdW  Elec       q    Type
REMARK                         _______ _______ _______ _____ _____    ______ ____
ROOT
ATOM      1  C   UNL     1      47.215   7.972  13.117  0.00  0.00    +0.000 A 
ATOM      2  C   UNL     1      46.493   9.153  12.978  0.00  0.00    +0.000 A 
ATOM      3  C   UNL     1      45.301   9.152  12.260  0.00  0.00    +0.000 A 
ATOM      4  C   UNL     1      44.850   7.974  11.660  0.00  0.00    +0.000 A 
ATOM      5  F   UNL     1      43.682   8.022  11.002  0.00  0.00    +0.000 F 
ATOM      6  C   UNL     1      45.591   6.782  11.718  0.00  0.00    +0.000 A 
ATOM      7  C   UNL     1      46.782   6.814  12.466  0.00  0.00    +0.000 A 
ENDROOT
BRANCH   6   8
ATOM      8  C   UNL     1      45.229   5.556  10.974  0.00  0.00    +0.000 A 
ATOM      9  C   UNL     1      45.650   5.363   9.652  0.00  0.00    +0.000 A 
ATOM     10  C   UNL     1      45.432   4.153   8.982  0.00  0.00    +0.000 A 
ATOM     11  C   UNL     1      44.802   3.083   9.622  0.00  0.00    +0.000 A 
ATOM     12  C   UNL     1      44.616   1.793   8.883  0.00  0.00    +0.000 C 
ATOM     13  C   UNL     1      44.372   3.266  10.936  0.00  0.00    +0.000 A 
ATOM     14  C   UNL     1      44.552   4.487  11.587  0.00  0.00    +0.000 A 
BRANCH  13  15
ATOM     15  O   UNL     1      43.787   2.274  11.671  0.00  0.00    +0.000 OA
ATOM     16  H   UNL     1      43.798   2.526  12.608  0.00  0.00    +0.000 HD
ENDBRANCH  13  15
ENDBRANCH   6   8
BRANCH   1  17
ATOM     17  O   UNL     1      48.345   8.041  13.882  0.00  0.00    +0.000 OA
BRANCH  17  18
ATOM     18  C   UNL     1      48.968   6.781  14.145  0.00  0.00    +0.000 C 
BRANCH  18  21
ATOM     19  C   UNL     1      48.578   6.619  17.923  0.00  0.00    +0.000 A 
ATOM     20  C   UNL     1      48.950   7.052  16.652  0.00  0.00    +0.000 A 
ATOM     21  C   UNL     1      48.552   6.331  15.516  0.00  0.00    +0.000 A 
ATOM     22  C   UNL     1      47.778   5.173  15.663  0.00  0.00    +0.000 A 
ATOM     23  C   UNL     1      47.418   4.726  16.929  0.00  0.00    +0.000 A 
ATOM     24  C   UNL     1      47.802   5.464  18.052  0.00  0.00    +0.000 A 
BRANCH  19  26
ATOM     25  C   UNL     1      47.862   7.454  20.032  0.00  0.00    +0.000 C 
ATOM     26  O   UNL     1      48.918   7.225  19.104  0.00  0.00    +0.000 OA
ENDBRANCH  19  26
BRANCH  23  27
ATOM     27  O   UNL     1      46.683   3.599  17.178  0.00  0.00    +0.000 OA
ATOM     28  C   UNL     1      47.420   2.504  17.717  0.00  0.00    +0.000 C 
ENDBRANCH  23  27
ENDBRANCH  18  21
ENDBRANCH  17  18
ENDBRANCH   1  17
TORSDOF 7
ENDMDL
MODEL 8
REMARK VINA RESULT:    -6.826      2.432      4.465
REMARK INTER + INTRA:         -10.176
REMARK INTER:                  -9.046
REMARK INTRA:                  -1.130
REMARK UNBOUND:                -0.757
REMARK  Name = 
REMARK  10 active torsions:
REMARK  status: ('A' for Active; 'I' for Inactive)
REMARK    1  A    between atoms: C_1  and  O_2
REMARK    2  A    between atoms: O_2  and  C_3
REMARK    3  A    between atoms: C_5  and  C_6
REMARK    4  A    between atoms: C_6  and  O_7
REMARK    5  A    between atoms: O_7  and  C_8
REMARK    6  A    between atoms: C_13  and  C_14
REMARK    7  A    between atoms: C_17  and  C_18
REMARK    8  A    between atoms: C_19  and  O_20
REMARK    9  A    between atoms: C_24  and  O_25
REMARK   10  A    between atoms: O_25  and  C_26
REMARK                            x       y       z     vdW  Elec       q    Type
REMARK                         _______ _______ _______ _____ _____    ______ ____
ROOT
ATOM      1  C   UNL     1      46.952   8.036  12.768  0.00  0.00    +0.000 A 
ATOM      2  C   UNL     1      46.131   9.157  12.680  0.00  0.00    +0.000 A 
ATOM      3  C   UNL     1      44.901   9.061  12.035  0.00  0.00    +0.000 A 
ATOM      4  C   UNL     1      44.510   7.852  11.456  0.00  0.00    +0.000 A 
ATOM      5  F   UNL     1      43.304   7.808  10.870  0.00  0.00    +0.000 F 
ATOM      6  C   UNL     1      45.345   6.723  11.463  0.00  0.00    +0.000 A 
ATOM      7  C   UNL     1      46.573   6.848  12.137  0.00  0.00    +0.000 A 
ENDROOT
BRANCH   6   8
ATOM      8  C   UNL     1      45.037   5.473  10.734  0.00  0.00    +0.000 A 
ATOM      9  C   UNL     1      45.622   5.199   9.490  0.00  0.00    +0.000 A 
ATOM     10  C   UNL     1      45.447   3.965   8.854  0.00  0.00    +0.000 A 
ATOM     11  C   UNL     1      44.697   2.949   9.453  0.00  0.00    +0.000 A 
ATOM     12  C   UNL     1      44.560   1.630   8.756  0.00  0.00    +0.000 C 
ATOM     13  C   UNL     1      44.104   3.213  10.688  0.00  0.00    +0.000 A 
ATOM     14  C   UNL     1      44.244   4.459  11.300  0.00  0.00    +0.000 A 
BRANCH  13  15
ATOM     15  O   UNL     1      43.389   2.279  11.383  0.00  0.00    +0.000 OA
ATOM     16  H   UNL     1      42.707   1.907  10.801  0.00  0.00    +0.000 HD
ENDBRANCH  13  15
ENDBRANCH   6   8
BRANCH   1  17
ATOM     17  O   UNL     1      48.117   8.194  13.464  0.00  0.00    +0.000 OA
BRANCH  17  18
ATOM     18  C   UNL     1      48.921   7.016  13.562  0.00  0.00    +0.000 C 
BRANCH  18  21
ATOM     19  C   UNL     1      47.655   4.741  16.332  0.00  0.00    +0.000 A 
ATOM     20  C   UNL     1      47.874   5.286  15.069  0.00  0.00    +0.000 A 
ATOM     21  C   UNL     1      48.699   6.411  14.918  0.00  0.00    +0.000 A 
ATOM     22  C   UNL     1      49.305   6.986  16.043  0.00  0.00    +0.000 A 
ATOM     23  C   UNL     1      49.076   6.456  17.309  0.00  0.00    +0.000 A 
ATOM     24  C   UNL     1      48.270   5.323  17.444  0.00  0.00    +0.000 A 
BRANCH  19  26
ATOM     25  C   UNL     1      47.276   2.818  17.679  0.00  0.00    +0.000 C 
ATOM     26  O   UNL     1      46.860   3.661  16.608  0.00  0.00    +0.000 OA
ENDBRANCH  19  26
BRANCH  23  27
ATOM     27  O   UNL     1      49.603   6.956  18.469  0.00  0.00    +0.000 OA
ATOM     28  C   UNL     1      48.682   7.072  19.550  0.00  0.00    +0.000 C 
ENDBRANCH  23  27
ENDBRANCH  18  21
ENDBRANCH  17  18
ENDBRANCH   1  17
TORSDOF 7
ENDMDL
MODEL 9
REMARK VINA RESULT:    -6.668      4.746      8.686
REMARK INTER + INTRA:          -9.959
REMARK INTER:                  -9.119
REMARK INTRA:                  -0.840
REMARK UNBOUND:                -0.757
REMARK  Name = 
REMARK  10 active torsions:
REMARK  status: ('A' for Active; 'I' for Inactive)
REMARK    1  A    between atoms: C_1  and  O_2
REMARK    2  A    between atoms: O_2  and  C_3
REMARK    3  A    between atoms: C_5  and  C_6
REMARK    4  A    between atoms: C_6  and  O_7
REMARK    5  A    between atoms: O_7  and  C_8
REMARK    6  A    between atoms: C_13  and  C_14
REMARK    7  A    between atoms: C_17  and  C_18
REMARK    8  A    between atoms: C_19  and  O_20
REMARK    9  A    between atoms: C_24  and  O_25
REMARK   10  A    between atoms: O_25  and  C_26
REMARK                            x       y       z     vdW  Elec       q    Type
REMARK                         _______ _______ _______ _____ _____    ______ ____
ROOT
ATOM      1  C   UNL     1      47.577   4.009  16.674  0.00  0.00    +0.000 A 
ATOM      2  C   UNL     1      47.116   4.708  17.785  0.00  0.00    +0.000 A 
ATOM      3  C   UNL     1      47.987   4.985  18.835  0.00  0.00    +0.000 A 
ATOM      4  C   UNL     1      49.308   4.535  18.782  0.00  0.00    +0.000 A 
ATOM      5  F   UNL     1      50.112   4.851  19.808  0.00  0.00    +0.000 F 
ATOM      6  C   UNL     1      49.785   3.763  17.710  0.00  0.00    +0.000 A 
ATOM      7  C   UNL     1      48.885   3.516  16.658  0.00  0.00    +0.000 A 
ENDROOT
BRANCH   6   8
ATOM      8  C   UNL     1      51.127   3.141  17.683  0.00  0.00    +0.000 A 
ATOM      9  C   UNL     1      52.288   3.924  17.725  0.00  0.00    +0.000 A 
ATOM     10  C   UNL     1      53.558   3.347  17.836  0.00  0.00    +0.000 A 
ATOM     11  C   UNL     1      53.711   1.962  17.933  0.00  0.00    +0.000 A 
ATOM     12  C   UNL     1      55.084   1.383  18.085  0.00  0.00    +0.000 C 
ATOM     13  C   UNL     1      52.562   1.171  17.886  0.00  0.00    +0.000 A 
ATOM     14  C   UNL     1      51.300   1.747  17.731  0.00  0.00    +0.000 A 
BRANCH  13  15
ATOM     15  O   UNL     1      52.591  -0.189  18.017  0.00  0.00    +0.000 OA
ATOM     16  H   UNL     1      52.163  -0.434  18.852  0.00  0.00    +0.000 HD
ENDBRANCH  13  15
ENDBRANCH   6   8
BRANCH   1  17
ATOM     17  O   UNL     1      46.679   3.825  15.661  0.00  0.00    +0.000 OA
BRANCH  17  18
ATOM     18  C   UNL     1      47.262   3.663  14.365  0.00  0.00    +0.000 C 
BRANCH  18  21
ATOM     19  C   UNL     1      44.686   3.878  11.577  0.00  0.00    +0.000 A 
ATOM     20  C   UNL     1      45.558   3.358  12.531  0.00  0.00    +0.000 A 
ATOM     21  C   UNL     1      46.304   4.219  13.350  0.00  0.00    +0.000 A 
ATOM     22  C   UNL     1      46.170   5.606  13.206  0.00  0.00    +0.000 A 
ATOM     23  C   UNL     1      45.315   6.130  12.244  0.00  0.00    +0.000 A 
ATOM     24  C   UNL     1      44.561   5.264  11.449  0.00  0.00    +0.000 A 
BRANCH  19  26
ATOM     25  C   UNL     1      44.572   2.648   9.545  0.00  0.00    +0.000 C 
ATOM     26  O   UNL     1      43.921   3.143  10.711  0.00  0.00    +0.000 OA
ENDBRANCH  19  26
BRANCH  23  27
ATOM     27  O   UNL     1      45.130   7.467  12.012  0.00  0.00    +0.000 OA
ATOM     28  C   UNL     1      45.771   8.335  12.943  0.00  0.00    +0.000 C 
ENDBRANCH  23  27
ENDBRANCH  18  21
ENDBRANCH  17  18
ENDBRANCH   1  17
TORSDOF 7
ENDMDL
