MODEL 1
REMARK VINA RESULT:    -7.659      0.000      0.000
REMARK INTER + INTRA:         -10.966
REMARK INTER:                 -10.346
REMARK INTRA:                  -0.620
REMARK UNBOUND:                -0.620
REMARK  Name = 
REMARK  7 active torsions:
REMARK  status: ('A' for Active; 'I' for Inactive)
REMARK    1  A    between atoms: C_1  and  O_2
REMARK    2  A    between atoms: O_2  and  C_3
REMARK    3  A    between atoms: C_5  and  C_6
REMARK    4  A    between atoms: C_6  and  N_7
REMARK    5  A    between atoms: C_12  and  C_13
REMARK    6  A    between atoms: C_21  and  O_22
REMARK    7  A    between atoms: O_22  and  C_23
REMARK                            x       y       z     vdW  Elec       q    Type
REMARK                         _______ _______ _______ _____ _____    ______ ____
ROOT
ATOM      1  C   UNL     1      45.585   7.475  12.074  0.00  0.00    +0.000 C 
ENDROOT
BRANCH   1   2
ATOM      2  N   UNL     1      46.711   7.158  12.947  0.00  0.00    +0.000 N 
ATOM      3  C   UNL     1      47.764   8.015  13.194  0.00  0.00    +0.000 A 
ATOM      4  C   UNL     1      48.563   7.447  14.161  0.00  0.00    +0.000 A 
ATOM      5  C   UNL     1      47.980   6.211  14.519  0.00  0.00    +0.000 A 
ATOM      6  N   UNL     1      48.392   5.319  15.444  0.00  0.00    +0.000 NA
ATOM      7  C   UNL     1      47.582   4.237  15.532  0.00  0.00    +0.000 A 
ATOM      8  N   UNL     1      46.467   3.983  14.809  0.00  0.00    +0.000 NA
ATOM      9  C   UNL     1      46.083   4.891  13.894  0.00  0.00    +0.000 A 
ATOM     10  C   UNL     1      46.838   6.039  13.743  0.00  0.00    +0.000 A 
BRANCH   7  11
ATOM     11  C   UNL     1      47.958   3.221  16.587  0.00  0.00    +0.000 C 
ATOM     12  N   UNL     1      47.002   2.946  17.539  0.00  0.00    +0.000 N 
ATOM     13  O   UNL     1      49.040   2.645  16.626  0.00  0.00    +0.000 OA
ATOM     14  H   UNL     1      46.103   3.407  17.511  0.00  0.00    +0.000 HD
ATOM     15  H   UNL     1      47.201   2.262  18.253  0.00  0.00    +0.000 HD
ENDBRANCH   7  11
ENDBRANCH   1   2
BRANCH   1  18
ATOM     16  C   UNL     1      43.893   4.403  10.530  0.00  0.00    +0.000 A 
ATOM     17  C   UNL     1      44.177   5.494  11.369  0.00  0.00    +0.000 A 
ATOM     18  C   UNL     1      45.264   6.348  11.123  0.00  0.00    +0.000 A 
ATOM     19  C   UNL     1      46.064   6.107  10.002  0.00  0.00    +0.000 A 
ATOM     20  C   UNL     1      45.764   5.048   9.144  0.00  0.00    +0.000 A 
ATOM     21  C   UNL     1      44.674   4.201   9.386  0.00  0.00    +0.000 A 
BRANCH  16  23
ATOM     22  C   UNL     1      43.315   2.533  11.871  0.00  0.00    +0.000 C 
ATOM     23  O   UNL     1      42.955   3.458  10.847  0.00  0.00    +0.000 OA
ENDBRANCH  16  23
BRANCH  21  24
ATOM     24  O   UNL     1      44.549   3.211   8.457  0.00  0.00    +0.000 OA
BRANCH  24  25
ATOM     25  C   UNL     1      45.229   1.977   8.628  0.00  0.00    +0.000 C 
ATOM     26  F   UNL     1      46.092   1.670   7.638  0.00  0.00    +0.000 F 
ATOM     27  F   UNL     1      45.961   2.071   9.767  0.00  0.00    +0.000 F 
ATOM     28  F   UNL     1      44.339   0.977   8.801  0.00  0.00    +0.000 F 
ENDBRANCH  24  25
ENDBRANCH  21  24
ENDBRANCH   1  18
TORSDOF 6
ENDMDL
MODEL 2
REMARK VINA RESULT:    -7.585      4.233      7.239
REMARK INTER + INTRA:         -10.866
REMARK INTER:                  -9.881
REMARK INTRA:                  -0.985
REMARK UNBOUND:                -0.620
REMARK  Name = 
REMARK  7 active torsions:
REMARK  status: ('A' for Active; 'I' for Inactive)
REMARK    1  A    between atoms: C_1  and  O_2
REMARK    2  A    between atoms: O_2  and  C_3
REMARK    3  A    between atoms: C_5  and  C_6
REMARK    4  A    between atoms: C_6  and  N_7
REMARK    5  A    between atoms: C_12  and  C_13
REMARK    6  A    between atoms: C_21  and  O_22
REMARK    7  A    between atoms: O_22  and  C_23
REMARK                            x       y       z     vdW  Elec       q    Type
REMARK                         _______ _______ _______ _____ _____    ______ ____
ROOT
ATOM      1  C   UNL     1      44.005   5.523  11.214  0.00  0.00    +0.000 C 
ENDROOT
BRANCH   1   2
ATOM      2  N   UNL     1      44.355   4.278  10.540  0.00  0.00    +0.000 N 
ATOM      3  C   UNL     1      43.791   3.053  10.833  0.00  0.00    +0.000 A 
ATOM      4  C   UNL     1      44.253   2.135   9.916  0.00  0.00    +0.000 A 
ATOM      5  C   UNL     1      45.120   2.818   9.034  0.00  0.00    +0.000 A 
ATOM      6  N   UNL     1      45.784   2.338   7.962  0.00  0.00    +0.000 NA
ATOM      7  C   UNL     1      46.525   3.283   7.333  0.00  0.00    +0.000 A 
ATOM      8  N   UNL     1      46.657   4.585   7.673  0.00  0.00    +0.000 NA
ATOM      9  C   UNL     1      45.983   5.033   8.748  0.00  0.00    +0.000 A 
ATOM     10  C   UNL     1      45.185   4.146   9.445  0.00  0.00    +0.000 A 
BRANCH   7  11
ATOM     11  C   UNL     1      47.254   2.823   6.091  0.00  0.00    +0.000 C 
ATOM     12  N   UNL     1      48.575   2.473   6.252  0.00  0.00    +0.000 N 
ATOM     13  O   UNL     1      46.733   2.743   4.983  0.00  0.00    +0.000 OA
ATOM     14  H   UNL     1      49.013   2.526   7.163  0.00  0.00    +0.000 HD
ATOM     15  H   UNL     1      49.099   2.144   5.455  0.00  0.00    +0.000 HD
ENDBRANCH   7  11
ENDBRANCH   1   2
BRANCH   1  18
ATOM     16  C   UNL     1      47.030   5.952  13.525  0.00  0.00    +0.000 A 
ATOM     17  C   UNL     1      45.961   5.383  12.812  0.00  0.00    +0.000 A 
ATOM     18  C   UNL     1      45.185   6.142  11.921  0.00  0.00    +0.000 A 
ATOM     19  C   UNL     1      45.507   7.490  11.734  0.00  0.00    +0.000 A 
ATOM     20  C   UNL     1      46.591   8.051  12.411  0.00  0.00    +0.000 A 
ATOM     21  C   UNL     1      47.370   7.291  13.294  0.00  0.00    +0.000 A 
BRANCH  16  23
ATOM     22  C   UNL     1      47.142   4.016  14.892  0.00  0.00    +0.000 C 
ATOM     23  O   UNL     1      47.683   5.284  14.526  0.00  0.00    +0.000 OA
ENDBRANCH  16  23
BRANCH  21  24
ATOM     24  O   UNL     1      48.369   8.009  13.880  0.00  0.00    +0.000 OA
BRANCH  24  25
ATOM     25  C   UNL     1      49.705   7.890  13.416  0.00  0.00    +0.000 C 
ATOM     26  F   UNL     1      49.841   7.187  12.272  0.00  0.00    +0.000 F 
ATOM     27  F   UNL     1      50.159   9.143  13.157  0.00  0.00    +0.000 F 
ATOM     28  F   UNL     1      50.488   7.368  14.383  0.00  0.00    +0.000 F 
ENDBRANCH  24  25
ENDBRANCH  21  24
ENDBRANCH   1  18
TORSDOF 6
ENDMDL
MODEL 3
REMARK VINA RESULT:    -7.345      4.581      7.265
REMARK INTER + INTRA:         -10.541
REMARK INTER:                  -9.647
REMARK INTRA:                  -0.894
REMARK UNBOUND:                -0.620
REMARK  Name = 
REMARK  7 active torsions:
REMARK  status: ('A' for Active; 'I' for Inactive)
REMARK    1  A    between atoms: C_1  and  O_2
REMARK    2  A    between atoms: O_2  and  C_3
REMARK    3  A    between atoms: C_5  and  C_6
REMARK    4  A    between atoms: C_6  and  N_7
REMARK    5  A    between atoms: C_12  and  C_13
REMARK    6  A    between atoms: C_21  and  O_22
REMARK    7  A    between atoms: O_22  and  C_23
REMARK                            x       y       z     vdW  Elec       q    Type
REMARK                         _______ _______ _______ _____ _____    ______ ____
ROOT
ATOM      1  C   UNL     1      43.569   5.678  10.806  0.00  0.00    +0.000 C 
ENDROOT
BRANCH   1   2
ATOM      2  N   UNL     1      44.034   4.331  10.490  0.00  0.00    +0.000 N 
ATOM      3  C   UNL     1      43.550   3.185  11.088  0.00  0.00    +0.000 A 
ATOM      4  C   UNL     1      44.112   2.099  10.453  0.00  0.00    +0.000 A 
ATOM      5  C   UNL     1      44.957   2.594   9.435  0.00  0.00    +0.000 A 
ATOM      6  N   UNL     1      45.692   1.905   8.538  0.00  0.00    +0.000 NA
ATOM      7  C   UNL     1      46.384   2.707   7.694  0.00  0.00    +0.000 A 
ATOM      8  N   UNL     1      46.408   4.059   7.679  0.00  0.00    +0.000 NA
ATOM      9  C   UNL     1      45.666   4.718   8.587  0.00  0.00    +0.000 A 
ATOM     10  C   UNL     1      44.910   3.984   9.482  0.00  0.00    +0.000 A 
BRANCH   7  11
ATOM     11  C   UNL     1      47.189   1.997   6.628  0.00  0.00    +0.000 C 
ATOM     12  N   UNL     1      47.878   2.800   5.747  0.00  0.00    +0.000 N 
ATOM     13  O   UNL     1      47.258   0.777   6.523  0.00  0.00    +0.000 OA
ATOM     14  H   UNL     1      47.836   3.807   5.829  0.00  0.00    +0.000 HD
ATOM     15  H   UNL     1      48.443   2.372   5.030  0.00  0.00    +0.000 HD
ENDBRANCH   7  11
ENDBRANCH   1   2
BRANCH   1  18
ATOM     16  C   UNL     1      45.593   8.644  12.142  0.00  0.00    +0.000 A 
ATOM     17  C   UNL     1      44.606   7.880  11.497  0.00  0.00    +0.000 A 
ATOM     18  C   UNL     1      44.604   6.477  11.558  0.00  0.00    +0.000 A 
ATOM     19  C   UNL     1      45.605   5.840  12.298  0.00  0.00    +0.000 A 
ATOM     20  C   UNL     1      46.566   6.594  12.971  0.00  0.00    +0.000 A 
ATOM     21  C   UNL     1      46.561   7.995  12.917  0.00  0.00    +0.000 A 
BRANCH  16  23
ATOM     22  C   UNL     1      44.527  10.692  11.593  0.00  0.00    +0.000 C 
ATOM     23  O   UNL     1      45.719   9.994  11.950  0.00  0.00    +0.000 OA
ENDBRANCH  16  23
BRANCH  21  24
ATOM     24  O   UNL     1      47.586   8.561  13.615  0.00  0.00    +0.000 OA
BRANCH  24  25
ATOM     25  C   UNL     1      48.877   8.664  13.037  0.00  0.00    +0.000 C 
ATOM     26  F   UNL     1      48.882   8.805  11.695  0.00  0.00    +0.000 F 
ATOM     27  F   UNL     1      49.462   9.779  13.545  0.00  0.00    +0.000 F 
ATOM     28  F   UNL     1      49.635   7.609  13.400  0.00  0.00    +0.000 F 
ENDBRANCH  24  25
ENDBRANCH  21  24
ENDBRANCH   1  18
TORSDOF 6
ENDMDL
MODEL 4
REMARK VINA RESULT:    -7.117      1.648      2.630
REMARK INTER + INTRA:         -10.233
REMARK INTER:                  -9.553
REMARK INTRA:                  -0.680
REMARK UNBOUND:                -0.620
REMARK  Name = 
REMARK  7 active torsions:
REMARK  status: ('A' for Active; 'I' for Inactive)
REMARK    1  A    between atoms: C_1  and  O_2
REMARK    2  A    between atoms: O_2  and  C_3
REMARK    3  A    between atoms: C_5  and  C_6
REMARK    4  A    between atoms: C_6  and  N_7
REMARK    5  A    between atoms: C_12  and  C_13
REMARK    6  A    between atoms: C_21  and  O_22
REMARK    7  A    between atoms: O_22  and  C_23
REMARK                            x       y       z     vdW  Elec       q    Type
REMARK                         _______ _______ _______ _____ _____    ______ ____
ROOT
ATOM      1  C   UNL     1      45.063   5.917  11.129  0.00  0.00    +0.000 C 
ENDROOT
BRANCH   1   2
ATOM      2  N   UNL     1      46.253   6.140  11.942  0.00  0.00    +0.000 N 
ATOM      3  C   UNL     1      47.188   7.124  11.694  0.00  0.00    +0.000 A 
ATOM      4  C   UNL     1      48.094   7.129  12.732  0.00  0.00    +0.000 A 
ATOM      5  C   UNL     1      47.699   6.124  13.644  0.00  0.00    +0.000 A 
ATOM      6  N   UNL     1      48.263   5.782  14.820  0.00  0.00    +0.000 NA
ATOM      7  C   UNL     1      47.612   4.771  15.444  0.00  0.00    +0.000 A 
ATOM      8  N   UNL     1      46.515   4.108  15.010  0.00  0.00    +0.000 NA
ATOM      9  C   UNL     1      45.977   4.472  13.833  0.00  0.00    +0.000 A 
ATOM     10  C   UNL     1      46.562   5.508  13.130  0.00  0.00    +0.000 A 
BRANCH   7  11
ATOM     11  C   UNL     1      48.162   4.372  16.795  0.00  0.00    +0.000 C 
ATOM     12  N   UNL     1      47.238   4.156  17.792  0.00  0.00    +0.000 N 
ATOM     13  O   UNL     1      49.357   4.229  17.030  0.00  0.00    +0.000 OA
ATOM     14  H   UNL     1      46.249   4.262  17.607  0.00  0.00    +0.000 HD
ATOM     15  H   UNL     1      47.557   3.872  18.706  0.00  0.00    +0.000 HD
ENDBRANCH   7  11
ENDBRANCH   1   2
BRANCH   1  18
ATOM     16  C   UNL     1      45.681   3.640   8.110  0.00  0.00    +0.000 A 
ATOM     17  C   UNL     1      45.620   4.770   8.944  0.00  0.00    +0.000 A 
ATOM     18  C   UNL     1      45.178   4.680  10.274  0.00  0.00    +0.000 A 
ATOM     19  C   UNL     1      44.810   3.427  10.772  0.00  0.00    +0.000 A 
ATOM     20  C   UNL     1      44.905   2.295   9.961  0.00  0.00    +0.000 A 
ATOM     21  C   UNL     1      45.354   2.385   8.637  0.00  0.00    +0.000 A 
BRANCH  16  23
ATOM     22  C   UNL     1      47.302   3.903   6.398  0.00  0.00    +0.000 C 
ATOM     23  O   UNL     1      45.936   3.731   6.768  0.00  0.00    +0.000 OA
ENDBRANCH  16  23
BRANCH  21  24
ATOM     24  O   UNL     1      45.359   1.184   7.991  0.00  0.00    +0.000 OA
BRANCH  24  25
ATOM     25  C   UNL     1      46.583   0.600   7.574  0.00  0.00    +0.000 C 
ATOM     26  F   UNL     1      46.688  -0.722   7.824  0.00  0.00    +0.000 F 
ATOM     27  F   UNL     1      46.666   0.747   6.227  0.00  0.00    +0.000 F 
ATOM     28  F   UNL     1      47.624   1.264   8.117  0.00  0.00    +0.000 F 
ENDBRANCH  24  25
ENDBRANCH  21  24
ENDBRANCH   1  18
TORSDOF 6
ENDMDL
MODEL 5
REMARK VINA RESULT:    -6.349      4.069      5.847
REMARK INTER + INTRA:          -9.196
REMARK INTER:                  -8.318
REMARK INTRA:                  -0.878
REMARK UNBOUND:                -0.620
REMARK  Name = 
REMARK  7 active torsions:
REMARK  status: ('A' for Active; 'I' for Inactive)
REMARK    1  A    between atoms: C_1  and  O_2
REMARK    2  A    between atoms: O_2  and  C_3
REMARK    3  A    between atoms: C_5  and  C_6
REMARK    4  A    between atoms: C_6  and  N_7
REMARK    5  A    between atoms: C_12  and  C_13
REMARK    6  A    between atoms: C_21  and  O_22
REMARK    7  A    between atoms: O_22  and  C_23
REMARK                            x       y       z     vdW  Elec       q    Type
REMARK                         _______ _______ _______ _____ _____    ______ ____
ROOT
ATOM      1  C   UNL     1      48.239   4.673  17.566  0.00  0.00    +0.000 C 
ENDROOT
BRANCH   1   2
ATOM      2  N   UNL     1      49.678   4.546  17.772  0.00  0.00    +0.000 N 
ATOM      3  C   UNL     1      50.482   5.556  18.259  0.00  0.00    +0.000 A 
ATOM      4  C   UNL     1      51.747   5.044  18.451  0.00  0.00    +0.000 A 
ATOM      5  C   UNL     1      51.713   3.681  18.078  0.00  0.00    +0.000 A 
ATOM      6  N   UNL     1      52.705   2.769  18.123  0.00  0.00    +0.000 NA
ATOM      7  C   UNL     1      52.316   1.544  17.693  0.00  0.00    +0.000 A 
ATOM      8  N   UNL     1      51.094   1.181  17.241  0.00  0.00    +0.000 NA
ATOM      9  C   UNL     1      50.126   2.114  17.207  0.00  0.00    +0.000 A 
ATOM     10  C   UNL     1      50.424   3.392  17.642  0.00  0.00    +0.000 A 
BRANCH   7  11
ATOM     11  C   UNL     1      53.367   0.460  17.767  0.00  0.00    +0.000 C 
ATOM     12  N   UNL     1      53.637  -0.211  16.595  0.00  0.00    +0.000 N 
ATOM     13  O   UNL     1      53.977   0.167  18.790  0.00  0.00    +0.000 OA
ATOM     14  H   UNL     1      53.148   0.028  15.742  0.00  0.00    +0.000 HD
ATOM     15  H   UNL     1      54.344  -0.931  16.591  0.00  0.00    +0.000 HD
ENDBRANCH   7  11
ENDBRANCH   1   2
BRANCH   1  18
ATOM     16  C   UNL     1      46.816   4.417  14.018  0.00  0.00    +0.000 A 
ATOM     17  C   UNL     1      47.103   4.148  15.367  0.00  0.00    +0.000 A 
ATOM     18  C   UNL     1      47.894   5.015  16.138  0.00  0.00    +0.000 A 
ATOM     19  C   UNL     1      48.386   6.180  15.541  0.00  0.00    +0.000 A 
ATOM     20  C   UNL     1      48.074   6.471  14.212  0.00  0.00    +0.000 A 
ATOM     21  C   UNL     1      47.277   5.609  13.446  0.00  0.00    +0.000 A 
BRANCH  16  23
ATOM     22  C   UNL     1      44.835   3.764  12.887  0.00  0.00    +0.000 C 
ATOM     23  O   UNL     1      46.202   3.505  13.202  0.00  0.00    +0.000 OA
ENDBRANCH  16  23
BRANCH  21  24
ATOM     24  O   UNL     1      47.097   6.043  12.167  0.00  0.00    +0.000 OA
BRANCH  24  25
ATOM     25  C   UNL     1      46.086   6.994  11.869  0.00  0.00    +0.000 C 
ATOM     26  F   UNL     1      45.148   7.136  12.828  0.00  0.00    +0.000 F 
ATOM     27  F   UNL     1      46.690   8.202  11.735  0.00  0.00    +0.000 F 
ATOM     28  F   UNL     1      45.506   6.700  10.686  0.00  0.00    +0.000 F 
ENDBRANCH  24  25
ENDBRANCH  21  24
ENDBRANCH   1  18
TORSDOF 6
ENDMDL
MODEL 6
REMARK VINA RESULT:    -6.302      4.600      7.872
REMARK INTER + INTRA:          -9.133
REMARK INTER:                  -8.082
REMARK INTRA:                  -1.052
REMARK UNBOUND:                -0.620
REMARK  Name = 
REMARK  7 active torsions:
REMARK  status: ('A' for Active; 'I' for Inactive)
REMARK    1  A    between atoms: C_1  and  O_2
REMARK    2  A    between atoms: O_2  and  C_3
REMARK    3  A    between atoms: C_5  and  C_6
REMARK    4  A    between atoms: C_6  and  N_7
REMARK    5  A    between atoms: C_12  and  C_13
REMARK    6  A    between atoms: C_21  and  O_22
REMARK    7  A    between atoms: O_22  and  C_23
REMARK                            x       y       z     vdW  Elec       q    Type
REMARK                         _______ _______ _______ _____ _____    ______ ____
ROOT
ATOM      1  C   UNL     1      48.834   7.354  14.076  0.00  0.00    +0.000 C 
ENDROOT
BRANCH   1   2
ATOM      2  N   UNL     1      47.473   7.373  13.550  0.00  0.00    +0.000 N 
ATOM      3  C   UNL     1      46.834   8.510  13.096  0.00  0.00    +0.000 A 
ATOM      4  C   UNL     1      45.626   8.135  12.550  0.00  0.00    +0.000 A 
ATOM      5  C   UNL     1      45.525   6.731  12.669  0.00  0.00    +0.000 A 
ATOM      6  N   UNL     1      44.534   5.917  12.250  0.00  0.00    +0.000 NA
ATOM      7  C   UNL     1      44.772   4.611  12.523  0.00  0.00    +0.000 A 
ATOM      8  N   UNL     1      45.848   4.085  13.150  0.00  0.00    +0.000 NA
ATOM      9  C   UNL     1      46.819   4.923  13.557  0.00  0.00    +0.000 A 
ATOM     10  C   UNL     1      46.674   6.275  13.308  0.00  0.00    +0.000 A 
BRANCH   7  11
ATOM     11  C   UNL     1      43.723   3.639  12.033  0.00  0.00    +0.000 C 
ATOM     12  N   UNL     1      43.858   2.334  12.449  0.00  0.00    +0.000 N 
ATOM     13  O   UNL     1      42.783   3.954  11.311  0.00  0.00    +0.000 OA
ATOM     14  H   UNL     1      44.624   2.064  13.052  0.00  0.00    +0.000 HD
ATOM     15  H   UNL     1      43.173   1.651  12.162  0.00  0.00    +0.000 HD
ENDBRANCH   7  11
ENDBRANCH   1   2
BRANCH   1  18
ATOM     16  C   UNL     1      49.111   5.617  17.480  0.00  0.00    +0.000 A 
ATOM     17  C   UNL     1      49.132   5.860  16.096  0.00  0.00    +0.000 A 
ATOM     18  C   UNL     1      48.866   7.134  15.568  0.00  0.00    +0.000 A 
ATOM     19  C   UNL     1      48.595   8.181  16.454  0.00  0.00    +0.000 A 
ATOM     20  C   UNL     1      48.610   7.955  17.831  0.00  0.00    +0.000 A 
ATOM     21  C   UNL     1      48.883   6.684  18.357  0.00  0.00    +0.000 A 
BRANCH  16  23
ATOM     22  C   UNL     1      48.078   3.498  17.749  0.00  0.00    +0.000 C 
ATOM     23  O   UNL     1      49.189   4.355  18.006  0.00  0.00    +0.000 OA
ENDBRANCH  16  23
BRANCH  21  24
ATOM     24  O   UNL     1      48.832   6.647  19.718  0.00  0.00    +0.000 OA
BRANCH  24  25
ATOM     25  C   UNL     1      47.615   6.345  20.383  0.00  0.00    +0.000 C 
ATOM     26  F   UNL     1      47.115   7.355  21.124  0.00  0.00    +0.000 F 
ATOM     27  F   UNL     1      46.689   6.069  19.430  0.00  0.00    +0.000 F 
ATOM     28  F   UNL     1      47.760   5.237  21.138  0.00  0.00    +0.000 F 
ENDBRANCH  24  25
ENDBRANCH  21  24
ENDBRANCH   1  18
TORSDOF 6
ENDMDL
MODEL 7
REMARK VINA RESULT:    -6.233      2.560      3.267
REMARK INTER + INTRA:          -9.040
REMARK INTER:                  -8.591
REMARK INTRA:                  -0.448
REMARK UNBOUND:                -0.620
REMARK  Name = 
REMARK  7 active torsions:
REMARK  status: ('A' for Active; 'I' for Inactive)
REMARK    1  A    between atoms: C_1  and  O_2
REMARK    2  A    between atoms: O_2  and  C_3
REMARK    3  A    between atoms: C_5  and  C_6
REMARK    4  A    between atoms: C_6  and  N_7
REMARK    5  A    between atoms: C_12  and  C_13
REMARK    6  A    between atoms: C_21  and  O_22
REMARK    7  A    between atoms: O_22  and  C_23
REMARK                            x       y       z     vdW  Elec       q    Type
REMARK                         _______ _______ _______ _____ _____    ______ ____
ROOT
ATOM      1  C   UNL     1      45.180   6.614  12.874  0.00  0.00    +0.000 C 
ENDROOT
BRANCH   1   2
ATOM      2  N   UNL     1      46.186   7.668  12.788  0.00  0.00    +0.000 N 
ATOM      3  C   UNL     1      45.934   8.943  12.324  0.00  0.00    +0.000 A 
ATOM      4  C   UNL     1      47.069   9.701  12.513  0.00  0.00    +0.000 A 
ATOM      5  C   UNL     1      48.040   8.868  13.114  0.00  0.00    +0.000 A 
ATOM      6  N   UNL     1      49.291   9.180  13.510  0.00  0.00    +0.000 NA
ATOM      7  C   UNL     1      49.947   8.130  14.060  0.00  0.00    +0.000 A 
ATOM      8  N   UNL     1      49.487   6.869  14.228  0.00  0.00    +0.000 NA
ATOM      9  C   UNL     1      48.236   6.590  13.823  0.00  0.00    +0.000 A 
ATOM     10  C   UNL     1      47.480   7.603  13.263  0.00  0.00    +0.000 A 
BRANCH   7  11
ATOM     11  C   UNL     1      51.339   8.424  14.573  0.00  0.00    +0.000 C 
ATOM     12  N   UNL     1      52.054   7.349  15.050  0.00  0.00    +0.000 N 
ATOM     13  O   UNL     1      51.845   9.541  14.574  0.00  0.00    +0.000 OA
ATOM     14  H   UNL     1      51.651   6.421  15.046  0.00  0.00    +0.000 HD
ATOM     15  H   UNL     1      52.994   7.493  15.387  0.00  0.00    +0.000 HD
ENDBRANCH   7  11
ENDBRANCH   1   2
BRANCH   1  18
ATOM     16  C   UNL     1      44.213   3.874  10.376  0.00  0.00    +0.000 A 
ATOM     17  C   UNL     1      44.282   4.662  11.538  0.00  0.00    +0.000 A 
ATOM     18  C   UNL     1      45.075   5.820  11.595  0.00  0.00    +0.000 A 
ATOM     19  C   UNL     1      45.793   6.195  10.456  0.00  0.00    +0.000 A 
ATOM     20  C   UNL     1      45.699   5.438   9.288  0.00  0.00    +0.000 A 
ATOM     21  C   UNL     1      44.901   4.287   9.229  0.00  0.00    +0.000 A 
BRANCH  16  23
ATOM     22  C   UNL     1      43.327   2.059  11.622  0.00  0.00    +0.000 C 
ATOM     23  O   UNL     1      43.594   2.653  10.353  0.00  0.00    +0.000 OA
ENDBRANCH  16  23
BRANCH  21  24
ATOM     24  O   UNL     1      44.949   3.664   8.018  0.00  0.00    +0.000 OA
BRANCH  24  25
ATOM     25  C   UNL     1      46.158   3.076   7.562  0.00  0.00    +0.000 C 
ATOM     26  F   UNL     1      47.225   3.900   7.578  0.00  0.00    +0.000 F 
ATOM     27  F   UNL     1      46.450   2.047   8.397  0.00  0.00    +0.000 F 
ATOM     28  F   UNL     1      45.985   2.557   6.328  0.00  0.00    +0.000 F 
ENDBRANCH  24  25
ENDBRANCH  21  24
ENDBRANCH   1  18
TORSDOF 6
ENDMDL
MODEL 8
REMARK VINA RESULT:    -6.204      3.909      5.965
REMARK INTER + INTRA:          -9.000
REMARK INTER:                  -7.990
REMARK INTRA:                  -1.011
REMARK UNBOUND:                -0.620
REMARK  Name = 
REMARK  7 active torsions:
REMARK  status: ('A' for Active; 'I' for Inactive)
REMARK    1  A    between atoms: C_1  and  O_2
REMARK    2  A    between atoms: O_2  and  C_3
REMARK    3  A    between atoms: C_5  and  C_6
REMARK    4  A    between atoms: C_6  and  N_7
REMARK    5  A    between atoms: C_12  and  C_13
REMARK    6  A    between atoms: C_21  and  O_22
REMARK    7  A    between atoms: O_22  and  C_23
REMARK                            x       y       z     vdW  Elec       q    Type
REMARK                         _______ _______ _______ _____ _____    ______ ____
ROOT
ATOM      1  C   UNL     1      48.339   4.955  17.655  0.00  0.00    +0.000 C 
ENDROOT
BRANCH   1   2
ATOM      2  N   UNL     1      49.770   4.724  17.825  0.00  0.00    +0.000 N 
ATOM      3  C   UNL     1      50.649   5.659  18.332  0.00  0.00    +0.000 A 
ATOM      4  C   UNL     1      51.880   5.056  18.477  0.00  0.00    +0.000 A 
ATOM      5  C   UNL     1      51.748   3.715  18.052  0.00  0.00    +0.000 A 
ATOM      6  N   UNL     1      52.677   2.738  18.041  0.00  0.00    +0.000 NA
ATOM      7  C   UNL     1      52.199   1.560  17.573  0.00  0.00    +0.000 A 
ATOM      8  N   UNL     1      50.947   1.297  17.134  0.00  0.00    +0.000 NA
ATOM      9  C   UNL     1      50.043   2.293  17.157  0.00  0.00    +0.000 A 
ATOM     10  C   UNL     1      50.434   3.530  17.635  0.00  0.00    +0.000 A 
BRANCH   7  11
ATOM     11  C   UNL     1      53.176   0.406  17.583  0.00  0.00    +0.000 C 
ATOM     12  N   UNL     1      52.939  -0.589  18.504  0.00  0.00    +0.000 N 
ATOM     13  O   UNL     1      54.136   0.317  16.823  0.00  0.00    +0.000 OA
ATOM     14  H   UNL     1      52.146  -0.531  19.129  0.00  0.00    +0.000 HD
ATOM     15  H   UNL     1      53.554  -1.388  18.536  0.00  0.00    +0.000 HD
ENDBRANCH   7  11
ENDBRANCH   1   2
BRANCH   1  18
ATOM     16  C   UNL     1      47.989   6.516  14.173  0.00  0.00    +0.000 A 
ATOM     17  C   UNL     1      48.377   6.287  15.504  0.00  0.00    +0.000 A 
ATOM     18  C   UNL     1      47.959   5.146  16.207  0.00  0.00    +0.000 A 
ATOM     19  C   UNL     1      47.151   4.214  15.549  0.00  0.00    +0.000 A 
ATOM     20  C   UNL     1      46.793   4.416  14.215  0.00  0.00    +0.000 A 
ATOM     21  C   UNL     1      47.218   5.552  13.512  0.00  0.00    +0.000 A 
BRANCH  16  23
ATOM     22  C   UNL     1      47.233   8.706  13.664  0.00  0.00    +0.000 C 
ATOM     23  O   UNL     1      48.234   7.699  13.529  0.00  0.00    +0.000 OA
ENDBRANCH  16  23
BRANCH  21  24
ATOM     24  O   UNL     1      46.755   5.592  12.231  0.00  0.00    +0.000 OA
BRANCH  24  25
ATOM     25  C   UNL     1      45.384   5.853  11.973  0.00  0.00    +0.000 C 
ATOM     26  F   UNL     1      44.763   6.586  12.920  0.00  0.00    +0.000 F 
ATOM     27  F   UNL     1      45.316   6.569  10.822  0.00  0.00    +0.000 F 
ATOM     28  F   UNL     1      44.721   4.695  11.767  0.00  0.00    +0.000 F 
ENDBRANCH  24  25
ENDBRANCH  21  24
ENDBRANCH   1  18
TORSDOF 6
ENDMDL
MODEL 9
REMARK VINA RESULT:    -5.825      2.864      4.036
REMARK INTER + INTRA:          -8.488
REMARK INTER:                  -7.641
REMARK INTRA:                  -0.847
REMARK UNBOUND:                -0.620
REMARK  Name = 
REMARK  7 active torsions:
REMARK  status: ('A' for Active; 'I' for Inactive)
REMARK    1  A    between atoms: C_1  and  O_2
REMARK    2  A    between atoms: O_2  and  C_3
REMARK    3  A    between atoms: C_5  and  C_6
REMARK    4  A    between atoms: C_6  and  N_7
REMARK    5  A    between atoms: C_12  and  C_13
REMARK    6  A    between atoms: C_21  and  O_22
REMARK    7  A    between atoms: O_22  and  C_23
REMARK                            x       y       z     vdW  Elec       q    Type
REMARK                         _______ _______ _______ _____ _____    ______ ____
ROOT
ATOM      1  C   UNL     1      48.883   6.996  13.969  0.00  0.00    +0.000 C 
ENDROOT
BRANCH   1   2
ATOM      2  N   UNL     1      48.817   7.465  15.350  0.00  0.00    +0.000 N 
ATOM      3  C   UNL     1      48.419   8.734  15.718  0.00  0.00    +0.000 A 
ATOM      4  C   UNL     1      48.346   8.780  17.093  0.00  0.00    +0.000 A 
ATOM      5  C   UNL     1      48.705   7.502  17.579  0.00  0.00    +0.000 A 
ATOM      6  N   UNL     1      48.750   7.066  18.854  0.00  0.00    +0.000 NA
ATOM      7  C   UNL     1      49.131   5.770  18.956  0.00  0.00    +0.000 A 
ATOM      8  N   UNL     1      49.459   4.928  17.950  0.00  0.00    +0.000 NA
ATOM      9  C   UNL     1      49.406   5.393  16.689  0.00  0.00    +0.000 A 
ATOM     10  C   UNL     1      49.010   6.702  16.483  0.00  0.00    +0.000 A 
BRANCH   7  11
ATOM     11  C   UNL     1      49.152   5.202  20.357  0.00  0.00    +0.000 C 
ATOM     12  N   UNL     1      50.316   4.580  20.747  0.00  0.00    +0.000 N 
ATOM     13  O   UNL     1      48.209   5.276  21.139  0.00  0.00    +0.000 OA
ATOM     14  H   UNL     1      51.104   4.521  20.115  0.00  0.00    +0.000 HD
ATOM     15  H   UNL     1      50.384   4.201  21.679  0.00  0.00    +0.000 HD
ENDBRANCH   7  11
ENDBRANCH   1   2
BRANCH   1  18
ATOM     16  C   UNL     1      45.508   6.624  12.195  0.00  0.00    +0.000 A 
ATOM     17  C   UNL     1      46.758   7.120  12.602  0.00  0.00    +0.000 A 
ATOM     18  C   UNL     1      47.573   6.413  13.501  0.00  0.00    +0.000 A 
ATOM     19  C   UNL     1      47.125   5.179  13.981  0.00  0.00    +0.000 A 
ATOM     20  C   UNL     1      45.901   4.664  13.552  0.00  0.00    +0.000 A 
ATOM     21  C   UNL     1      45.092   5.366  12.648  0.00  0.00    +0.000 A 
BRANCH  16  23
ATOM     22  C   UNL     1      44.767   8.788  11.563  0.00  0.00    +0.000 C 
ATOM     23  O   UNL     1      44.623   7.372  11.466  0.00  0.00    +0.000 OA
ENDBRANCH  16  23
BRANCH  21  24
ATOM     24  O   UNL     1      43.926   4.721  12.361  0.00  0.00    +0.000 OA
BRANCH  24  25
ATOM     25  C   UNL     1      43.823   3.910  11.201  0.00  0.00    +0.000 C 
ATOM     26  F   UNL     1      44.971   3.303  10.836  0.00  0.00    +0.000 F 
ATOM     27  F   UNL     1      42.933   2.922  11.474  0.00  0.00    +0.000 F 
ATOM     28  F   UNL     1      43.325   4.629  10.173  0.00  0.00    +0.000 F 
ENDBRANCH  24  25
ENDBRANCH  21  24
ENDBRANCH   1  18
TORSDOF 6
ENDMDL
