MODEL 1
REMARK VINA RESULT:    -9.029      0.000      0.000
REMARK INTER + INTRA:         -13.298
REMARK INTER:                 -12.724
REMARK INTRA:                  -0.575
REMARK UNBOUND:                -0.575
REMARK  Name = 
REMARK  7 active torsions:
REMARK  status: ('A' for Active; 'I' for Inactive)
REMARK    1  A    between atoms: C_2  and  C_4
REMARK    2  A    between atoms: C_7  and  N_8
REMARK    3  A    between atoms: N_8  and  C_9
REMARK    4  A    between atoms: C_9  and  C_10
REMARK    5  A    between atoms: C_14  and  C_15
REMARK    6  A    between atoms: C_19  and  O_20
REMARK    7  A    between atoms: O_20  and  C_21
REMARK                            x       y       z     vdW  Elec       q    Type
REMARK                         _______ _______ _______ _____ _____    ______ ____
ROOT
ATOM      1  C   UNL     1      43.798   5.131  11.102  0.00  0.00    +0.000 C 
ATOM      2  C   UNL     1      43.049   4.358  12.188  0.00  0.00    +0.000 C 
ATOM      3  C   UNL     1      42.473   5.628  11.676  0.00  0.00    +0.000 C 
ENDROOT
BRANCH   1   4
ATOM      4  C   UNL     1      45.112   5.716  11.621  0.00  0.00    +0.000 A 
ATOM      5  C   UNL     1      45.495   7.040  11.358  0.00  0.00    +0.000 A 
ATOM      6  C   UNL     1      46.461   7.669  12.141  0.00  0.00    +0.000 A 
ATOM      7  C   UNL     1      47.069   6.976  13.190  0.00  0.00    +0.000 A 
ATOM      8  C   UNL     1      46.776   5.625  13.435  0.00  0.00    +0.000 A 
ATOM      9  C   UNL     1      45.843   5.003  12.593  0.00  0.00    +0.000 A 
BRANCH   8  10
ATOM     10  C   UNL     1      47.268   4.927  14.638  0.00  0.00    +0.000 A 
ATOM     11  C   UNL     1      47.355   3.531  14.651  0.00  0.00    +0.000 A 
ATOM     12  N   UNL     1      47.838   2.791  15.675  0.00  0.00    +0.000 NA
ATOM     13  C   UNL     1      48.275   3.478  16.751  0.00  0.00    +0.000 A 
ATOM     14  C   UNL     1      48.278   4.864  16.847  0.00  0.00    +0.000 A 
ATOM     15  C   UNL     1      47.749   5.595  15.780  0.00  0.00    +0.000 A 
BRANCH  14  16
ATOM     16  O   UNL     1      48.779   5.372  18.009  0.00  0.00    +0.000 OA
BRANCH  16  17
ATOM     17  C   UNL     1      47.828   5.902  18.913  0.00  0.00    +0.000 C 
ATOM     18  F   UNL     1      47.633   7.210  18.622  0.00  0.00    +0.000 F 
ATOM     19  F   UNL     1      46.652   5.267  18.674  0.00  0.00    +0.000 F 
ENDBRANCH  16  17
ENDBRANCH  14  16
ENDBRANCH   8  10
ENDBRANCH   1   4
BRANCH   1  20
ATOM     20  N   UNL     1      43.759   4.796   9.673  0.00  0.00    +0.000 N 
ATOM     21  H   UNL     1      43.574   5.561   9.025  0.00  0.00    +0.000 HD
BRANCH  20  25
ATOM     22  C   UNL     1      46.383   2.302   7.745  0.00  0.00    +0.000 A 
ATOM     23  C   UNL     1      46.291   3.644   7.436  0.00  0.00    +0.000 A 
ATOM     24  N   UNL     1      45.429   4.487   8.073  0.00  0.00    +0.000 NA
ATOM     25  C   UNL     1      44.655   3.931   9.037  0.00  0.00    +0.000 A 
ATOM     26  C   UNL     1      44.749   2.566   9.317  0.00  0.00    +0.000 A 
ATOM     27  N   UNL     1      45.611   1.718   8.701  0.00  0.00    +0.000 NA
BRANCH  22  29
ATOM     28  N   UNL     1      48.482   2.071   6.574  0.00  0.00    +0.000 N 
ATOM     29  C   UNL     1      47.365   1.427   7.042  0.00  0.00    +0.000 C 
ATOM     30  O   UNL     1      47.182   0.231   6.883  0.00  0.00    +0.000 OA
ATOM     31  H   UNL     1      49.197   1.540   6.094  0.00  0.00    +0.000 HD
ATOM     32  H   UNL     1      48.609   3.060   6.746  0.00  0.00    +0.000 HD
ENDBRANCH  22  29
ENDBRANCH  20  25
ENDBRANCH   1  20
TORSDOF 7
ENDMDL
MODEL 2
REMARK VINA RESULT:    -8.930      1.620      1.966
REMARK INTER + INTRA:         -13.159
REMARK INTER:                 -12.615
REMARK INTRA:                  -0.544
REMARK UNBOUND:                -0.575
REMARK  Name = 
REMARK  7 active torsions:
REMARK  status: ('A' for Active; 'I' for Inactive)
REMARK    1  A    between atoms: C_2  and  C_4
REMARK    2  A    between atoms: C_7  and  N_8
REMARK    3  A    between atoms: N_8  and  C_9
REMARK    4  A    between atoms: C_9  and  C_10
REMARK    5  A    between atoms: C_14  and  C_15
REMARK    6  A    between atoms: C_19  and  O_20
REMARK    7  A    between atoms: O_20  and  C_21
REMARK                            x       y       z     vdW  Elec       q    Type
REMARK                         _______ _______ _______ _____ _____    ______ ____
ROOT
ATOM      1  C   UNL     1      44.004   5.132  11.418  0.00  0.00    +0.000 C 
ATOM      2  C   UNL     1      43.825   4.169  12.592  0.00  0.00    +0.000 C 
ATOM      3  C   UNL     1      42.729   5.116  12.259  0.00  0.00    +0.000 C 
ENDROOT
BRANCH   1   4
ATOM      4  C   UNL     1      45.081   6.181  11.700  0.00  0.00    +0.000 A 
ATOM      5  C   UNL     1      44.906   7.535  11.380  0.00  0.00    +0.000 A 
ATOM      6  C   UNL     1      45.691   8.515  11.983  0.00  0.00    +0.000 A 
ATOM      7  C   UNL     1      46.674   8.152  12.905  0.00  0.00    +0.000 A 
ATOM      8  C   UNL     1      46.939   6.804  13.192  0.00  0.00    +0.000 A 
ATOM      9  C   UNL     1      46.172   5.838  12.525  0.00  0.00    +0.000 A 
BRANCH   8  10
ATOM     10  C   UNL     1      47.844   6.403  14.286  0.00  0.00    +0.000 A 
ATOM     11  C   UNL     1      49.042   7.094  14.494  0.00  0.00    +0.000 A 
ATOM     12  N   UNL     1      49.920   6.849  15.493  0.00  0.00    +0.000 NA
ATOM     13  C   UNL     1      49.584   5.863  16.350  0.00  0.00    +0.000 A 
ATOM     14  C   UNL     1      48.407   5.128  16.277  0.00  0.00    +0.000 A 
ATOM     15  C   UNL     1      47.536   5.393  15.216  0.00  0.00    +0.000 A 
BRANCH  14  16
ATOM     16  O   UNL     1      48.239   4.187  17.249  0.00  0.00    +0.000 OA
BRANCH  16  17
ATOM     17  C   UNL     1      47.774   2.923  16.812  0.00  0.00    +0.000 C 
ATOM     18  F   UNL     1      48.835   2.092  16.680  0.00  0.00    +0.000 F 
ATOM     19  F   UNL     1      46.999   2.416  17.805  0.00  0.00    +0.000 F 
ENDBRANCH  16  17
ENDBRANCH  14  16
ENDBRANCH   8  10
ENDBRANCH   1   4
BRANCH   1  20
ATOM     20  N   UNL     1      43.814   4.762  10.010  0.00  0.00    +0.000 N 
ATOM     21  H   UNL     1      43.459   5.487   9.387  0.00  0.00    +0.000 HD
BRANCH  20  25
ATOM     22  C   UNL     1      46.438   2.543   7.771  0.00  0.00    +0.000 A 
ATOM     23  C   UNL     1      46.349   3.915   7.643  0.00  0.00    +0.000 A 
ATOM     24  N   UNL     1      45.487   4.666   8.385  0.00  0.00    +0.000 NA
ATOM     25  C   UNL     1      44.710   3.988   9.266  0.00  0.00    +0.000 A 
ATOM     26  C   UNL     1      44.802   2.598   9.362  0.00  0.00    +0.000 A 
ATOM     27  N   UNL     1      45.664   1.838   8.639  0.00  0.00    +0.000 NA
BRANCH  22  29
ATOM     28  N   UNL     1      48.508   2.484   6.528  0.00  0.00    +0.000 N 
ATOM     29  C   UNL     1      47.421   1.768   6.959  0.00  0.00    +0.000 C 
ATOM     30  O   UNL     1      47.262   0.589   6.688  0.00  0.00    +0.000 OA
ATOM     31  H   UNL     1      49.222   2.023   5.979  0.00  0.00    +0.000 HD
ATOM     32  H   UNL     1      48.616   3.455   6.794  0.00  0.00    +0.000 HD
ENDBRANCH  22  29
ENDBRANCH  20  25
ENDBRANCH   1  20
TORSDOF 7
ENDMDL
MODEL 3
REMARK VINA RESULT:    -7.921      4.042      8.759
REMARK INTER + INTRA:         -11.737
REMARK INTER:                 -10.737
REMARK INTRA:                  -1.000
REMARK UNBOUND:                -0.575
REMARK  Name = 
REMARK  7 active torsions:
REMARK  status: ('A' for Active; 'I' for Inactive)
REMARK    1  A    between atoms: C_2  and  C_4
REMARK    2  A    between atoms: C_7  and  N_8
REMARK    3  A    between atoms: N_8  and  C_9
REMARK    4  A    between atoms: C_9  and  C_10
REMARK    5  A    between atoms: C_14  and  C_15
REMARK    6  A    between atoms: C_19  and  O_20
REMARK    7  A    between atoms: O_20  and  C_21
REMARK                            x       y       z     vdW  Elec       q    Type
REMARK                         _______ _______ _______ _____ _____    ______ ____
ROOT
ATOM      1  C   UNL     1      49.072   7.922  12.727  0.00  0.00    +0.000 C 
ATOM      2  C   UNL     1      49.685   8.254  11.366  0.00  0.00    +0.000 C 
ATOM      3  C   UNL     1      49.688   9.289  12.432  0.00  0.00    +0.000 C 
ENDROOT
BRANCH   1   4
ATOM      4  C   UNL     1      47.556   7.744  12.640  0.00  0.00    +0.000 A 
ATOM      5  C   UNL     1      46.667   8.814  12.825  0.00  0.00    +0.000 A 
ATOM      6  C   UNL     1      45.355   8.735  12.363  0.00  0.00    +0.000 A 
ATOM      7  C   UNL     1      44.908   7.578  11.722  0.00  0.00    +0.000 A 
ATOM      8  C   UNL     1      45.739   6.454  11.590  0.00  0.00    +0.000 A 
ATOM      9  C   UNL     1      47.035   6.542  12.118  0.00  0.00    +0.000 A 
BRANCH   8  10
ATOM     10  C   UNL     1      45.353   5.292  10.767  0.00  0.00    +0.000 A 
ATOM     11  C   UNL     1      44.552   4.283  11.310  0.00  0.00    +0.000 A 
ATOM     12  N   UNL     1      44.097   3.202  10.635  0.00  0.00    +0.000 NA
ATOM     13  C   UNL     1      44.447   3.123   9.335  0.00  0.00    +0.000 A 
ATOM     14  C   UNL     1      45.205   4.077   8.667  0.00  0.00    +0.000 A 
ATOM     15  C   UNL     1      45.679   5.167   9.403  0.00  0.00    +0.000 A 
BRANCH  14  16
ATOM     16  O   UNL     1      45.437   3.827   7.347  0.00  0.00    +0.000 OA
BRANCH  16  17
ATOM     17  C   UNL     1      46.786   3.586   6.991  0.00  0.00    +0.000 C 
ATOM     18  F   UNL     1      47.183   2.421   7.554  0.00  0.00    +0.000 F 
ATOM     19  F   UNL     1      46.817   3.403   5.646  0.00  0.00    +0.000 F 
ENDBRANCH  16  17
ENDBRANCH  14  16
ENDBRANCH   8  10
ENDBRANCH   1   4
BRANCH   1  20
ATOM     20  N   UNL     1      49.755   7.156  13.776  0.00  0.00    +0.000 N 
ATOM     21  H   UNL     1      50.762   7.290  13.864  0.00  0.00    +0.000 HD
BRANCH  20  25
ATOM     22  C   UNL     1      48.244   6.536  17.539  0.00  0.00    +0.000 A 
ATOM     23  C   UNL     1      48.286   5.530  16.595  0.00  0.00    +0.000 A 
ATOM     24  N   UNL     1      48.791   5.719  15.343  0.00  0.00    +0.000 NA
ATOM     25  C   UNL     1      49.256   6.963  15.069  0.00  0.00    +0.000 A 
ATOM     26  C   UNL     1      49.183   7.971  16.032  0.00  0.00    +0.000 A 
ATOM     27  N   UNL     1      48.695   7.794  17.287  0.00  0.00    +0.000 NA
BRANCH  22  29
ATOM     28  N   UNL     1      46.574   5.505  18.946  0.00  0.00    +0.000 N 
ATOM     29  C   UNL     1      47.711   6.271  18.907  0.00  0.00    +0.000 C 
ATOM     30  O   UNL     1      48.239   6.714  19.914  0.00  0.00    +0.000 OA
ATOM     31  H   UNL     1      46.159   5.277  19.840  0.00  0.00    +0.000 HD
ATOM     32  H   UNL     1      46.179   5.137  18.091  0.00  0.00    +0.000 HD
ENDBRANCH  22  29
ENDBRANCH  20  25
ENDBRANCH   1  20
TORSDOF 7
ENDMDL
MODEL 4
REMARK VINA RESULT:    -7.669      3.902      8.302
REMARK INTER + INTRA:         -11.382
REMARK INTER:                 -11.032
REMARK INTRA:                  -0.350
REMARK UNBOUND:                -0.575
REMARK  Name = 
REMARK  7 active torsions:
REMARK  status: ('A' for Active; 'I' for Inactive)
REMARK    1  A    between atoms: C_2  and  C_4
REMARK    2  A    between atoms: C_7  and  N_8
REMARK    3  A    between atoms: N_8  and  C_9
REMARK    4  A    between atoms: C_9  and  C_10
REMARK    5  A    between atoms: C_14  and  C_15
REMARK    6  A    between atoms: C_19  and  O_20
REMARK    7  A    between atoms: O_20  and  C_21
REMARK                            x       y       z     vdW  Elec       q    Type
REMARK                         _______ _______ _______ _____ _____    ______ ____
ROOT
ATOM      1  C   UNL     1      46.344   7.328  12.553  0.00  0.00    +0.000 C 
ATOM      2  C   UNL     1      46.314   8.645  11.778  0.00  0.00    +0.000 C 
ATOM      3  C   UNL     1      45.952   8.646  13.218  0.00  0.00    +0.000 C 
ENDROOT
BRANCH   1   4
ATOM      4  C   UNL     1      45.252   6.365  12.084  0.00  0.00    +0.000 A 
ATOM      5  C   UNL     1      43.889   6.691  12.157  0.00  0.00    +0.000 A 
ATOM      6  C   UNL     1      42.953   6.005  11.385  0.00  0.00    +0.000 A 
ATOM      7  C   UNL     1      43.366   4.972  10.541  0.00  0.00    +0.000 A 
ATOM      8  C   UNL     1      44.707   4.559  10.500  0.00  0.00    +0.000 A 
ATOM      9  C   UNL     1      45.616   5.230  11.333  0.00  0.00    +0.000 A 
BRANCH   8  10
ATOM     10  C   UNL     1      45.197   3.598   9.494  0.00  0.00    +0.000 A 
ATOM     11  C   UNL     1      44.998   2.226   9.680  0.00  0.00    +0.000 A 
ATOM     12  N   UNL     1      45.357   1.261   8.803  0.00  0.00    +0.000 NA
ATOM     13  C   UNL     1      45.938   1.683   7.662  0.00  0.00    +0.000 A 
ATOM     14  C   UNL     1      46.158   3.016   7.339  0.00  0.00    +0.000 A 
ATOM     15  C   UNL     1      45.796   3.984   8.281  0.00  0.00    +0.000 A 
BRANCH  14  16
ATOM     16  O   UNL     1      46.741   3.241   6.128  0.00  0.00    +0.000 OA
BRANCH  16  17
ATOM     17  C   UNL     1      47.793   2.361   5.775  0.00  0.00    +0.000 C 
ATOM     18  F   UNL     1      48.245   2.696   4.544  0.00  0.00    +0.000 F 
ATOM     19  F   UNL     1      48.812   2.588   6.643  0.00  0.00    +0.000 F 
ENDBRANCH  16  17
ENDBRANCH  14  16
ENDBRANCH   8  10
ENDBRANCH   1   4
BRANCH   1  20
ATOM     20  N   UNL     1      47.565   6.711  13.088  0.00  0.00    +0.000 N 
ATOM     21  H   UNL     1      48.407   7.285  13.093  0.00  0.00    +0.000 HD
BRANCH  20  25
ATOM     22  C   UNL     1      47.774   4.381  16.457  0.00  0.00    +0.000 A 
ATOM     23  C   UNL     1      48.533   5.525  16.312  0.00  0.00    +0.000 A 
ATOM     24  N   UNL     1      48.469   6.313  15.202  0.00  0.00    +0.000 NA
ATOM     25  C   UNL     1      47.611   5.910  14.233  0.00  0.00    +0.000 A 
ATOM     26  C   UNL     1      46.870   4.736  14.391  0.00  0.00    +0.000 A 
ATOM     27  N   UNL     1      46.913   3.949  15.496  0.00  0.00    +0.000 NA
BRANCH  22  29
ATOM     28  N   UNL     1      46.874   2.619  17.842  0.00  0.00    +0.000 N 
ATOM     29  C   UNL     1      47.855   3.568  17.705  0.00  0.00    +0.000 C 
ATOM     30  O   UNL     1      48.720   3.745  18.548  0.00  0.00    +0.000 OA
ATOM     31  H   UNL     1      46.869   2.024  18.660  0.00  0.00    +0.000 HD
ATOM     32  H   UNL     1      46.187   2.488  17.111  0.00  0.00    +0.000 HD
ENDBRANCH  22  29
ENDBRANCH  20  25
ENDBRANCH   1  20
TORSDOF 7
ENDMDL
MODEL 5
REMARK VINA RESULT:    -7.509      4.041      8.592
REMARK INTER + INTRA:         -11.157
REMARK INTER:                 -10.872
REMARK INTRA:                  -0.285
REMARK UNBOUND:                -0.575
REMARK  Name = 
REMARK  7 active torsions:
REMARK  status: ('A' for Active; 'I' for Inactive)
REMARK    1  A    between atoms: C_2  and  C_4
REMARK    2  A    between atoms: C_7  and  N_8
REMARK    3  A    between atoms: N_8  and  C_9
REMARK    4  A    between atoms: C_9  and  C_10
REMARK    5  A    between atoms: C_14  and  C_15
REMARK    6  A    between atoms: C_19  and  O_20
REMARK    7  A    between atoms: O_20  and  C_21
REMARK                            x       y       z     vdW  Elec       q    Type
REMARK                         _______ _______ _______ _____ _____    ______ ____
ROOT
ATOM      1  C   UNL     1      48.196   7.593  13.760  0.00  0.00    +0.000 C 
ATOM      2  C   UNL     1      49.273   7.044  12.824  0.00  0.00    +0.000 C 
ATOM      3  C   UNL     1      49.251   8.498  13.127  0.00  0.00    +0.000 C 
ENDROOT
BRANCH   1   4
ATOM      4  C   UNL     1      46.802   7.509  13.136  0.00  0.00    +0.000 A 
ATOM      5  C   UNL     1      45.974   8.634  13.006  0.00  0.00    +0.000 A 
ATOM      6  C   UNL     1      44.911   8.632  12.105  0.00  0.00    +0.000 A 
ATOM      7  C   UNL     1      44.651   7.498  11.334  0.00  0.00    +0.000 A 
ATOM      8  C   UNL     1      45.402   6.323  11.493  0.00  0.00    +0.000 A 
ATOM      9  C   UNL     1      46.428   6.336  12.449  0.00  0.00    +0.000 A 
BRANCH   8  10
ATOM     10  C   UNL     1      45.264   5.179  10.572  0.00  0.00    +0.000 A 
ATOM     11  C   UNL     1      44.557   4.040  10.970  0.00  0.00    +0.000 A 
ATOM     12  N   UNL     1      44.323   2.957  10.194  0.00  0.00    +0.000 NA
ATOM     13  C   UNL     1      44.811   3.011   8.938  0.00  0.00    +0.000 A 
ATOM     14  C   UNL     1      45.497   4.097   8.408  0.00  0.00    +0.000 A 
ATOM     15  C   UNL     1      45.740   5.188   9.248  0.00  0.00    +0.000 A 
BRANCH  14  16
ATOM     16  O   UNL     1      45.893   3.968   7.110  0.00  0.00    +0.000 OA
BRANCH  16  17
ATOM     17  C   UNL     1      46.589   2.777   6.792  0.00  0.00    +0.000 C 
ATOM     18  F   UNL     1      46.615   2.635   5.445  0.00  0.00    +0.000 F 
ATOM     19  F   UNL     1      47.874   2.945   7.194  0.00  0.00    +0.000 F 
ENDBRANCH  16  17
ENDBRANCH  14  16
ENDBRANCH   8  10
ENDBRANCH   1   4
BRANCH   1  20
ATOM     20  N   UNL     1      48.256   7.514  15.225  0.00  0.00    +0.000 N 
ATOM     21  H   UNL     1      47.391   7.696  15.732  0.00  0.00    +0.000 HD
BRANCH  20  25
ATOM     22  C   UNL     1      50.349   4.653  17.287  0.00  0.00    +0.000 A 
ATOM     23  C   UNL     1      50.901   5.880  16.978  0.00  0.00    +0.000 A 
ATOM     24  N   UNL     1      50.216   6.843  16.299  0.00  0.00    +0.000 NA
ATOM     25  C   UNL     1      48.948   6.530  15.938  0.00  0.00    +0.000 A 
ATOM     26  C   UNL     1      48.417   5.274  16.242  0.00  0.00    +0.000 A 
ATOM     27  N   UNL     1      49.083   4.310  16.928  0.00  0.00    +0.000 NA
BRANCH  22  29
ATOM     28  N   UNL     1      50.823   2.336  17.779  0.00  0.00    +0.000 N 
ATOM     29  C   UNL     1      51.129   3.643  18.061  0.00  0.00    +0.000 C 
ATOM     30  O   UNL     1      51.966   3.956  18.892  0.00  0.00    +0.000 OA
ATOM     31  H   UNL     1      51.316   1.595  18.258  0.00  0.00    +0.000 HD
ATOM     32  H   UNL     1      50.139   2.116  17.066  0.00  0.00    +0.000 HD
ENDBRANCH  22  29
ENDBRANCH  20  25
ENDBRANCH   1  20
TORSDOF 7
ENDMDL
MODEL 6
REMARK VINA RESULT:    -6.962      3.569      5.037
REMARK INTER + INTRA:         -10.386
REMARK INTER:                  -9.491
REMARK INTRA:                  -0.895
REMARK UNBOUND:                -0.575
REMARK  Name = 
REMARK  7 active torsions:
REMARK  status: ('A' for Active; 'I' for Inactive)
REMARK    1  A    between atoms: C_2  and  C_4
REMARK    2  A    between atoms: C_7  and  N_8
REMARK    3  A    between atoms: N_8  and  C_9
REMARK    4  A    between atoms: C_9  and  C_10
REMARK    5  A    between atoms: C_14  and  C_15
REMARK    6  A    between atoms: C_19  and  O_20
REMARK    7  A    between atoms: O_20  and  C_21
REMARK                            x       y       z     vdW  Elec       q    Type
REMARK                         _______ _______ _______ _____ _____    ______ ____
ROOT
ATOM      1  C   UNL     1      47.830   8.262  12.965  0.00  0.00    +0.000 C 
ATOM      2  C   UNL     1      48.643   9.208  12.081  0.00  0.00    +0.000 C 
ATOM      3  C   UNL     1      48.666   7.751  11.793  0.00  0.00    +0.000 C 
ENDROOT
BRANCH   1   4
ATOM      4  C   UNL     1      48.394   8.182  14.384  0.00  0.00    +0.000 A 
ATOM      5  C   UNL     1      48.267   9.239  15.298  0.00  0.00    +0.000 A 
ATOM      6  C   UNL     1      48.419   9.017  16.665  0.00  0.00    +0.000 A 
ATOM      7  C   UNL     1      48.714   7.737  17.137  0.00  0.00    +0.000 A 
ATOM      8  C   UNL     1      48.932   6.669  16.253  0.00  0.00    +0.000 A 
ATOM      9  C   UNL     1      48.831   6.936  14.879  0.00  0.00    +0.000 A 
BRANCH   8  10
ATOM     10  C   UNL     1      49.069   5.279  16.727  0.00  0.00    +0.000 A 
ATOM     11  C   UNL     1      47.983   4.401  16.651  0.00  0.00    +0.000 A 
ATOM     12  N   UNL     1      48.009   3.097  17.007  0.00  0.00    +0.000 NA
ATOM     13  C   UNL     1      49.191   2.628  17.457  0.00  0.00    +0.000 A 
ATOM     14  C   UNL     1      50.353   3.385  17.545  0.00  0.00    +0.000 A 
ATOM     15  C   UNL     1      50.281   4.735  17.191  0.00  0.00    +0.000 A 
BRANCH  14  16
ATOM     16  O   UNL     1      51.452   2.724  18.006  0.00  0.00    +0.000 OA
BRANCH  16  17
ATOM     17  C   UNL     1      51.797   1.538  17.312  0.00  0.00    +0.000 C 
ATOM     18  F   UNL     1      53.146   1.438  17.266  0.00  0.00    +0.000 F 
ATOM     19  F   UNL     1      51.351   0.495  18.058  0.00  0.00    +0.000 F 
ENDBRANCH  16  17
ENDBRANCH  14  16
ENDBRANCH   8  10
ENDBRANCH   1   4
BRANCH   1  20
ATOM     20  N   UNL     1      46.385   8.041  12.829  0.00  0.00    +0.000 N 
ATOM     21  H   UNL     1      45.851   8.763  12.346  0.00  0.00    +0.000 HD
BRANCH  20  25
ATOM     22  C   UNL     1      44.612   4.480  11.829  0.00  0.00    +0.000 A 
ATOM     23  C   UNL     1      44.584   5.571  10.985  0.00  0.00    +0.000 A 
ATOM     24  N   UNL     1      45.175   6.758  11.300  0.00  0.00    +0.000 NA
ATOM     25  C   UNL     1      45.798   6.814  12.502  0.00  0.00    +0.000 A 
ATOM     26  C   UNL     1      45.794   5.704  13.350  0.00  0.00    +0.000 A 
ATOM     27  N   UNL     1      45.222   4.512  13.045  0.00  0.00    +0.000 NA
BRANCH  22  29
ATOM     28  N   UNL     1      43.729   2.321  12.456  0.00  0.00    +0.000 N 
ATOM     29  C   UNL     1      43.979   3.191  11.425  0.00  0.00    +0.000 C 
ATOM     30  O   UNL     1      43.716   2.924  10.264  0.00  0.00    +0.000 OA
ATOM     31  H   UNL     1      43.293   1.430  12.260  0.00  0.00    +0.000 HD
ATOM     32  H   UNL     1      43.939   2.588  13.410  0.00  0.00    +0.000 HD
ENDBRANCH  22  29
ENDBRANCH  20  25
ENDBRANCH   1  20
TORSDOF 7
ENDMDL
MODEL 7
REMARK VINA RESULT:    -6.906      4.091      8.108
REMARK INTER + INTRA:         -10.307
REMARK INTER:                  -9.971
REMARK INTRA:                  -0.336
REMARK UNBOUND:                -0.575
REMARK  Name = 
REMARK  7 active torsions:
REMARK  status: ('A' for Active; 'I' for Inactive)
REMARK    1  A    between atoms: C_2  and  C_4
REMARK    2  A    between atoms: C_7  and  N_8
REMARK    3  A    between atoms: N_8  and  C_9
REMARK    4  A    between atoms: C_9  and  C_10
REMARK    5  A    between atoms: C_14  and  C_15
REMARK    6  A    between atoms: C_19  and  O_20
REMARK    7  A    between atoms: O_20  and  C_21
REMARK                            x       y       z     vdW  Elec       q    Type
REMARK                         _______ _______ _______ _____ _____    ______ ____
ROOT
ATOM      1  C   UNL     1      48.701   8.527  15.778  0.00  0.00    +0.000 C 
ATOM      2  C   UNL     1      49.954   9.370  16.019  0.00  0.00    +0.000 C 
ATOM      3  C   UNL     1      48.625   9.932  16.372  0.00  0.00    +0.000 C 
ENDROOT
BRANCH   1   4
ATOM      4  C   UNL     1      48.430   8.323  14.287  0.00  0.00    +0.000 A 
ATOM      5  C   UNL     1      49.357   8.698  13.302  0.00  0.00    +0.000 A 
ATOM      6  C   UNL     1      49.285   8.162  12.018  0.00  0.00    +0.000 A 
ATOM      7  C   UNL     1      48.275   7.253  11.697  0.00  0.00    +0.000 A 
ATOM      8  C   UNL     1      47.279   6.914  12.626  0.00  0.00    +0.000 A 
ATOM      9  C   UNL     1      47.344   7.516  13.892  0.00  0.00    +0.000 A 
BRANCH   8  10
ATOM     10  C   UNL     1      46.312   5.830  12.372  0.00  0.00    +0.000 A 
ATOM     11  C   UNL     1      45.855   5.036  13.429  0.00  0.00    +0.000 A 
ATOM     12  N   UNL     1      44.934   4.051  13.322  0.00  0.00    +0.000 NA
ATOM     13  C   UNL     1      44.422   3.848  12.090  0.00  0.00    +0.000 A 
ATOM     14  C   UNL     1      44.762   4.592  10.967  0.00  0.00    +0.000 A 
ATOM     15  C   UNL     1      45.736   5.584  11.111  0.00  0.00    +0.000 A 
BRANCH  14  16
ATOM     16  O   UNL     1      44.120   4.247   9.815  0.00  0.00    +0.000 OA
BRANCH  16  17
ATOM     17  C   UNL     1      44.793   3.315   8.987  0.00  0.00    +0.000 C 
ATOM     18  F   UNL     1      44.281   2.083   9.217  0.00  0.00    +0.000 F 
ATOM     19  F   UNL     1      44.492   3.633   7.702  0.00  0.00    +0.000 F 
ENDBRANCH  16  17
ENDBRANCH  14  16
ENDBRANCH   8  10
ENDBRANCH   1   4
BRANCH   1  20
ATOM     20  N   UNL     1      48.239   7.458  16.673  0.00  0.00    +0.000 N 
ATOM     21  H   UNL     1      47.234   7.294  16.714  0.00  0.00    +0.000 HD
BRANCH  20  25
ATOM     22  C   UNL     1      50.002   3.780  17.102  0.00  0.00    +0.000 A 
ATOM     23  C   UNL     1      48.631   3.928  17.030  0.00  0.00    +0.000 A 
ATOM     24  N   UNL     1      48.031   5.143  16.881  0.00  0.00    +0.000 NA
ATOM     25  C   UNL     1      48.861   6.213  16.806  0.00  0.00    +0.000 A 
ATOM     26  C   UNL     1      50.244   6.041  16.903  0.00  0.00    +0.000 A 
ATOM     27  N   UNL     1      50.855   4.837  17.039  0.00  0.00    +0.000 NA
BRANCH  22  29
ATOM     28  N   UNL     1      51.563   2.312  18.215  0.00  0.00    +0.000 N 
ATOM     29  C   UNL     1      50.613   2.425  17.233  0.00  0.00    +0.000 C 
ATOM     30  O   UNL     1      50.300   1.492  16.512  0.00  0.00    +0.000 OA
ATOM     31  H   UNL     1      52.016   1.421  18.369  0.00  0.00    +0.000 HD
ATOM     32  H   UNL     1      51.779   3.103  18.809  0.00  0.00    +0.000 HD
ENDBRANCH  22  29
ENDBRANCH  20  25
ENDBRANCH   1  20
TORSDOF 7
ENDMDL
MODEL 8
REMARK VINA RESULT:    -6.765      3.102      4.958
REMARK INTER + INTRA:         -10.108
REMARK INTER:                  -9.283
REMARK INTRA:                  -0.825
REMARK UNBOUND:                -0.575
REMARK  Name = 
REMARK  7 active torsions:
REMARK  status: ('A' for Active; 'I' for Inactive)
REMARK    1  A    between atoms: C_2  and  C_4
REMARK    2  A    between atoms: C_7  and  N_8
REMARK    3  A    between atoms: N_8  and  C_9
REMARK    4  A    between atoms: C_9  and  C_10
REMARK    5  A    between atoms: C_14  and  C_15
REMARK    6  A    between atoms: C_19  and  O_20
REMARK    7  A    between atoms: O_20  and  C_21
REMARK                            x       y       z     vdW  Elec       q    Type
REMARK                         _______ _______ _______ _____ _____    ______ ____
ROOT
ATOM      1  C   UNL     1      47.838   8.142  13.178  0.00  0.00    +0.000 C 
ATOM      2  C   UNL     1      48.425   8.811  11.934  0.00  0.00    +0.000 C 
ATOM      3  C   UNL     1      48.611   7.350  12.126  0.00  0.00    +0.000 C 
ENDROOT
BRANCH   1   4
ATOM      4  C   UNL     1      48.547   8.592  14.456  0.00  0.00    +0.000 A 
ATOM      5  C   UNL     1      48.651   9.945  14.815  0.00  0.00    +0.000 A 
ATOM      6  C   UNL     1      48.932  10.311  16.130  0.00  0.00    +0.000 A 
ATOM      7  C   UNL     1      49.127   9.328  17.101  0.00  0.00    +0.000 A 
ATOM      8  C   UNL     1      49.115   7.964  16.769  0.00  0.00    +0.000 A 
ATOM      9  C   UNL     1      48.889   7.628  15.425  0.00  0.00    +0.000 A 
BRANCH   8  10
ATOM     10  C   UNL     1      49.142   6.910  17.800  0.00  0.00    +0.000 A 
ATOM     11  C   UNL     1      49.369   7.244  19.139  0.00  0.00    +0.000 A 
ATOM     12  N   UNL     1      49.364   6.371  20.171  0.00  0.00    +0.000 NA
ATOM     13  C   UNL     1      49.106   5.084  19.860  0.00  0.00    +0.000 A 
ATOM     14  C   UNL     1      48.827   4.628  18.577  0.00  0.00    +0.000 A 
ATOM     15  C   UNL     1      48.865   5.556  17.532  0.00  0.00    +0.000 A 
BRANCH  14  16
ATOM     16  O   UNL     1      48.571   3.294  18.469  0.00  0.00    +0.000 OA
BRANCH  16  17
ATOM     17  C   UNL     1      47.831   2.897  17.329  0.00  0.00    +0.000 C 
ATOM     18  F   UNL     1      48.562   1.999  16.627  0.00  0.00    +0.000 F 
ATOM     19  F   UNL     1      46.728   2.243  17.776  0.00  0.00    +0.000 F 
ENDBRANCH  16  17
ENDBRANCH  14  16
ENDBRANCH   8  10
ENDBRANCH   1   4
BRANCH   1  20
ATOM     20  N   UNL     1      46.428   7.757  13.321  0.00  0.00    +0.000 N 
ATOM     21  H   UNL     1      45.734   8.494  13.203  0.00  0.00    +0.000 HD
BRANCH  20  25
ATOM     22  C   UNL     1      44.733   4.361  11.766  0.00  0.00    +0.000 A 
ATOM     23  C   UNL     1      44.545   5.601  11.189  0.00  0.00    +0.000 A 
ATOM     24  N   UNL     1      45.107   6.737  11.690  0.00  0.00    +0.000 NA
ATOM     25  C   UNL     1      45.870   6.585  12.800  0.00  0.00    +0.000 A 
ATOM     26  C   UNL     1      46.028   5.324  13.380  0.00  0.00    +0.000 A 
ATOM     27  N   UNL     1      45.486   4.183  12.885  0.00  0.00    +0.000 NA
BRANCH  22  29
ATOM     28  N   UNL     1      44.930   2.467  10.281  0.00  0.00    +0.000 N 
ATOM     29  C   UNL     1      44.123   3.141  11.161  0.00  0.00    +0.000 C 
ATOM     30  O   UNL     1      42.987   2.779  11.420  0.00  0.00    +0.000 OA
ATOM     31  H   UNL     1      44.587   1.625   9.837  0.00  0.00    +0.000 HD
ATOM     32  H   UNL     1      45.875   2.786  10.110  0.00  0.00    +0.000 HD
ENDBRANCH  22  29
ENDBRANCH  20  25
ENDBRANCH   1  20
TORSDOF 7
ENDMDL
MODEL 9
REMARK VINA RESULT:    -6.593      5.386      7.837
REMARK INTER + INTRA:          -9.866
REMARK INTER:                  -8.923
REMARK INTRA:                  -0.943
REMARK UNBOUND:                -0.575
REMARK  Name = 
REMARK  7 active torsions:
REMARK  status: ('A' for Active; 'I' for Inactive)
REMARK    1  A    between atoms: C_2  and  C_4
REMARK    2  A    between atoms: C_7  and  N_8
REMARK    3  A    between atoms: N_8  and  C_9
REMARK    4  A    between atoms: C_9  and  C_10
REMARK    5  A    between atoms: C_14  and  C_15
REMARK    6  A    between atoms: C_19  and  O_20
REMARK    7  A    between atoms: O_20  and  C_21
REMARK                            x       y       z     vdW  Elec       q    Type
REMARK                         _______ _______ _______ _____ _____    ______ ____
ROOT
ATOM      1  C   UNL     1      48.321   8.086  13.752  0.00  0.00    +0.000 C 
ATOM      2  C   UNL     1      48.325   7.882  15.267  0.00  0.00    +0.000 C 
ATOM      3  C   UNL     1      48.991   6.876  14.400  0.00  0.00    +0.000 C 
ENDROOT
BRANCH   1   4
ATOM      4  C   UNL     1      46.918   7.945  13.161  0.00  0.00    +0.000 A 
ATOM      5  C   UNL     1      46.106   9.058  12.894  0.00  0.00    +0.000 A 
ATOM      6  C   UNL     1      45.030   8.957  12.014  0.00  0.00    +0.000 A 
ATOM      7  C   UNL     1      44.742   7.737  11.400  0.00  0.00    +0.000 A 
ATOM      8  C   UNL     1      45.477   6.580  11.702  0.00  0.00    +0.000 A 
ATOM      9  C   UNL     1      46.517   6.700  12.637  0.00  0.00    +0.000 A 
BRANCH   8  10
ATOM     10  C   UNL     1      45.309   5.328  10.940  0.00  0.00    +0.000 A 
ATOM     11  C   UNL     1      44.818   4.182  11.574  0.00  0.00    +0.000 A 
ATOM     12  N   UNL     1      44.575   2.999  10.966  0.00  0.00    +0.000 NA
ATOM     13  C   UNL     1      44.822   2.951   9.640  0.00  0.00    +0.000 A 
ATOM     14  C   UNL     1      45.274   4.028   8.887  0.00  0.00    +0.000 A 
ATOM     15  C   UNL     1      45.537   5.227   9.555  0.00  0.00    +0.000 A 
BRANCH  14  16
ATOM     16  O   UNL     1      45.445   3.786   7.557  0.00  0.00    +0.000 OA
BRANCH  16  17
ATOM     17  C   UNL     1      46.786   3.692   7.112  0.00  0.00    +0.000 C 
ATOM     18  F   UNL     1      47.308   2.523   7.552  0.00  0.00    +0.000 F 
ATOM     19  F   UNL     1      46.754   3.624   5.757  0.00  0.00    +0.000 F 
ENDBRANCH  16  17
ENDBRANCH  14  16
ENDBRANCH   8  10
ENDBRANCH   1   4
BRANCH   1  20
ATOM     20  N   UNL     1      49.238   8.983  13.037  0.00  0.00    +0.000 N 
ATOM     21  H   UNL     1      49.454   9.874  13.483  0.00  0.00    +0.000 HD
BRANCH  20  25
ATOM     22  C   UNL     1      52.604   7.703  11.073  0.00  0.00    +0.000 A 
ATOM     23  C   UNL     1      51.336   7.407  10.616  0.00  0.00    +0.000 A 
ATOM     24  N   UNL     1      50.208   7.831  11.253  0.00  0.00    +0.000 NA
ATOM     25  C   UNL     1      50.399   8.567  12.376  0.00  0.00    +0.000 A 
ATOM     26  C   UNL     1      51.691   8.835  12.833  0.00  0.00    +0.000 A 
ATOM     27  N   UNL     1      52.823   8.430  12.201  0.00  0.00    +0.000 NA
BRANCH  22  29
ATOM     28  N   UNL     1      54.215   5.965  10.608  0.00  0.00    +0.000 N 
ATOM     29  C   UNL     1      53.808   7.243  10.322  0.00  0.00    +0.000 C 
ATOM     30  O   UNL     1      54.395   7.955   9.524  0.00  0.00    +0.000 OA
ATOM     31  H   UNL     1      55.021   5.581  10.131  0.00  0.00    +0.000 HD
ATOM     32  H   UNL     1      53.689   5.397  11.259  0.00  0.00    +0.000 HD
ENDBRANCH  22  29
ENDBRANCH  20  25
ENDBRANCH   1  20
TORSDOF 7
ENDMDL
