MODEL 1
REMARK VINA RESULT:    -8.008      0.000      0.000
REMARK INTER + INTRA:         -11.292
REMARK INTER:                 -10.348
REMARK INTRA:                  -0.944
REMARK UNBOUND:                -0.944
REMARK  Name = 
REMARK  6 active torsions:
REMARK  status: ('A' for Active; 'I' for Inactive)
REMARK    1  A    between atoms: C_1  and  O_2
REMARK    2  A    between atoms: O_2  and  C_3
REMARK    3  A    between atoms: C_7  and  N_8
REMARK    4  A    between atoms: C_12  and  C_13
REMARK    5  A    between atoms: C_13  and  N_14
REMARK    6  A    between atoms: C_15  and  C_17
REMARK                            x       y       z     vdW  Elec       q    Type
REMARK                         _______ _______ _______ _____ _____    ______ ____
ROOT
ATOM      1  N   UNL     1      44.568   5.773  10.193  0.00  0.00    +0.000 N 
ATOM      2  C   UNL     1      45.382   6.544  11.050  0.00  0.00    +0.000 A 
ATOM      3  C   UNL     1      44.824   7.597  11.780  0.00  0.00    +0.000 A 
ATOM      4  N   UNL     1      45.484   8.302  12.739  0.00  0.00    +0.000 NA
ATOM      5  C   UNL     1      46.763   7.911  12.972  0.00  0.00    +0.000 A 
ATOM      6  C   UNL     1      47.344   6.899  12.223  0.00  0.00    +0.000 A 
ATOM      7  N   UNL     1      46.674   6.213  11.268  0.00  0.00    +0.000 NA
ATOM      8  H   UNL     1      43.878   6.318   9.692  0.00  0.00    +0.000 HD
ENDROOT
BRANCH   1  13
ATOM      9  C   UNL     1      45.939   3.192   7.867  0.00  0.00    +0.000 A 
ATOM     10  C   UNL     1      45.384   2.029   8.399  0.00  0.00    +0.000 A 
ATOM     11  C   UNL     1      44.568   2.097   9.521  0.00  0.00    +0.000 A 
ATOM     12  C   UNL     1      44.302   3.329  10.114  0.00  0.00    +0.000 A 
ATOM     13  C   UNL     1      44.851   4.516   9.615  0.00  0.00    +0.000 A 
ATOM     14  C   UNL     1      45.666   4.428   8.474  0.00  0.00    +0.000 A 
BRANCH   9  16
ATOM     15  C   UNL     1      47.795   2.270   6.710  0.00  0.00    +0.000 C 
ATOM     16  O   UNL     1      46.755   3.243   6.766  0.00  0.00    +0.000 OA
ENDBRANCH   9  16
ENDBRANCH   1  13
BRANCH   5  17
ATOM     17  C   UNL     1      47.550   8.599  14.056  0.00  0.00    +0.000 C 
BRANCH  17  18
ATOM     18  N   UNL     1      47.888   7.706  15.137  0.00  0.00    +0.000 N 
ATOM     19  C   UNL     1      49.131   7.150  15.279  0.00  0.00    +0.000 C 
ATOM     20  O   UNL     1      50.032   7.363  14.473  0.00  0.00    +0.000 OA
ATOM     21  H   UNL     1      47.149   7.489  15.794  0.00  0.00    +0.000 HD
BRANCH  19  22
ATOM     22  C   UNL     1      49.344   6.345  16.485  0.00  0.00    +0.000 A 
ATOM     23  C   UNL     1      50.317   6.716  17.403  0.00  0.00    +0.000 A 
ATOM     24  S   UNL     1      50.383   5.700  18.772  0.00  0.00    +0.000 S 
ATOM     25  C   UNL     1      49.152   4.698  18.158  0.00  0.00    +0.000 A 
ATOM     26  N   UNL     1      48.726   3.607  18.851  0.00  0.00    +0.000 NA
ATOM     27  C   UNL     1      47.819   2.913  18.248  0.00  0.00    +0.000 A 
ATOM     28  N   UNL     1      47.294   3.214  17.018  0.00  0.00    +0.000 N 
ATOM     29  C   UNL     1      47.662   4.329  16.301  0.00  0.00    +0.000 A 
ATOM     30  O   UNL     1      47.120   4.605  15.235  0.00  0.00    +0.000 OA
ATOM     31  C   UNL     1      48.691   5.137  16.930  0.00  0.00    +0.000 A 
ATOM     32  H   UNL     1      46.576   2.639  16.604  0.00  0.00    +0.000 HD
ENDBRANCH  19  22
ENDBRANCH  17  18
ENDBRANCH   5  17
TORSDOF 5
ENDMDL
MODEL 2
REMARK VINA RESULT:    -6.870      1.369      2.048
REMARK INTER + INTRA:          -9.823
REMARK INTER:                  -8.777
REMARK INTRA:                  -1.046
REMARK UNBOUND:                -0.944
REMARK  Name = 
REMARK  6 active torsions:
REMARK  status: ('A' for Active; 'I' for Inactive)
REMARK    1  A    between atoms: C_1  and  O_2
REMARK    2  A    between atoms: O_2  and  C_3
REMARK    3  A    between atoms: C_7  and  N_8
REMARK    4  A    between atoms: C_12  and  C_13
REMARK    5  A    between atoms: C_13  and  N_14
REMARK    6  A    between atoms: C_15  and  C_17
REMARK                            x       y       z     vdW  Elec       q    Type
REMARK                         _______ _______ _______ _____ _____    ______ ____
ROOT
ATOM      1  N   UNL     1      45.093   6.584  10.365  0.00  0.00    +0.000 N 
ATOM      2  C   UNL     1      45.971   7.115  11.333  0.00  0.00    +0.000 A 
ATOM      3  C   UNL     1      45.714   8.370  11.892  0.00  0.00    +0.000 A 
ATOM      4  N   UNL     1      46.410   8.904  12.933  0.00  0.00    +0.000 NA
ATOM      5  C   UNL     1      47.402   8.122  13.432  0.00  0.00    +0.000 A 
ATOM      6  C   UNL     1      47.697   6.896  12.858  0.00  0.00    +0.000 A 
ATOM      7  N   UNL     1      46.998   6.383  11.818  0.00  0.00    +0.000 NA
ATOM      8  H   UNL     1      44.742   7.274   9.714  0.00  0.00    +0.000 HD
ENDROOT
BRANCH   1  13
ATOM      9  C   UNL     1      44.164   2.969  10.210  0.00  0.00    +0.000 A 
ATOM     10  C   UNL     1      44.839   2.567   9.057  0.00  0.00    +0.000 A 
ATOM     11  C   UNL     1      45.590   3.486   8.335  0.00  0.00    +0.000 A 
ATOM     12  C   UNL     1      45.670   4.809   8.763  0.00  0.00    +0.000 A 
ATOM     13  C   UNL     1      44.997   5.251   9.908  0.00  0.00    +0.000 A 
ATOM     14  C   UNL     1      44.250   4.305  10.631  0.00  0.00    +0.000 A 
BRANCH   9  16
ATOM     15  C   UNL     1      43.367   2.467  12.388  0.00  0.00    +0.000 C 
ATOM     16  O   UNL     1      43.397   2.151  10.999  0.00  0.00    +0.000 OA
ENDBRANCH   9  16
ENDBRANCH   1  13
BRANCH   5  17
ATOM     17  C   UNL     1      48.187   8.611  14.622  0.00  0.00    +0.000 C 
BRANCH  17  18
ATOM     18  N   UNL     1      48.321   7.600  15.641  0.00  0.00    +0.000 N 
ATOM     19  C   UNL     1      49.517   7.007  15.945  0.00  0.00    +0.000 C 
ATOM     20  O   UNL     1      50.550   7.287  15.345  0.00  0.00    +0.000 OA
ATOM     21  H   UNL     1      47.474   7.328  16.124  0.00  0.00    +0.000 HD
BRANCH  19  22
ATOM     22  C   UNL     1      49.505   6.071  17.073  0.00  0.00    +0.000 A 
ATOM     23  C   UNL     1      50.323   6.300  18.172  0.00  0.00    +0.000 A 
ATOM     24  S   UNL     1      50.133   5.146  19.413  0.00  0.00    +0.000 S 
ATOM     25  C   UNL     1      48.993   4.270  18.501  0.00  0.00    +0.000 A 
ATOM     26  N   UNL     1      48.429   3.133  18.992  0.00  0.00    +0.000 NA
ATOM     27  C   UNL     1      47.615   2.547  18.178  0.00  0.00    +0.000 A 
ATOM     28  N   UNL     1      47.310   2.998  16.921  0.00  0.00    +0.000 N 
ATOM     29  C   UNL     1      47.821   4.164  16.400  0.00  0.00    +0.000 A 
ATOM     30  O   UNL     1      47.471   4.574  15.297  0.00  0.00    +0.000 OA
ATOM     31  C   UNL     1      48.754   4.855  17.271  0.00  0.00    +0.000 A 
ATOM     32  H   UNL     1      46.654   2.502  16.335  0.00  0.00    +0.000 HD
ENDBRANCH  19  22
ENDBRANCH  17  18
ENDBRANCH   5  17
TORSDOF 5
ENDMDL
MODEL 3
REMARK VINA RESULT:    -6.829      4.593      8.981
REMARK INTER + INTRA:          -9.769
REMARK INTER:                  -9.131
REMARK INTRA:                  -0.638
REMARK UNBOUND:                -0.944
REMARK  Name = 
REMARK  6 active torsions:
REMARK  status: ('A' for Active; 'I' for Inactive)
REMARK    1  A    between atoms: C_1  and  O_2
REMARK    2  A    between atoms: O_2  and  C_3
REMARK    3  A    between atoms: C_7  and  N_8
REMARK    4  A    between atoms: C_12  and  C_13
REMARK    5  A    between atoms: C_13  and  N_14
REMARK    6  A    between atoms: C_15  and  C_17
REMARK                            x       y       z     vdW  Elec       q    Type
REMARK                         _______ _______ _______ _____ _____    ______ ____
ROOT
ATOM      1  N   UNL     1      51.675   1.489  17.773  0.00  0.00    +0.000 N 
ATOM      2  C   UNL     1      50.997   2.680  17.432  0.00  0.00    +0.000 A 
ATOM      3  C   UNL     1      49.600   2.699  17.394  0.00  0.00    +0.000 A 
ATOM      4  N   UNL     1      48.851   3.823  17.225  0.00  0.00    +0.000 NA
ATOM      5  C   UNL     1      49.556   4.977  17.099  0.00  0.00    +0.000 A 
ATOM      6  C   UNL     1      50.942   4.966  17.089  0.00  0.00    +0.000 A 
ATOM      7  N   UNL     1      51.670   3.837  17.252  0.00  0.00    +0.000 NA
ATOM      8  H   UNL     1      51.249   0.657  17.387  0.00  0.00    +0.000 HD
ENDROOT
BRANCH   1  13
ATOM      9  C   UNL     1      55.089   0.016  18.123  0.00  0.00    +0.000 A 
ATOM     10  C   UNL     1      55.703   0.953  18.954  0.00  0.00    +0.000 A 
ATOM     11  C   UNL     1      54.994   2.066  19.390  0.00  0.00    +0.000 A 
ATOM     12  C   UNL     1      53.669   2.245  18.998  0.00  0.00    +0.000 A 
ATOM     13  C   UNL     1      53.025   1.331  18.156  0.00  0.00    +0.000 A 
ATOM     14  C   UNL     1      53.754   0.207  17.732  0.00  0.00    +0.000 A 
BRANCH   9  16
ATOM     15  C   UNL     1      55.419  -1.432  16.271  0.00  0.00    +0.000 C 
ATOM     16  O   UNL     1      55.690  -1.116  17.634  0.00  0.00    +0.000 OA
ENDBRANCH   9  16
ENDBRANCH   1  13
BRANCH   5  17
ATOM     17  C   UNL     1      48.806   6.277  16.964  0.00  0.00    +0.000 C 
BRANCH  17  18
ATOM     18  N   UNL     1      47.875   6.259  15.863  0.00  0.00    +0.000 N 
ATOM     19  C   UNL     1      48.255   6.476  14.565  0.00  0.00    +0.000 C 
ATOM     20  O   UNL     1      49.419   6.723  14.264  0.00  0.00    +0.000 OA
ATOM     21  H   UNL     1      46.903   6.091  16.094  0.00  0.00    +0.000 HD
BRANCH  19  22
ATOM     22  C   UNL     1      47.207   6.324  13.552  0.00  0.00    +0.000 A 
ATOM     23  C   UNL     1      46.719   7.442  12.887  0.00  0.00    +0.000 A 
ATOM     24  S   UNL     1      45.550   7.071  11.702  0.00  0.00    +0.000 S 
ATOM     25  C   UNL     1      45.614   5.412  12.076  0.00  0.00    +0.000 A 
ATOM     26  N   UNL     1      44.830   4.516  11.418  0.00  0.00    +0.000 NA
ATOM     27  C   UNL     1      44.949   3.298  11.833  0.00  0.00    +0.000 A 
ATOM     28  N   UNL     1      45.785   2.895  12.841  0.00  0.00    +0.000 N 
ATOM     29  C   UNL     1      46.627   3.758  13.504  0.00  0.00    +0.000 A 
ATOM     30  O   UNL     1      47.412   3.350  14.354  0.00  0.00    +0.000 OA
ATOM     31  C   UNL     1      46.522   5.143  13.084  0.00  0.00    +0.000 A 
ATOM     32  H   UNL     1      45.844   1.924  13.111  0.00  0.00    +0.000 HD
ENDBRANCH  19  22
ENDBRANCH  17  18
ENDBRANCH   5  17
TORSDOF 5
ENDMDL
MODEL 4
REMARK VINA RESULT:    -6.814      2.990      3.840
REMARK INTER + INTRA:          -9.750
REMARK INTER:                  -9.216
REMARK INTRA:                  -0.534
REMARK UNBOUND:                -0.944
REMARK  Name = 
REMARK  6 active torsions:
REMARK  status: ('A' for Active; 'I' for Inactive)
REMARK    1  A    between atoms: C_1  and  O_2
REMARK    2  A    between atoms: O_2  and  C_3
REMARK    3  A    between atoms: C_7  and  N_8
REMARK    4  A    between atoms: C_12  and  C_13
REMARK    5  A    between atoms: C_13  and  N_14
REMARK    6  A    between atoms: C_15  and  C_17
REMARK                            x       y       z     vdW  Elec       q    Type
REMARK                         _______ _______ _______ _____ _____    ______ ____
ROOT
ATOM      1  N   UNL     1      45.506   4.033  13.725  0.00  0.00    +0.000 N 
ATOM      2  C   UNL     1      46.503   4.833  14.324  0.00  0.00    +0.000 A 
ATOM      3  C   UNL     1      47.203   4.357  15.436  0.00  0.00    +0.000 A 
ATOM      4  N   UNL     1      48.277   4.981  15.993  0.00  0.00    +0.000 NA
ATOM      5  C   UNL     1      48.660   6.133  15.384  0.00  0.00    +0.000 A 
ATOM      6  C   UNL     1      47.947   6.640  14.310  0.00  0.00    +0.000 A 
ATOM      7  N   UNL     1      46.877   6.009  13.773  0.00  0.00    +0.000 NA
ATOM      8  H   UNL     1      44.945   3.520  14.392  0.00  0.00    +0.000 HD
ENDROOT
BRANCH   1  13
ATOM      9  C   UNL     1      44.890   3.694  10.057  0.00  0.00    +0.000 A 
ATOM     10  C   UNL     1      43.777   4.519   9.894  0.00  0.00    +0.000 A 
ATOM     11  C   UNL     1      43.232   5.177  10.989  0.00  0.00    +0.000 A 
ATOM     12  C   UNL     1      43.799   5.015  12.251  0.00  0.00    +0.000 A 
ATOM     13  C   UNL     1      44.909   4.185  12.455  0.00  0.00    +0.000 A 
ATOM     14  C   UNL     1      45.451   3.535  11.334  0.00  0.00    +0.000 A 
BRANCH   9  16
ATOM     15  C   UNL     1      45.075   1.654   8.858  0.00  0.00    +0.000 C 
ATOM     16  O   UNL     1      45.508   2.998   9.050  0.00  0.00    +0.000 OA
ENDBRANCH   9  16
ENDBRANCH   1  13
BRANCH   5  17
ATOM     17  C   UNL     1      49.874   6.860  15.900  0.00  0.00    +0.000 C 
BRANCH  17  18
ATOM     18  N   UNL     1      50.864   5.959  16.437  0.00  0.00    +0.000 N 
ATOM     19  C   UNL     1      50.958   5.669  17.772  0.00  0.00    +0.000 C 
ATOM     20  O   UNL     1      50.212   6.183  18.600  0.00  0.00    +0.000 OA
ATOM     21  H   UNL     1      51.512   5.552  15.774  0.00  0.00    +0.000 HD
BRANCH  19  22
ATOM     22  C   UNL     1      51.952   4.659  18.144  0.00  0.00    +0.000 A 
ATOM     23  C   UNL     1      53.125   5.042  18.782  0.00  0.00    +0.000 A 
ATOM     24  S   UNL     1      54.134   3.731  19.194  0.00  0.00    +0.000 S 
ATOM     25  C   UNL     1      53.066   2.612  18.484  0.00  0.00    +0.000 A 
ATOM     26  N   UNL     1      53.348   1.281  18.481  0.00  0.00    +0.000 NA
ATOM     27  C   UNL     1      52.473   0.552  17.871  0.00  0.00    +0.000 A 
ATOM     28  N   UNL     1      51.339   1.033  17.270  0.00  0.00    +0.000 N 
ATOM     29  C   UNL     1      50.991   2.364  17.286  0.00  0.00    +0.000 A 
ATOM     30  O   UNL     1      49.933   2.750  16.799  0.00  0.00    +0.000 OA
ATOM     31  C   UNL     1      51.950   3.229  17.949  0.00  0.00    +0.000 A 
ATOM     32  H   UNL     1      50.685   0.410  16.820  0.00  0.00    +0.000 HD
ENDBRANCH  19  22
ENDBRANCH  17  18
ENDBRANCH   5  17
TORSDOF 5
ENDMDL
MODEL 5
REMARK VINA RESULT:    -6.788      3.702      9.662
REMARK INTER + INTRA:          -9.716
REMARK INTER:                  -8.991
REMARK INTRA:                  -0.725
REMARK UNBOUND:                -0.944
REMARK  Name = 
REMARK  6 active torsions:
REMARK  status: ('A' for Active; 'I' for Inactive)
REMARK    1  A    between atoms: C_1  and  O_2
REMARK    2  A    between atoms: O_2  and  C_3
REMARK    3  A    between atoms: C_7  and  N_8
REMARK    4  A    between atoms: C_12  and  C_13
REMARK    5  A    between atoms: C_13  and  N_14
REMARK    6  A    between atoms: C_15  and  C_17
REMARK                            x       y       z     vdW  Elec       q    Type
REMARK                         _______ _______ _______ _____ _____    ______ ____
ROOT
ATOM      1  N   UNL     1      52.653   3.001  18.000  0.00  0.00    +0.000 N 
ATOM      2  C   UNL     1      51.314   3.172  17.586  0.00  0.00    +0.000 A 
ATOM      3  C   UNL     1      50.623   2.103  17.007  0.00  0.00    +0.000 A 
ATOM      4  N   UNL     1      49.295   2.117  16.711  0.00  0.00    +0.000 NA
ATOM      5  C   UNL     1      48.641   3.264  17.028  0.00  0.00    +0.000 A 
ATOM      6  C   UNL     1      49.323   4.348  17.560  0.00  0.00    +0.000 A 
ATOM      7  N   UNL     1      50.646   4.318  17.842  0.00  0.00    +0.000 NA
ATOM      8  H   UNL     1      53.202   2.432  17.370  0.00  0.00    +0.000 HD
ENDROOT
BRANCH   1  13
ATOM      9  C   UNL     1      54.925   5.729  19.161  0.00  0.00    +0.000 A 
ATOM     10  C   UNL     1      54.996   5.456  20.527  0.00  0.00    +0.000 A 
ATOM     11  C   UNL     1      54.294   4.382  21.060  0.00  0.00    +0.000 A 
ATOM     12  C   UNL     1      53.519   3.576  20.229  0.00  0.00    +0.000 A 
ATOM     13  C   UNL     1      53.415   3.827  18.856  0.00  0.00    +0.000 A 
ATOM     14  C   UNL     1      54.139   4.911  18.334  0.00  0.00    +0.000 A 
BRANCH   9  16
ATOM     15  C   UNL     1      54.754   7.648  17.776  0.00  0.00    +0.000 C 
ATOM     16  O   UNL     1      55.574   6.758  18.529  0.00  0.00    +0.000 OA
ENDBRANCH   9  16
ENDBRANCH   1  13
BRANCH   5  17
ATOM     17  C   UNL     1      47.156   3.347  16.787  0.00  0.00    +0.000 C 
BRANCH  17  18
ATOM     18  N   UNL     1      46.816   4.352  15.810  0.00  0.00    +0.000 N 
ATOM     19  C   UNL     1      46.831   4.111  14.462  0.00  0.00    +0.000 C 
ATOM     20  O   UNL     1      47.162   3.022  14.002  0.00  0.00    +0.000 OA
ATOM     21  H   UNL     1      46.574   5.268  16.167  0.00  0.00    +0.000 HD
BRANCH  19  22
ATOM     22  C   UNL     1      46.364   5.205  13.606  0.00  0.00    +0.000 A 
ATOM     23  C   UNL     1      47.178   6.308  13.385  0.00  0.00    +0.000 A 
ATOM     24  S   UNL     1      46.498   7.451  12.317  0.00  0.00    +0.000 S 
ATOM     25  C   UNL     1      45.070   6.539  12.159  0.00  0.00    +0.000 A 
ATOM     26  N   UNL     1      44.045   6.972  11.376  0.00  0.00    +0.000 NA
ATOM     27  C   UNL     1      43.007   6.204  11.382  0.00  0.00    +0.000 A 
ATOM     28  N   UNL     1      42.903   5.038  12.095  0.00  0.00    +0.000 N 
ATOM     29  C   UNL     1      43.928   4.538  12.865  0.00  0.00    +0.000 A 
ATOM     30  O   UNL     1      43.825   3.456  13.434  0.00  0.00    +0.000 OA
ATOM     31  C   UNL     1      45.115   5.374  12.903  0.00  0.00    +0.000 A 
ATOM     32  H   UNL     1      42.069   4.472  12.048  0.00  0.00    +0.000 HD
ENDBRANCH  19  22
ENDBRANCH  17  18
ENDBRANCH   5  17
TORSDOF 5
ENDMDL
MODEL 6
REMARK VINA RESULT:    -6.608      3.908      5.911
REMARK INTER + INTRA:          -9.484
REMARK INTER:                  -8.628
REMARK INTRA:                  -0.856
REMARK UNBOUND:                -0.944
REMARK  Name = 
REMARK  6 active torsions:
REMARK  status: ('A' for Active; 'I' for Inactive)
REMARK    1  A    between atoms: C_1  and  O_2
REMARK    2  A    between atoms: O_2  and  C_3
REMARK    3  A    between atoms: C_7  and  N_8
REMARK    4  A    between atoms: C_12  and  C_13
REMARK    5  A    between atoms: C_13  and  N_14
REMARK    6  A    between atoms: C_15  and  C_17
REMARK                            x       y       z     vdW  Elec       q    Type
REMARK                         _______ _______ _______ _____ _____    ______ ____
ROOT
ATOM      1  N   UNL     1      47.529   6.359  12.488  0.00  0.00    +0.000 N 
ATOM      2  C   UNL     1      47.459   5.671  13.718  0.00  0.00    +0.000 A 
ATOM      3  C   UNL     1      46.873   4.403  13.773  0.00  0.00    +0.000 A 
ATOM      4  N   UNL     1      46.887   3.597  14.870  0.00  0.00    +0.000 NA
ATOM      5  C   UNL     1      47.535   4.099  15.952  0.00  0.00    +0.000 A 
ATOM      6  C   UNL     1      48.080   5.374  15.926  0.00  0.00    +0.000 A 
ATOM      7  N   UNL     1      48.050   6.164  14.827  0.00  0.00    +0.000 NA
ATOM      8  H   UNL     1      46.704   6.248  11.914  0.00  0.00    +0.000 HD
ENDROOT
BRANCH   1  13
ATOM      9  C   UNL     1      50.505   8.428  11.583  0.00  0.00    +0.000 A 
ATOM     10  C   UNL     1      49.946   9.705  11.556  0.00  0.00    +0.000 A 
ATOM     11  C   UNL     1      48.595   9.880  11.829  0.00  0.00    +0.000 A 
ATOM     12  C   UNL     1      47.798   8.778  12.132  0.00  0.00    +0.000 A 
ATOM     13  C   UNL     1      48.322   7.480  12.157  0.00  0.00    +0.000 A 
ATOM     14  C   UNL     1      49.692   7.324  11.887  0.00  0.00    +0.000 A 
BRANCH   9  16
ATOM     15  C   UNL     1      52.075   7.287  10.217  0.00  0.00    +0.000 C 
ATOM     16  O   UNL     1      51.821   8.138  11.332  0.00  0.00    +0.000 OA
ENDBRANCH   9  16
ENDBRANCH   1  13
BRANCH   5  17
ATOM     17  C   UNL     1      47.649   3.252  17.192  0.00  0.00    +0.000 C 
BRANCH  17  18
ATOM     18  N   UNL     1      49.020   3.044  17.589  0.00  0.00    +0.000 N 
ATOM     19  C   UNL     1      49.878   2.229  16.898  0.00  0.00    +0.000 C 
ATOM     20  O   UNL     1      49.518   1.604  15.905  0.00  0.00    +0.000 OA
ATOM     21  H   UNL     1      49.328   3.524  18.426  0.00  0.00    +0.000 HD
BRANCH  19  22
ATOM     22  C   UNL     1      51.264   2.203  17.371  0.00  0.00    +0.000 A 
ATOM     23  C   UNL     1      51.881   0.989  17.644  0.00  0.00    +0.000 A 
ATOM     24  S   UNL     1      53.510   1.147  18.124  0.00  0.00    +0.000 S 
ATOM     25  C   UNL     1      53.430   2.845  18.039  0.00  0.00    +0.000 A 
ATOM     26  N   UNL     1      54.511   3.612  18.346  0.00  0.00    +0.000 NA
ATOM     27  C   UNL     1      54.297   4.885  18.281  0.00  0.00    +0.000 A 
ATOM     28  N   UNL     1      53.103   5.458  17.931  0.00  0.00    +0.000 N 
ATOM     29  C   UNL     1      51.996   4.723  17.571  0.00  0.00    +0.000 A 
ATOM     30  O   UNL     1      50.965   5.271  17.196  0.00  0.00    +0.000 OA
ATOM     31  C   UNL     1      52.181   3.285  17.641  0.00  0.00    +0.000 A 
ATOM     32  H   UNL     1      53.000   6.462  17.885  0.00  0.00    +0.000 HD
ENDBRANCH  19  22
ENDBRANCH  17  18
ENDBRANCH   5  17
TORSDOF 5
ENDMDL
MODEL 7
REMARK VINA RESULT:    -6.547      4.002      5.964
REMARK INTER + INTRA:          -9.405
REMARK INTER:                  -8.779
REMARK INTRA:                  -0.626
REMARK UNBOUND:                -0.944
REMARK  Name = 
REMARK  6 active torsions:
REMARK  status: ('A' for Active; 'I' for Inactive)
REMARK    1  A    between atoms: C_1  and  O_2
REMARK    2  A    between atoms: O_2  and  C_3
REMARK    3  A    between atoms: C_7  and  N_8
REMARK    4  A    between atoms: C_12  and  C_13
REMARK    5  A    between atoms: C_13  and  N_14
REMARK    6  A    between atoms: C_15  and  C_17
REMARK                            x       y       z     vdW  Elec       q    Type
REMARK                         _______ _______ _______ _____ _____    ______ ____
ROOT
ATOM      1  N   UNL     1      46.779   3.720  14.545  0.00  0.00    +0.000 N 
ATOM      2  C   UNL     1      47.405   4.012  15.776  0.00  0.00    +0.000 A 
ATOM      3  C   UNL     1      47.910   2.974  16.563  0.00  0.00    +0.000 A 
ATOM      4  N   UNL     1      48.657   3.156  17.687  0.00  0.00    +0.000 NA
ATOM      5  C   UNL     1      48.908   4.449  18.016  0.00  0.00    +0.000 A 
ATOM      6  C   UNL     1      48.374   5.488  17.270  0.00  0.00    +0.000 A 
ATOM      7  N   UNL     1      47.628   5.289  16.158  0.00  0.00    +0.000 NA
ATOM      8  H   UNL     1      46.205   2.888  14.570  0.00  0.00    +0.000 HD
ENDROOT
BRANCH   1  13
ATOM      9  C   UNL     1      44.996   5.292  11.663  0.00  0.00    +0.000 A 
ATOM     10  C   UNL     1      45.883   6.313  11.323  0.00  0.00    +0.000 A 
ATOM     11  C   UNL     1      47.058   6.483  12.044  0.00  0.00    +0.000 A 
ATOM     12  C   UNL     1      47.352   5.632  13.107  0.00  0.00    +0.000 A 
ATOM     13  C   UNL     1      46.480   4.604  13.485  0.00  0.00    +0.000 A 
ATOM     14  C   UNL     1      45.301   4.441  12.738  0.00  0.00    +0.000 A 
BRANCH   9  16
ATOM     15  C   UNL     1      42.626   5.244  11.786  0.00  0.00    +0.000 C 
ATOM     16  O   UNL     1      43.812   5.032  11.023  0.00  0.00    +0.000 OA
ENDBRANCH   9  16
ENDBRANCH   1  13
BRANCH   5  17
ATOM     17  C   UNL     1      49.774   4.742  19.213  0.00  0.00    +0.000 C 
BRANCH  17  18
ATOM     18  N   UNL     1      50.967   3.931  19.236  0.00  0.00    +0.000 N 
ATOM     19  C   UNL     1      52.086   4.236  18.508  0.00  0.00    +0.000 C 
ATOM     20  O   UNL     1      52.131   5.214  17.768  0.00  0.00    +0.000 OA
ATOM     21  H   UNL     1      50.939   3.100  19.813  0.00  0.00    +0.000 HD
BRANCH  19  22
ATOM     22  C   UNL     1      53.248   3.369  18.718  0.00  0.00    +0.000 A 
ATOM     23  C   UNL     1      54.395   3.879  19.314  0.00  0.00    +0.000 A 
ATOM     24  S   UNL     1      55.621   2.714  19.534  0.00  0.00    +0.000 S 
ATOM     25  C   UNL     1      54.685   1.504  18.789  0.00  0.00    +0.000 A 
ATOM     26  N   UNL     1      55.165   0.240  18.640  0.00  0.00    +0.000 NA
ATOM     27  C   UNL     1      54.367  -0.564  18.019  0.00  0.00    +0.000 A 
ATOM     28  N   UNL     1      53.131  -0.221  17.540  0.00  0.00    +0.000 N 
ATOM     29  C   UNL     1      52.586   1.032  17.706  0.00  0.00    +0.000 A 
ATOM     30  O   UNL     1      51.447   1.284  17.326  0.00  0.00    +0.000 OA
ATOM     31  C   UNL     1      53.450   1.979  18.387  0.00  0.00    +0.000 A 
ATOM     32  H   UNL     1      52.546  -0.899  17.075  0.00  0.00    +0.000 HD
ENDBRANCH  19  22
ENDBRANCH  17  18
ENDBRANCH   5  17
TORSDOF 5
ENDMDL
MODEL 8
REMARK VINA RESULT:    -6.405      3.061      8.506
REMARK INTER + INTRA:          -9.221
REMARK INTER:                  -8.973
REMARK INTRA:                  -0.248
REMARK UNBOUND:                -0.944
REMARK  Name = 
REMARK  6 active torsions:
REMARK  status: ('A' for Active; 'I' for Inactive)
REMARK    1  A    between atoms: C_1  and  O_2
REMARK    2  A    between atoms: O_2  and  C_3
REMARK    3  A    between atoms: C_7  and  N_8
REMARK    4  A    between atoms: C_12  and  C_13
REMARK    5  A    between atoms: C_13  and  N_14
REMARK    6  A    between atoms: C_15  and  C_17
REMARK                            x       y       z     vdW  Elec       q    Type
REMARK                         _______ _______ _______ _____ _____    ______ ____
ROOT
ATOM      1  N   UNL     1      51.423   7.143  15.860  0.00  0.00    +0.000 N 
ATOM      2  C   UNL     1      50.319   7.366  15.008  0.00  0.00    +0.000 A 
ATOM      3  C   UNL     1      50.402   8.331  14.000  0.00  0.00    +0.000 A 
ATOM      4  N   UNL     1      49.458   8.520  13.038  0.00  0.00    +0.000 NA
ATOM      5  C   UNL     1      48.390   7.684  13.099  0.00  0.00    +0.000 A 
ATOM      6  C   UNL     1      48.273   6.754  14.120  0.00  0.00    +0.000 A 
ATOM      7  N   UNL     1      49.220   6.584  15.073  0.00  0.00    +0.000 NA
ATOM      8  H   UNL     1      51.909   7.990  16.122  0.00  0.00    +0.000 HD
ENDROOT
BRANCH   1  13
ATOM      9  C   UNL     1      50.788   4.213  18.088  0.00  0.00    +0.000 A 
ATOM     10  C   UNL     1      52.086   3.888  18.481  0.00  0.00    +0.000 A 
ATOM     11  C   UNL     1      53.162   4.629  18.009  0.00  0.00    +0.000 A 
ATOM     12  C   UNL     1      52.945   5.698  17.143  0.00  0.00    +0.000 A 
ATOM     13  C   UNL     1      51.657   6.046  16.717  0.00  0.00    +0.000 A 
ATOM     14  C   UNL     1      50.580   5.290  17.213  0.00  0.00    +0.000 A 
BRANCH   9  16
ATOM     15  C   UNL     1      48.908   2.905  17.464  0.00  0.00    +0.000 C 
ATOM     16  O   UNL     1      49.656   3.553  18.490  0.00  0.00    +0.000 OA
ENDBRANCH   9  16
ENDBRANCH   1  13
BRANCH   5  17
ATOM     17  C   UNL     1      47.324   7.785  12.040  0.00  0.00    +0.000 C 
BRANCH  17  18
ATOM     18  N   UNL     1      46.627   6.537  11.844  0.00  0.00    +0.000 N 
ATOM     19  C   UNL     1      45.278   6.467  11.623  0.00  0.00    +0.000 C 
ATOM     20  O   UNL     1      44.572   7.470  11.602  0.00  0.00    +0.000 OA
ATOM     21  H   UNL     1      47.186   5.695  11.892  0.00  0.00    +0.000 HD
BRANCH  19  22
ATOM     22  C   UNL     1      44.739   5.133  11.343  0.00  0.00    +0.000 A 
ATOM     23  C   UNL     1      43.971   4.481  12.299  0.00  0.00    +0.000 A 
ATOM     24  S   UNL     1      43.379   2.969  11.779  0.00  0.00    +0.000 S 
ATOM     25  C   UNL     1      44.174   3.108  10.280  0.00  0.00    +0.000 A 
ATOM     26  N   UNL     1      44.086   2.122   9.347  0.00  0.00    +0.000 NA
ATOM     27  C   UNL     1      44.774   2.340   8.276  0.00  0.00    +0.000 A 
ATOM     28  N   UNL     1      45.535   3.456   8.050  0.00  0.00    +0.000 N 
ATOM     29  C   UNL     1      45.619   4.498   8.945  0.00  0.00    +0.000 A 
ATOM     30  O   UNL     1      46.255   5.513   8.680  0.00  0.00    +0.000 OA
ATOM     31  C   UNL     1      44.874   4.296  10.175  0.00  0.00    +0.000 A 
ATOM     32  H   UNL     1      46.041   3.575   7.184  0.00  0.00    +0.000 HD
ENDBRANCH  19  22
ENDBRANCH  17  18
ENDBRANCH   5  17
TORSDOF 5
ENDMDL
MODEL 9
REMARK VINA RESULT:    -6.237      1.839      2.420
REMARK INTER + INTRA:          -9.005
REMARK INTER:                  -8.247
REMARK INTRA:                  -0.757
REMARK UNBOUND:                -0.944
REMARK  Name = 
REMARK  6 active torsions:
REMARK  status: ('A' for Active; 'I' for Inactive)
REMARK    1  A    between atoms: C_1  and  O_2
REMARK    2  A    between atoms: O_2  and  C_3
REMARK    3  A    between atoms: C_7  and  N_8
REMARK    4  A    between atoms: C_12  and  C_13
REMARK    5  A    between atoms: C_13  and  N_14
REMARK    6  A    between atoms: C_15  and  C_17
REMARK                            x       y       z     vdW  Elec       q    Type
REMARK                         _______ _______ _______ _____ _____    ______ ____
ROOT
ATOM      1  N   UNL     1      45.313   6.558  11.370  0.00  0.00    +0.000 N 
ATOM      2  C   UNL     1      46.502   6.983  12.001  0.00  0.00    +0.000 A 
ATOM      3  C   UNL     1      46.781   8.348  12.111  0.00  0.00    +0.000 A 
ATOM      4  N   UNL     1      47.818   8.865  12.826  0.00  0.00    +0.000 NA
ATOM      5  C   UNL     1      48.596   7.953  13.464  0.00  0.00    +0.000 A 
ATOM      6  C   UNL     1      48.358   6.594  13.325  0.00  0.00    +0.000 A 
ATOM      7  N   UNL     1      47.325   6.098  12.605  0.00  0.00    +0.000 NA
ATOM      8  H   UNL     1      45.066   7.108  10.559  0.00  0.00    +0.000 HD
ENDROOT
BRANCH   1  13
ATOM      9  C   UNL     1      44.118   3.181  10.311  0.00  0.00    +0.000 A 
ATOM     10  C   UNL     1      43.449   2.760  11.460  0.00  0.00    +0.000 A 
ATOM     11  C   UNL     1      43.398   3.584  12.577  0.00  0.00    +0.000 A 
ATOM     12  C   UNL     1      44.015   4.833  12.549  0.00  0.00    +0.000 A 
ATOM     13  C   UNL     1      44.705   5.284  11.418  0.00  0.00    +0.000 A 
ATOM     14  C   UNL     1      44.738   4.440  10.295  0.00  0.00    +0.000 A 
BRANCH   9  16
ATOM     15  C   UNL     1      45.543   2.011   8.816  0.00  0.00    +0.000 C 
ATOM     16  O   UNL     1      44.231   2.453   9.154  0.00  0.00    +0.000 OA
ENDBRANCH   9  16
ENDBRANCH   1  13
BRANCH   5  17
ATOM     17  C   UNL     1      49.733   8.440  14.324  0.00  0.00    +0.000 C 
BRANCH  17  18
ATOM     18  N   UNL     1      49.548   8.106  15.715  0.00  0.00    +0.000 N 
ATOM     19  C   UNL     1      50.327   7.188  16.368  0.00  0.00    +0.000 C 
ATOM     20  O   UNL     1      51.222   6.574  15.795  0.00  0.00    +0.000 OA
ATOM     21  H   UNL     1      48.792   8.576  16.197  0.00  0.00    +0.000 HD
BRANCH  19  22
ATOM     22  C   UNL     1      50.077   7.035  17.804  0.00  0.00    +0.000 A 
ATOM     23  C   UNL     1      50.324   8.095  18.667  0.00  0.00    +0.000 A 
ATOM     24  S   UNL     1      49.919   7.759  20.289  0.00  0.00    +0.000 S 
ATOM     25  C   UNL     1      49.453   6.168  19.903  0.00  0.00    +0.000 A 
ATOM     26  N   UNL     1      49.006   5.317  20.865  0.00  0.00    +0.000 NA
ATOM     27  C   UNL     1      48.729   4.129  20.440  0.00  0.00    +0.000 A 
ATOM     28  N   UNL     1      48.852   3.718  19.139  0.00  0.00    +0.000 N 
ATOM     29  C   UNL     1      49.258   4.555  18.125  0.00  0.00    +0.000 A 
ATOM     30  O   UNL     1      49.290   4.172  16.960  0.00  0.00    +0.000 OA
ATOM     31  C   UNL     1      49.596   5.900  18.554  0.00  0.00    +0.000 A 
ATOM     32  H   UNL     1      48.607   2.778  18.864  0.00  0.00    +0.000 HD
ENDBRANCH  19  22
ENDBRANCH  17  18
ENDBRANCH   5  17
TORSDOF 5
ENDMDL
