MODEL 1
REMARK VINA RESULT:    -7.468      0.000      0.000
REMARK INTER + INTRA:         -11.829
REMARK INTER:                 -10.523
REMARK INTRA:                  -1.306
REMARK UNBOUND:                -1.306
REMARK  Name = 
REMARK  8 active torsions:
REMARK  status: ('A' for Active; 'I' for Inactive)
REMARK    1  A    between atoms: C_1  and  O_2
REMARK    2  A    between atoms: O_2  and  C_3
REMARK    3  A    between atoms: C_10  and  C_11
REMARK    4  A    between atoms: N_13  and  C_14
REMARK    5  A    between atoms: C_14  and  C_15
REMARK    6  A    between atoms: C_18  and  N_19
REMARK    7  A    between atoms: N_19  and  C_20
REMARK    8  A    between atoms: C_20  and  C_21
REMARK                            x       y       z     vdW  Elec       q    Type
REMARK                         _______ _______ _______ _____ _____    ______ ____
ROOT
ATOM      1  C   UNL     1      48.635   7.169  14.950  0.00  0.00    +0.000 C 
ENDROOT
BRANCH   1   2
ATOM      2  C   UNL     1      47.759   6.398  13.986  0.00  0.00    +0.000 A 
ATOM      3  C   UNL     1      47.403   6.975  12.763  0.00  0.00    +0.000 A 
ATOM      4  C   UNL     1      46.490   6.348  11.900  0.00  0.00    +0.000 A 
ATOM      5  C   UNL     1      45.892   5.130  12.238  0.00  0.00    +0.000 A 
ATOM      6  C   UNL     1      46.287   4.538  13.446  0.00  0.00    +0.000 A 
ATOM      7  C   UNL     1      47.239   5.135  14.289  0.00  0.00    +0.000 A 
BRANCH   5   8
ATOM      8  N   UNL     1      44.822   4.551  11.532  0.00  0.00    +0.000 N 
ATOM      9  H   UNL     1      43.963   4.660  12.063  0.00  0.00    +0.000 HD
BRANCH   8  10
ATOM     10  C   UNL     1      44.985   3.190  11.020  0.00  0.00    +0.000 C 
BRANCH  10  11
ATOM     11  C   UNL     1      44.227   2.967   9.687  0.00  0.00    +0.000 C 
ATOM     12  C   UNL     1      44.786   1.851   8.787  0.00  0.00    +0.000 C 
ATOM     13  C   UNL     1      46.174   2.208   8.267  0.00  0.00    +0.000 C 
ATOM     14  C   UNL     1      46.152   3.563   7.558  0.00  0.00    +0.000 C 
ATOM     15  N   UNL     1      45.586   4.617   8.404  0.00  0.00    +0.000 NA
ATOM     16  C   UNL     1      44.239   4.278   8.876  0.00  0.00    +0.000 C 
ATOM     17  H   UNL     1      45.551   5.488   7.873  0.00  0.00    +0.000 HD
ENDBRANCH  10  11
ENDBRANCH   8  10
ENDBRANCH   5   8
ENDBRANCH   1   2
BRANCH   1  20
ATOM     18  C   UNL     1      49.511   6.007  16.968  0.00  0.00    +0.000 C 
ATOM     19  O   UNL     1      48.621   6.446  17.681  0.00  0.00    +0.000 OA
ATOM     20  N   UNL     1      49.601   6.310  15.624  0.00  0.00    +0.000 N 
ATOM     21  H   UNL     1      50.306   5.857  15.062  0.00  0.00    +0.000 HD
BRANCH  18  29
ATOM     22  C   UNL     1      50.145   2.639  17.005  0.00  0.00    +0.000 A 
ATOM     23  N   UNL     1      50.677   1.399  17.070  0.00  0.00    +0.000 NA
ATOM     24  C   UNL     1      51.884   1.254  17.625  0.00  0.00    +0.000 A 
ATOM     25  N   UNL     1      52.632   2.205  18.163  0.00  0.00    +0.000 NA
ATOM     26  C   UNL     1      52.074   3.422  18.075  0.00  0.00    +0.000 A 
ATOM     27  S   UNL     1      52.874   4.775  18.723  0.00  0.00    +0.000 S 
ATOM     28  C   UNL     1      51.635   5.824  18.217  0.00  0.00    +0.000 A 
ATOM     29  C   UNL     1      50.610   5.188  17.523  0.00  0.00    +0.000 A 
ATOM     30  C   UNL     1      50.853   3.751  17.488  0.00  0.00    +0.000 A 
BRANCH  22  32
ATOM     31  C   UNL     1      47.850   2.780  17.393  0.00  0.00    +0.000 C 
ATOM     32  O   UNL     1      48.903   2.793  16.428  0.00  0.00    +0.000 OA
ENDBRANCH  22  32
ENDBRANCH  18  29
ENDBRANCH   1  20
TORSDOF 7
ENDMDL
MODEL 2
REMARK VINA RESULT:    -7.170      2.386      3.341
REMARK INTER + INTRA:         -11.410
REMARK INTER:                  -9.650
REMARK INTRA:                  -1.759
REMARK UNBOUND:                -1.306
REMARK  Name = 
REMARK  8 active torsions:
REMARK  status: ('A' for Active; 'I' for Inactive)
REMARK    1  A    between atoms: C_1  and  O_2
REMARK    2  A    between atoms: O_2  and  C_3
REMARK    3  A    between atoms: C_10  and  C_11
REMARK    4  A    between atoms: N_13  and  C_14
REMARK    5  A    between atoms: C_14  and  C_15
REMARK    6  A    between atoms: C_18  and  N_19
REMARK    7  A    between atoms: N_19  and  C_20
REMARK    8  A    between atoms: C_20  and  C_21
REMARK                            x       y       z     vdW  Elec       q    Type
REMARK                         _______ _______ _______ _____ _____    ______ ____
ROOT
ATOM      1  C   UNL     1      48.483   8.812  14.516  0.00  0.00    +0.000 C 
ENDROOT
BRANCH   1   2
ATOM      2  C   UNL     1      47.588   8.357  13.384  0.00  0.00    +0.000 A 
ATOM      3  C   UNL     1      46.263   8.800  13.330  0.00  0.00    +0.000 A 
ATOM      4  C   UNL     1      45.366   8.300  12.371  0.00  0.00    +0.000 A 
ATOM      5  C   UNL     1      45.762   7.331  11.445  0.00  0.00    +0.000 A 
ATOM      6  C   UNL     1      47.103   6.923  11.480  0.00  0.00    +0.000 A 
ATOM      7  C   UNL     1      48.018   7.458  12.402  0.00  0.00    +0.000 A 
BRANCH   5   8
ATOM      8  N   UNL     1      44.877   6.634  10.602  0.00  0.00    +0.000 N 
ATOM      9  H   UNL     1      43.920   6.901  10.815  0.00  0.00    +0.000 HD
BRANCH   8  10
ATOM     10  C   UNL     1      45.031   5.184  10.480  0.00  0.00    +0.000 C 
BRANCH  10  11
ATOM     11  C   UNL     1      43.674   4.439  10.548  0.00  0.00    +0.000 C 
ATOM     12  C   UNL     1      42.637   5.043  11.511  0.00  0.00    +0.000 C 
ATOM     13  C   UNL     1      43.098   4.925  12.960  0.00  0.00    +0.000 C 
ATOM     14  C   UNL     1      43.426   3.471  13.304  0.00  0.00    +0.000 C 
ATOM     15  N   UNL     1      44.386   2.886  12.364  0.00  0.00    +0.000 NA
ATOM     16  C   UNL     1      43.921   2.979  10.975  0.00  0.00    +0.000 C 
ATOM     17  H   UNL     1      44.538   1.907  12.607  0.00  0.00    +0.000 HD
ENDBRANCH  10  11
ENDBRANCH   8  10
ENDBRANCH   5   8
ENDBRANCH   1   2
BRANCH   1  20
ATOM     18  C   UNL     1      49.641   6.996  15.760  0.00  0.00    +0.000 C 
ATOM     19  O   UNL     1      50.611   7.021  15.017  0.00  0.00    +0.000 OA
ATOM     20  N   UNL     1      48.554   7.830  15.591  0.00  0.00    +0.000 N 
ATOM     21  H   UNL     1      47.818   7.826  16.280  0.00  0.00    +0.000 HD
BRANCH  18  29
ATOM     22  C   UNL     1      47.476   4.410  16.369  0.00  0.00    +0.000 A 
ATOM     23  N   UNL     1      46.843   3.291  16.785  0.00  0.00    +0.000 NA
ATOM     24  C   UNL     1      47.305   2.667  17.872  0.00  0.00    +0.000 A 
ATOM     25  N   UNL     1      48.322   3.042  18.634  0.00  0.00    +0.000 NA
ATOM     26  C   UNL     1      48.928   4.153  18.187  0.00  0.00    +0.000 A 
ATOM     27  S   UNL     1      50.248   4.804  19.037  0.00  0.00    +0.000 S 
ATOM     28  C   UNL     1      50.435   6.059  17.905  0.00  0.00    +0.000 A 
ATOM     29  C   UNL     1      49.531   6.000  16.848  0.00  0.00    +0.000 A 
ATOM     30  C   UNL     1      48.604   4.893  17.050  0.00  0.00    +0.000 A 
BRANCH  22  32
ATOM     31  C   UNL     1      47.075   4.230  14.080  0.00  0.00    +0.000 C 
ATOM     32  O   UNL     1      47.005   5.053  15.244  0.00  0.00    +0.000 OA
ENDBRANCH  22  32
ENDBRANCH  18  29
ENDBRANCH   1  20
TORSDOF 7
ENDMDL
MODEL 3
REMARK VINA RESULT:    -6.991      2.394      3.074
REMARK INTER + INTRA:         -11.157
REMARK INTER:                 -10.362
REMARK INTRA:                  -0.795
REMARK UNBOUND:                -1.306
REMARK  Name = 
REMARK  8 active torsions:
REMARK  status: ('A' for Active; 'I' for Inactive)
REMARK    1  A    between atoms: C_1  and  O_2
REMARK    2  A    between atoms: O_2  and  C_3
REMARK    3  A    between atoms: C_10  and  C_11
REMARK    4  A    between atoms: N_13  and  C_14
REMARK    5  A    between atoms: C_14  and  C_15
REMARK    6  A    between atoms: C_18  and  N_19
REMARK    7  A    between atoms: N_19  and  C_20
REMARK    8  A    between atoms: C_20  and  C_21
REMARK                            x       y       z     vdW  Elec       q    Type
REMARK                         _______ _______ _______ _____ _____    ______ ____
ROOT
ATOM      1  C   UNL     1      47.538   8.829  13.665  0.00  0.00    +0.000 C 
ENDROOT
BRANCH   1   2
ATOM      2  C   UNL     1      46.299   8.260  13.009  0.00  0.00    +0.000 A 
ATOM      3  C   UNL     1      45.838   6.993  13.383  0.00  0.00    +0.000 A 
ATOM      4  C   UNL     1      44.772   6.377  12.709  0.00  0.00    +0.000 A 
ATOM      5  C   UNL     1      44.141   7.000  11.629  0.00  0.00    +0.000 A 
ATOM      6  C   UNL     1      44.580   8.287  11.287  0.00  0.00    +0.000 A 
ATOM      7  C   UNL     1      45.611   8.930  11.991  0.00  0.00    +0.000 A 
BRANCH   5   8
ATOM      8  N   UNL     1      43.217   6.366  10.778  0.00  0.00    +0.000 N 
ATOM      9  H   UNL     1      42.271   6.577  11.081  0.00  0.00    +0.000 HD
BRANCH   8  10
ATOM     10  C   UNL     1      43.400   4.941  10.495  0.00  0.00    +0.000 C 
BRANCH  10  11
ATOM     11  C   UNL     1      44.894   4.556  10.358  0.00  0.00    +0.000 C 
ATOM     12  C   UNL     1      45.447   4.555   8.922  0.00  0.00    +0.000 C 
ATOM     13  C   UNL     1      44.794   3.461   8.082  0.00  0.00    +0.000 C 
ATOM     14  C   UNL     1      44.947   2.099   8.760  0.00  0.00    +0.000 C 
ATOM     15  N   UNL     1      44.453   2.112  10.140  0.00  0.00    +0.000 NA
ATOM     16  C   UNL     1      45.108   3.147  10.947  0.00  0.00    +0.000 C 
ATOM     17  H   UNL     1      44.617   1.197  10.562  0.00  0.00    +0.000 HD
ENDBRANCH  10  11
ENDBRANCH   8  10
ENDBRANCH   5   8
ENDBRANCH   1   2
BRANCH   1  20
ATOM     18  C   UNL     1      48.778   7.054  14.889  0.00  0.00    +0.000 C 
ATOM     19  O   UNL     1      49.313   6.641  13.871  0.00  0.00    +0.000 OA
ATOM     20  N   UNL     1      47.893   8.114  14.885  0.00  0.00    +0.000 N 
ATOM     21  H   UNL     1      47.543   8.468  15.761  0.00  0.00    +0.000 HD
BRANCH  18  29
ATOM     22  C   UNL     1      47.404   4.262  16.326  0.00  0.00    +0.000 A 
ATOM     23  N   UNL     1      47.108   3.169  17.064  0.00  0.00    +0.000 NA
ATOM     24  C   UNL     1      47.758   2.986  18.216  0.00  0.00    +0.000 A 
ATOM     25  N   UNL     1      48.665   3.787  18.755  0.00  0.00    +0.000 NA
ATOM     26  C   UNL     1      48.936   4.857  17.992  0.00  0.00    +0.000 A 
ATOM     27  S   UNL     1      50.064   6.015  18.519  0.00  0.00    +0.000 S 
ATOM     28  C   UNL     1      49.868   6.936  17.104  0.00  0.00    +0.000 A 
ATOM     29  C   UNL     1      48.976   6.381  16.191  0.00  0.00    +0.000 A 
ATOM     30  C   UNL     1      48.386   5.170  16.750  0.00  0.00    +0.000 A 
BRANCH  22  32
ATOM     31  C   UNL     1      47.221   3.590  14.101  0.00  0.00    +0.000 C 
ATOM     32  O   UNL     1      46.739   4.451  15.133  0.00  0.00    +0.000 OA
ENDBRANCH  22  32
ENDBRANCH  18  29
ENDBRANCH   1  20
TORSDOF 7
ENDMDL
MODEL 4
REMARK VINA RESULT:    -6.855      1.542      2.381
REMARK INTER + INTRA:         -10.966
REMARK INTER:                  -9.528
REMARK INTRA:                  -1.439
REMARK UNBOUND:                -1.306
REMARK  Name = 
REMARK  8 active torsions:
REMARK  status: ('A' for Active; 'I' for Inactive)
REMARK    1  A    between atoms: C_1  and  O_2
REMARK    2  A    between atoms: O_2  and  C_3
REMARK    3  A    between atoms: C_10  and  C_11
REMARK    4  A    between atoms: N_13  and  C_14
REMARK    5  A    between atoms: C_14  and  C_15
REMARK    6  A    between atoms: C_18  and  N_19
REMARK    7  A    between atoms: N_19  and  C_20
REMARK    8  A    between atoms: C_20  and  C_21
REMARK                            x       y       z     vdW  Elec       q    Type
REMARK                         _______ _______ _______ _____ _____    ______ ____
ROOT
ATOM      1  C   UNL     1      49.720   7.628  15.365  0.00  0.00    +0.000 C 
ENDROOT
BRANCH   1   2
ATOM      2  C   UNL     1      48.863   7.113  14.228  0.00  0.00    +0.000 A 
ATOM      3  C   UNL     1      48.998   7.672  12.953  0.00  0.00    +0.000 A 
ATOM      4  C   UNL     1      48.134   7.314  11.906  0.00  0.00    +0.000 A 
ATOM      5  C   UNL     1      47.098   6.396  12.103  0.00  0.00    +0.000 A 
ATOM      6  C   UNL     1      46.997   5.809  13.372  0.00  0.00    +0.000 A 
ATOM      7  C   UNL     1      47.890   6.124  14.409  0.00  0.00    +0.000 A 
BRANCH   5   8
ATOM      8  N   UNL     1      46.073   6.148  11.171  0.00  0.00    +0.000 N 
ATOM      9  H   UNL     1      46.390   6.397  10.239  0.00  0.00    +0.000 HD
BRANCH   8  10
ATOM     10  C   UNL     1      44.736   6.670  11.457  0.00  0.00    +0.000 C 
BRANCH  10  11
ATOM     11  C   UNL     1      43.615   5.728  10.951  0.00  0.00    +0.000 C 
ATOM     12  C   UNL     1      42.478   5.456  11.952  0.00  0.00    +0.000 C 
ATOM     13  C   UNL     1      42.984   4.672  13.159  0.00  0.00    +0.000 C 
ATOM     14  C   UNL     1      43.679   3.385  12.712  0.00  0.00    +0.000 C 
ATOM     15  N   UNL     1      44.737   3.643  11.731  0.00  0.00    +0.000 NA
ATOM     16  C   UNL     1      44.235   4.372  10.561  0.00  0.00    +0.000 C 
ATOM     17  H   UNL     1      45.138   2.754  11.431  0.00  0.00    +0.000 HD
ENDBRANCH  10  11
ENDBRANCH   8  10
ENDBRANCH   5   8
ENDBRANCH   1   2
BRANCH   1  20
ATOM     18  C   UNL     1      50.234   6.038  17.208  0.00  0.00    +0.000 C 
ATOM     19  O   UNL     1      49.289   6.420  17.883  0.00  0.00    +0.000 OA
ATOM     20  N   UNL     1      50.525   6.573  15.969  0.00  0.00    +0.000 N 
ATOM     21  H   UNL     1      51.265   6.166  15.418  0.00  0.00    +0.000 HD
BRANCH  18  29
ATOM     22  C   UNL     1      50.320   2.614  17.102  0.00  0.00    +0.000 A 
ATOM     23  N   UNL     1      50.647   1.302  17.111  0.00  0.00    +0.000 NA
ATOM     24  C   UNL     1      51.815   0.943  17.650  0.00  0.00    +0.000 A 
ATOM     25  N   UNL     1      52.707   1.738  18.220  0.00  0.00    +0.000 NA
ATOM     26  C   UNL     1      52.352   3.032  18.187  0.00  0.00    +0.000 A 
ATOM     27  S   UNL     1      53.359   4.211  18.884  0.00  0.00    +0.000 S 
ATOM     28  C   UNL     1      52.304   5.465  18.431  0.00  0.00    +0.000 A 
ATOM     29  C   UNL     1      51.188   5.031  17.720  0.00  0.00    +0.000 A 
ATOM     30  C   UNL     1      51.197   3.576  17.624  0.00  0.00    +0.000 A 
BRANCH  22  32
ATOM     31  C   UNL     1      48.042   2.936  17.480  0.00  0.00    +0.000 C 
ATOM     32  O   UNL     1      49.118   2.988  16.542  0.00  0.00    +0.000 OA
ENDBRANCH  22  32
ENDBRANCH  18  29
ENDBRANCH   1  20
TORSDOF 7
ENDMDL
MODEL 5
REMARK VINA RESULT:    -6.552      2.136      2.872
REMARK INTER + INTRA:         -10.539
REMARK INTER:                  -8.989
REMARK INTRA:                  -1.550
REMARK UNBOUND:                -1.306
REMARK  Name = 
REMARK  8 active torsions:
REMARK  status: ('A' for Active; 'I' for Inactive)
REMARK    1  A    between atoms: C_1  and  O_2
REMARK    2  A    between atoms: O_2  and  C_3
REMARK    3  A    between atoms: C_10  and  C_11
REMARK    4  A    between atoms: N_13  and  C_14
REMARK    5  A    between atoms: C_14  and  C_15
REMARK    6  A    between atoms: C_18  and  N_19
REMARK    7  A    between atoms: N_19  and  C_20
REMARK    8  A    between atoms: C_20  and  C_21
REMARK                            x       y       z     vdW  Elec       q    Type
REMARK                         _______ _______ _______ _____ _____    ______ ____
ROOT
ATOM      1  C   UNL     1      49.748   8.559  12.686  0.00  0.00    +0.000 C 
ENDROOT
BRANCH   1   2
ATOM      2  C   UNL     1      48.330   8.041  12.580  0.00  0.00    +0.000 A 
ATOM      3  C   UNL     1      47.258   8.907  12.817  0.00  0.00    +0.000 A 
ATOM      4  C   UNL     1      45.935   8.436  12.855  0.00  0.00    +0.000 A 
ATOM      5  C   UNL     1      45.643   7.081  12.672  0.00  0.00    +0.000 A 
ATOM      6  C   UNL     1      46.719   6.227  12.394  0.00  0.00    +0.000 A 
ATOM      7  C   UNL     1      48.039   6.701  12.302  0.00  0.00    +0.000 A 
BRANCH   5   8
ATOM      8  N   UNL     1      44.380   6.506  12.904  0.00  0.00    +0.000 N 
ATOM      9  H   UNL     1      43.857   7.080  13.558  0.00  0.00    +0.000 HD
BRANCH   8  10
ATOM     10  C   UNL     1      44.319   5.084  13.248  0.00  0.00    +0.000 C 
BRANCH  10  11
ATOM     11  C   UNL     1      43.141   4.360  12.549  0.00  0.00    +0.000 C 
ATOM     12  C   UNL     1      43.482   2.997  11.921  0.00  0.00    +0.000 C 
ATOM     13  C   UNL     1      44.449   3.158  10.752  0.00  0.00    +0.000 C 
ATOM     14  C   UNL     1      43.893   4.143   9.724  0.00  0.00    +0.000 C 
ATOM     15  N   UNL     1      43.534   5.429  10.331  0.00  0.00    +0.000 NA
ATOM     16  C   UNL     1      42.581   5.267  11.435  0.00  0.00    +0.000 C 
ATOM     17  H   UNL     1      43.127   6.033   9.617  0.00  0.00    +0.000 HD
ENDBRANCH  10  11
ENDBRANCH   8  10
ENDBRANCH   5   8
ENDBRANCH   1   2
BRANCH   1  20
ATOM     18  C   UNL     1      50.622   8.023  14.952  0.00  0.00    +0.000 C 
ATOM     19  O   UNL     1      50.011   8.944  15.473  0.00  0.00    +0.000 OA
ATOM     20  N   UNL     1      50.559   7.762  13.598  0.00  0.00    +0.000 N 
ATOM     21  H   UNL     1      51.016   6.941  13.232  0.00  0.00    +0.000 HD
BRANCH  18  29
ATOM     22  C   UNL     1      50.154   5.597  17.327  0.00  0.00    +0.000 A 
ATOM     23  N   UNL     1      50.247   4.557  18.185  0.00  0.00    +0.000 NA
ATOM     24  C   UNL     1      51.459   4.063  18.456  0.00  0.00    +0.000 A 
ATOM     25  N   UNL     1      52.619   4.502  17.994  0.00  0.00    +0.000 NA
ATOM     26  C   UNL     1      52.487   5.530  17.141  0.00  0.00    +0.000 A 
ATOM     27  S   UNL     1      53.865   6.247  16.449  0.00  0.00    +0.000 S 
ATOM     28  C   UNL     1      52.920   7.342  15.557  0.00  0.00    +0.000 A 
ATOM     29  C   UNL     1      51.549   7.176  15.733  0.00  0.00    +0.000 A 
ATOM     30  C   UNL     1      51.301   6.129  16.718  0.00  0.00    +0.000 A 
BRANCH  22  32
ATOM     31  C   UNL     1      48.233   5.355  16.029  0.00  0.00    +0.000 C 
ATOM     32  O   UNL     1      48.905   6.105  17.041  0.00  0.00    +0.000 OA
ENDBRANCH  22  32
ENDBRANCH  18  29
ENDBRANCH   1  20
TORSDOF 7
ENDMDL
MODEL 6
REMARK VINA RESULT:    -6.545      2.147      2.895
REMARK INTER + INTRA:         -10.529
REMARK INTER:                  -9.148
REMARK INTRA:                  -1.381
REMARK UNBOUND:                -1.306
REMARK  Name = 
REMARK  8 active torsions:
REMARK  status: ('A' for Active; 'I' for Inactive)
REMARK    1  A    between atoms: C_1  and  O_2
REMARK    2  A    between atoms: O_2  and  C_3
REMARK    3  A    between atoms: C_10  and  C_11
REMARK    4  A    between atoms: N_13  and  C_14
REMARK    5  A    between atoms: C_14  and  C_15
REMARK    6  A    between atoms: C_18  and  N_19
REMARK    7  A    between atoms: N_19  and  C_20
REMARK    8  A    between atoms: C_20  and  C_21
REMARK                            x       y       z     vdW  Elec       q    Type
REMARK                         _______ _______ _______ _____ _____    ______ ____
ROOT
ATOM      1  C   UNL     1      48.271   7.530  14.403  0.00  0.00    +0.000 C 
ENDROOT
BRANCH   1   2
ATOM      2  C   UNL     1      47.476   6.614  13.497  0.00  0.00    +0.000 A 
ATOM      3  C   UNL     1      47.157   7.031  12.200  0.00  0.00    +0.000 A 
ATOM      4  C   UNL     1      46.314   6.269  11.376  0.00  0.00    +0.000 A 
ATOM      5  C   UNL     1      45.750   5.071  11.827  0.00  0.00    +0.000 A 
ATOM      6  C   UNL     1      46.108   4.639  13.112  0.00  0.00    +0.000 A 
ATOM      7  C   UNL     1      46.993   5.372  13.921  0.00  0.00    +0.000 A 
BRANCH   5   8
ATOM      8  N   UNL     1      44.740   4.367  11.146  0.00  0.00    +0.000 N 
ATOM      9  H   UNL     1      43.878   4.399  11.684  0.00  0.00    +0.000 HD
BRANCH   8  10
ATOM     10  C   UNL     1      45.040   3.017  10.665  0.00  0.00    +0.000 C 
BRANCH  10  11
ATOM     11  C   UNL     1      44.398   2.728   9.285  0.00  0.00    +0.000 C 
ATOM     12  C   UNL     1      45.057   1.599   8.473  0.00  0.00    +0.000 C 
ATOM     13  C   UNL     1      46.473   1.979   8.053  0.00  0.00    +0.000 C 
ATOM     14  C   UNL     1      46.472   3.308   7.297  0.00  0.00    +0.000 C 
ATOM     15  N   UNL     1      45.812   4.374   8.056  0.00  0.00    +0.000 NA
ATOM     16  C   UNL     1      44.440   4.011   8.431  0.00  0.00    +0.000 C 
ATOM     17  H   UNL     1      45.797   5.225   7.494  0.00  0.00    +0.000 HD
ENDBRANCH  10  11
ENDBRANCH   8  10
ENDBRANCH   5   8
ENDBRANCH   1   2
BRANCH   1  20
ATOM     18  C   UNL     1      49.944   6.884  16.126  0.00  0.00    +0.000 C 
ATOM     19  O   UNL     1      50.861   7.428  15.528  0.00  0.00    +0.000 OA
ATOM     20  N   UNL     1      48.648   6.877  15.651  0.00  0.00    +0.000 N 
ATOM     21  H   UNL     1      47.915   6.486  16.222  0.00  0.00    +0.000 HD
BRANCH  18  29
ATOM     22  C   UNL     1      48.341   6.736  19.152  0.00  0.00    +0.000 A 
ATOM     23  N   UNL     1      47.849   6.413  20.368  0.00  0.00    +0.000 NA
ATOM     24  C   UNL     1      48.459   5.451  21.065  0.00  0.00    +0.000 A 
ATOM     25  N   UNL     1      49.541   4.775  20.711  0.00  0.00    +0.000 NA
ATOM     26  C   UNL     1      49.997   5.118  19.496  0.00  0.00    +0.000 A 
ATOM     27  S   UNL     1      51.390   4.372  18.867  0.00  0.00    +0.000 S 
ATOM     28  C   UNL     1      51.283   5.260  17.421  0.00  0.00    +0.000 A 
ATOM     29  C   UNL     1      50.185   6.112  17.364  0.00  0.00    +0.000 A 
ATOM     30  C   UNL     1      49.453   6.061  18.625  0.00  0.00    +0.000 A 
BRANCH  22  32
ATOM     31  C   UNL     1      48.206   9.026  18.739  0.00  0.00    +0.000 C 
ATOM     32  O   UNL     1      47.710   7.724  18.427  0.00  0.00    +0.000 OA
ENDBRANCH  22  32
ENDBRANCH  18  29
ENDBRANCH   1  20
TORSDOF 7
ENDMDL
MODEL 7
REMARK VINA RESULT:    -6.425      3.661      8.210
REMARK INTER + INTRA:         -10.360
REMARK INTER:                  -8.711
REMARK INTRA:                  -1.649
REMARK UNBOUND:                -1.306
REMARK  Name = 
REMARK  8 active torsions:
REMARK  status: ('A' for Active; 'I' for Inactive)
REMARK    1  A    between atoms: C_1  and  O_2
REMARK    2  A    between atoms: O_2  and  C_3
REMARK    3  A    between atoms: C_10  and  C_11
REMARK    4  A    between atoms: N_13  and  C_14
REMARK    5  A    between atoms: C_14  and  C_15
REMARK    6  A    between atoms: C_18  and  N_19
REMARK    7  A    between atoms: N_19  and  C_20
REMARK    8  A    between atoms: C_20  and  C_21
REMARK                            x       y       z     vdW  Elec       q    Type
REMARK                         _______ _______ _______ _____ _____    ______ ____
ROOT
ATOM      1  C   UNL     1      47.812   8.419  11.972  0.00  0.00    +0.000 C 
ENDROOT
BRANCH   1   2
ATOM      2  C   UNL     1      48.246   8.159  13.398  0.00  0.00    +0.000 A 
ATOM      3  C   UNL     1      48.777   6.911  13.742  0.00  0.00    +0.000 A 
ATOM      4  C   UNL     1      49.070   6.587  15.077  0.00  0.00    +0.000 A 
ATOM      5  C   UNL     1      48.828   7.495  16.112  0.00  0.00    +0.000 A 
ATOM      6  C   UNL     1      48.336   8.758  15.754  0.00  0.00    +0.000 A 
ATOM      7  C   UNL     1      48.090   9.106  14.416  0.00  0.00    +0.000 A 
BRANCH   5   8
ATOM      8  N   UNL     1      48.896   7.171  17.480  0.00  0.00    +0.000 N 
ATOM      9  H   UNL     1      49.112   8.005  18.019  0.00  0.00    +0.000 HD
BRANCH   8  10
ATOM     10  C   UNL     1      49.715   6.026  17.882  0.00  0.00    +0.000 C 
BRANCH  10  11
ATOM     11  C   UNL     1      48.997   5.123  18.916  0.00  0.00    +0.000 C 
ATOM     12  C   UNL     1      49.234   3.611  18.749  0.00  0.00    +0.000 C 
ATOM     13  C   UNL     1      48.620   3.099  17.450  0.00  0.00    +0.000 C 
ATOM     14  C   UNL     1      47.137   3.461  17.376  0.00  0.00    +0.000 C 
ATOM     15  N   UNL     1      46.910   4.897  17.571  0.00  0.00    +0.000 NA
ATOM     16  C   UNL     1      47.478   5.374  18.837  0.00  0.00    +0.000 C 
ATOM     17  H   UNL     1      45.907   5.081  17.558  0.00  0.00    +0.000 HD
ENDBRANCH  10  11
ENDBRANCH   8  10
ENDBRANCH   5   8
ENDBRANCH   1   2
BRANCH   1  20
ATOM     18  C   UNL     1      45.873   7.037  11.253  0.00  0.00    +0.000 C 
ATOM     19  O   UNL     1      45.061   7.836  11.695  0.00  0.00    +0.000 OA
ATOM     20  N   UNL     1      47.236   7.235  11.347  0.00  0.00    +0.000 N 
ATOM     21  H   UNL     1      47.861   6.586  10.893  0.00  0.00    +0.000 HD
BRANCH  18  29
ATOM     22  C   UNL     1      44.322   4.263  12.536  0.00  0.00    +0.000 A 
ATOM     23  N   UNL     1      43.640   3.117  12.755  0.00  0.00    +0.000 NA
ATOM     24  C   UNL     1      43.408   2.308  11.718  0.00  0.00    +0.000 A 
ATOM     25  N   UNL     1      43.804   2.483  10.467  0.00  0.00    +0.000 NA
ATOM     26  C   UNL     1      44.473   3.633  10.287  0.00  0.00    +0.000 A 
ATOM     27  S   UNL     1      45.080   4.034   8.750  0.00  0.00    +0.000 S 
ATOM     28  C   UNL     1      45.703   5.511   9.316  0.00  0.00    +0.000 A 
ATOM     29  C   UNL     1      45.444   5.751  10.663  0.00  0.00    +0.000 A 
ATOM     30  C   UNL     1      44.756   4.604  11.246  0.00  0.00    +0.000 A 
BRANCH  22  32
ATOM     31  C   UNL     1      45.864   4.927  14.154  0.00  0.00    +0.000 C 
ATOM     32  O   UNL     1      44.558   5.103  13.603  0.00  0.00    +0.000 OA
ENDBRANCH  22  32
ENDBRANCH  18  29
ENDBRANCH   1  20
TORSDOF 7
ENDMDL
MODEL 8
REMARK VINA RESULT:    -6.101      5.898      7.539
REMARK INTER + INTRA:          -9.903
REMARK INTER:                  -8.734
REMARK INTRA:                  -1.169
REMARK UNBOUND:                -1.306
REMARK  Name = 
REMARK  8 active torsions:
REMARK  status: ('A' for Active; 'I' for Inactive)
REMARK    1  A    between atoms: C_1  and  O_2
REMARK    2  A    between atoms: O_2  and  C_3
REMARK    3  A    between atoms: C_10  and  C_11
REMARK    4  A    between atoms: N_13  and  C_14
REMARK    5  A    between atoms: C_14  and  C_15
REMARK    6  A    between atoms: C_18  and  N_19
REMARK    7  A    between atoms: N_19  and  C_20
REMARK    8  A    between atoms: C_20  and  C_21
REMARK                            x       y       z     vdW  Elec       q    Type
REMARK                         _______ _______ _______ _____ _____    ______ ____
ROOT
ATOM      1  C   UNL     1      51.067   8.533  12.031  0.00  0.00    +0.000 C 
ENDROOT
BRANCH   1   2
ATOM      2  C   UNL     1      49.794   7.800  12.397  0.00  0.00    +0.000 A 
ATOM      3  C   UNL     1      48.799   7.618  11.431  0.00  0.00    +0.000 A 
ATOM      4  C   UNL     1      47.554   7.059  11.764  0.00  0.00    +0.000 A 
ATOM      5  C   UNL     1      47.258   6.679  13.076  0.00  0.00    +0.000 A 
ATOM      6  C   UNL     1      48.276   6.826  14.029  0.00  0.00    +0.000 A 
ATOM      7  C   UNL     1      49.541   7.335  13.692  0.00  0.00    +0.000 A 
BRANCH   5   8
ATOM      8  N   UNL     1      45.975   6.314  13.524  0.00  0.00    +0.000 N 
ATOM      9  H   UNL     1      45.999   5.368  13.895  0.00  0.00    +0.000 HD
BRANCH   8  10
ATOM     10  C   UNL     1      44.841   6.524  12.623  0.00  0.00    +0.000 C 
BRANCH  10  11
ATOM     11  C   UNL     1      43.794   5.386  12.718  0.00  0.00    +0.000 C 
ATOM     12  C   UNL     1      44.361   3.958  12.626  0.00  0.00    +0.000 C 
ATOM     13  C   UNL     1      44.949   3.688  11.245  0.00  0.00    +0.000 C 
ATOM     14  C   UNL     1      43.914   3.969  10.155  0.00  0.00    +0.000 C 
ATOM     15  N   UNL     1      43.348   5.316  10.266  0.00  0.00    +0.000 NA
ATOM     16  C   UNL     1      42.759   5.557  11.588  0.00  0.00    +0.000 C 
ATOM     17  H   UNL     1      42.634   5.439   9.548  0.00  0.00    +0.000 HD
ENDBRANCH  10  11
ENDBRANCH   8  10
ENDBRANCH   5   8
ENDBRANCH   1   2
BRANCH   1  20
ATOM     18  C   UNL     1      52.617   8.811  10.106  0.00  0.00    +0.000 C 
ATOM     19  O   UNL     1      53.241   9.704  10.659  0.00  0.00    +0.000 OA
ATOM     20  N   UNL     1      51.538   8.184  10.696  0.00  0.00    +0.000 N 
ATOM     21  H   UNL     1      51.109   7.399  10.232  0.00  0.00    +0.000 HD
BRANCH  18  29
ATOM     22  C   UNL     1      53.508   5.826   8.677  0.00  0.00    +0.000 A 
ATOM     23  N   UNL     1      53.760   4.778   7.862  0.00  0.00    +0.000 NA
ATOM     24  C   UNL     1      53.802   4.995   6.544  0.00  0.00    +0.000 A 
ATOM     25  N   UNL     1      53.651   6.154   5.922  0.00  0.00    +0.000 NA
ATOM     26  C   UNL     1      53.396   7.169   6.763  0.00  0.00    +0.000 A 
ATOM     27  S   UNL     1      53.186   8.744   6.158  0.00  0.00    +0.000 S 
ATOM     28  C   UNL     1      52.900   9.366   7.714  0.00  0.00    +0.000 A 
ATOM     29  C   UNL     1      52.924   8.402   8.718  0.00  0.00    +0.000 A 
ATOM     30  C   UNL     1      53.272   7.105   8.150  0.00  0.00    +0.000 A 
BRANCH  22  32
ATOM     31  C   UNL     1      54.743   5.710  10.651  0.00  0.00    +0.000 C 
ATOM     32  O   UNL     1      53.458   5.605  10.037  0.00  0.00    +0.000 OA
ENDBRANCH  22  32
ENDBRANCH  18  29
ENDBRANCH   1  20
TORSDOF 7
ENDMDL
MODEL 9
REMARK VINA RESULT:    -5.945      1.789      2.656
REMARK INTER + INTRA:          -9.684
REMARK INTER:                  -8.552
REMARK INTRA:                  -1.132
REMARK UNBOUND:                -1.306
REMARK  Name = 
REMARK  8 active torsions:
REMARK  status: ('A' for Active; 'I' for Inactive)
REMARK    1  A    between atoms: C_1  and  O_2
REMARK    2  A    between atoms: O_2  and  C_3
REMARK    3  A    between atoms: C_10  and  C_11
REMARK    4  A    between atoms: N_13  and  C_14
REMARK    5  A    between atoms: C_14  and  C_15
REMARK    6  A    between atoms: C_18  and  N_19
REMARK    7  A    between atoms: N_19  and  C_20
REMARK    8  A    between atoms: C_20  and  C_21
REMARK                            x       y       z     vdW  Elec       q    Type
REMARK                         _______ _______ _______ _____ _____    ______ ____
ROOT
ATOM      1  C   UNL     1      49.044   8.846  14.195  0.00  0.00    +0.000 C 
ENDROOT
BRANCH   1   2
ATOM      2  C   UNL     1      47.894   8.236  13.423  0.00  0.00    +0.000 A 
ATOM      3  C   UNL     1      47.965   6.899  13.017  0.00  0.00    +0.000 A 
ATOM      4  C   UNL     1      46.980   6.335  12.191  0.00  0.00    +0.000 A 
ATOM      5  C   UNL     1      45.899   7.093  11.731  0.00  0.00    +0.000 A 
ATOM      6  C   UNL     1      45.813   8.420  12.175  0.00  0.00    +0.000 A 
ATOM      7  C   UNL     1      46.767   8.975  13.045  0.00  0.00    +0.000 A 
BRANCH   5   8
ATOM      8  N   UNL     1      44.996   6.664  10.740  0.00  0.00    +0.000 N 
ATOM      9  H   UNL     1      44.045   6.872  11.031  0.00  0.00    +0.000 HD
BRANCH   8  10
ATOM     10  C   UNL     1      45.130   5.301  10.223  0.00  0.00    +0.000 C 
BRANCH  10  11
ATOM     11  C   UNL     1      43.786   4.533  10.234  0.00  0.00    +0.000 C 
ATOM     12  C   UNL     1      42.803   4.936  11.348  0.00  0.00    +0.000 C 
ATOM     13  C   UNL     1      43.351   4.568  12.723  0.00  0.00    +0.000 C 
ATOM     14  C   UNL     1      43.710   3.083  12.781  0.00  0.00    +0.000 C 
ATOM     15  N   UNL     1      44.617   2.693  11.697  0.00  0.00    +0.000 NA
ATOM     16  C   UNL     1      44.068   3.024  10.377  0.00  0.00    +0.000 C 
ATOM     17  H   UNL     1      44.789   1.689  11.752  0.00  0.00    +0.000 HD
ENDBRANCH  10  11
ENDBRANCH   8  10
ENDBRANCH   5   8
ENDBRANCH   1   2
BRANCH   1  20
ATOM     18  C   UNL     1      49.777   7.575  16.203  0.00  0.00    +0.000 C 
ATOM     19  O   UNL     1      49.014   8.182  16.941  0.00  0.00    +0.000 OA
ATOM     20  N   UNL     1      49.864   7.835  14.850  0.00  0.00    +0.000 N 
ATOM     21  H   UNL     1      50.449   7.251  14.272  0.00  0.00    +0.000 HD
BRANCH  18  29
ATOM     22  C   UNL     1      49.458   4.301  17.165  0.00  0.00    +0.000 A 
ATOM     23  N   UNL     1      49.629   3.003  17.501  0.00  0.00    +0.000 NA
ATOM     24  C   UNL     1      50.862   2.581  17.795  0.00  0.00    +0.000 A 
ATOM     25  N   UNL     1      51.967   3.309  17.827  0.00  0.00    +0.000 NA
ATOM     26  C   UNL     1      51.759   4.589  17.482  0.00  0.00    +0.000 A 
ATOM     27  S   UNL     1      53.054   5.692  17.477  0.00  0.00    +0.000 S 
ATOM     28  C   UNL     1      52.051   6.959  16.949  0.00  0.00    +0.000 A 
ATOM     29  C   UNL     1      50.730   6.577  16.734  0.00  0.00    +0.000 A 
ATOM     30  C   UNL     1      50.553   5.177  17.104  0.00  0.00    +0.000 A 
BRANCH  22  32
ATOM     31  C   UNL     1      47.243   3.670  16.801  0.00  0.00    +0.000 C 
ATOM     32  O   UNL     1      48.188   4.740  16.855  0.00  0.00    +0.000 OA
ENDBRANCH  22  32
ENDBRANCH  18  29
ENDBRANCH   1  20
TORSDOF 7
ENDMDL
