MODEL 1
REMARK VINA RESULT:    -8.325      0.000      0.000
REMARK INTER + INTRA:         -13.037
REMARK INTER:                 -12.218
REMARK INTRA:                  -0.819
REMARK UNBOUND:                -0.819
REMARK  Name = 
REMARK  9 active torsions:
REMARK  status: ('A' for Active; 'I' for Inactive)
REMARK    1  A    between atoms: C_1  and  C_2
REMARK    2  A    between atoms: C_2  and  C_3
REMARK    3  A    between atoms: C_3  and  N_4
REMARK    4  A    between atoms: C_3  and  C_26
REMARK    5  A    between atoms: N_4  and  C_5
REMARK    6  A    between atoms: C_5  and  C_6
REMARK    7  A    between atoms: C_9  and  C_10
REMARK    8  A    between atoms: C_10  and  N_11
REMARK    9  A    between atoms: C_12  and  C_14
REMARK                            x       y       z     vdW  Elec       q    Type
REMARK                         _______ _______ _______ _____ _____    ______ ____
ROOT
ATOM      1  C   UNL     1      44.727   6.138  11.129  0.00  0.00    +0.000 A 
ATOM      2  C   UNL     1      44.342   7.338  11.745  0.00  0.00    +0.000 A 
ATOM      3  C   UNL     1      45.246   8.060  12.529  0.00  0.00    +0.000 A 
ATOM      4  C   UNL     1      46.551   7.592  12.723  0.00  0.00    +0.000 A 
ATOM      5  C   UNL     1      46.926   6.374  12.143  0.00  0.00    +0.000 A 
ATOM      6  C   UNL     1      46.027   5.659  11.347  0.00  0.00    +0.000 A 
ENDROOT
BRANCH   1   7
ATOM      7  C   UNL     1      43.755   5.345  10.279  0.00  0.00    +0.000 C 
BRANCH   7   8
ATOM      8  N   UNL     1      44.431   4.702   9.148  0.00  0.00    +0.000 NA
ATOM      9  H   UNL     1      43.941   4.944   8.293  0.00  0.00    +0.000 HD
BRANCH   8  10
ATOM     10  C   UNL     1      44.502   3.233   9.258  0.00  0.00    +0.000 C 
BRANCH  10  11
ATOM     11  C   UNL     1      45.549   2.616   8.325  0.00  0.00    +0.000 A 
ATOM     12  C   UNL     1      46.208   3.405   7.387  0.00  0.00    +0.000 A 
ATOM     13  C   UNL     1      47.173   2.817   6.570  0.00  0.00    +0.000 A 
ATOM     14  C   UNL     1      47.462   1.467   6.723  0.00  0.00    +0.000 A 
ATOM     15  C   UNL     1      46.781   0.756   7.692  0.00  0.00    +0.000 A 
ATOM     16  N   UNL     1      45.840   1.294   8.492  0.00  0.00    +0.000 NA
ENDBRANCH  10  11
BRANCH  10  18
ATOM     17  C   UNL     1      43.374   2.576  11.495  0.00  0.00    +0.000 C 
ATOM     18  C   UNL     1      44.664   2.680  10.695  0.00  0.00    +0.000 C 
ENDBRANCH  10  18
ENDBRANCH   8  10
ENDBRANCH   7   8
ENDBRANCH   1   7
BRANCH   4  19
ATOM     19  C   UNL     1      47.521   8.351  13.586  0.00  0.00    +0.000 C 
BRANCH  19  20
ATOM     20  N   UNL     1      47.832   7.613  14.784  0.00  0.00    +0.000 N 
ATOM     21  C   UNL     1      49.061   7.031  14.949  0.00  0.00    +0.000 C 
ATOM     22  O   UNL     1      49.957   7.157  14.117  0.00  0.00    +0.000 OA
ATOM     23  H   UNL     1      47.053   7.325  15.367  0.00  0.00    +0.000 HD
BRANCH  21  24
ATOM     24  C   UNL     1      49.279   6.292  16.198  0.00  0.00    +0.000 A 
ATOM     25  C   UNL     1      50.293   6.693  17.058  0.00  0.00    +0.000 A 
ATOM     26  S   UNL     1      50.400   5.752  18.475  0.00  0.00    +0.000 S 
ATOM     27  C   UNL     1      49.125   4.747  17.970  0.00  0.00    +0.000 A 
ATOM     28  N   UNL     1      48.724   3.693  18.729  0.00  0.00    +0.000 NA
ATOM     29  C   UNL     1      47.766   2.998  18.215  0.00  0.00    +0.000 A 
ATOM     30  N   UNL     1      47.166   3.268  17.011  0.00  0.00    +0.000 N 
ATOM     31  C   UNL     1      47.516   4.337  16.223  0.00  0.00    +0.000 A 
ATOM     32  O   UNL     1      46.927   4.576  15.173  0.00  0.00    +0.000 OA
ATOM     33  C   UNL     1      48.606   5.137  16.747  0.00  0.00    +0.000 A 
ATOM     34  H   UNL     1      46.412   2.691  16.671  0.00  0.00    +0.000 HD
ENDBRANCH  21  24
ENDBRANCH  19  20
ENDBRANCH   4  19
TORSDOF 8
ENDMDL
MODEL 2
REMARK VINA RESULT:    -7.694      1.447      2.023
REMARK INTER + INTRA:         -12.112
REMARK INTER:                 -10.644
REMARK INTRA:                  -1.468
REMARK UNBOUND:                -0.819
REMARK  Name = 
REMARK  9 active torsions:
REMARK  status: ('A' for Active; 'I' for Inactive)
REMARK    1  A    between atoms: C_1  and  C_2
REMARK    2  A    between atoms: C_2  and  C_3
REMARK    3  A    between atoms: C_3  and  N_4
REMARK    4  A    between atoms: C_3  and  C_26
REMARK    5  A    between atoms: N_4  and  C_5
REMARK    6  A    between atoms: C_5  and  C_6
REMARK    7  A    between atoms: C_9  and  C_10
REMARK    8  A    between atoms: C_10  and  N_11
REMARK    9  A    between atoms: C_12  and  C_14
REMARK                            x       y       z     vdW  Elec       q    Type
REMARK                         _______ _______ _______ _____ _____    ______ ____
ROOT
ATOM      1  C   UNL     1      45.528   6.874  11.934  0.00  0.00    +0.000 A 
ATOM      2  C   UNL     1      46.774   6.245  12.083  0.00  0.00    +0.000 A 
ATOM      3  C   UNL     1      47.833   6.899  12.715  0.00  0.00    +0.000 A 
ATOM      4  C   UNL     1      47.675   8.202  13.204  0.00  0.00    +0.000 A 
ATOM      5  C   UNL     1      46.446   8.848  13.021  0.00  0.00    +0.000 A 
ATOM      6  C   UNL     1      45.381   8.189  12.401  0.00  0.00    +0.000 A 
ENDROOT
BRANCH   1   7
ATOM      7  C   UNL     1      44.373   6.176  11.247  0.00  0.00    +0.000 C 
BRANCH   7   8
ATOM      8  N   UNL     1      44.788   5.578   9.974  0.00  0.00    +0.000 NA
ATOM      9  H   UNL     1      44.293   6.041   9.218  0.00  0.00    +0.000 HD
BRANCH   8  10
ATOM     10  C   UNL     1      44.535   4.126   9.891  0.00  0.00    +0.000 C 
BRANCH  10  11
ATOM     11  C   UNL     1      45.411   3.428   8.846  0.00  0.00    +0.000 A 
ATOM     12  C   UNL     1      45.605   2.051   8.897  0.00  0.00    +0.000 A 
ATOM     13  C   UNL     1      46.388   1.444   7.916  0.00  0.00    +0.000 A 
ATOM     14  C   UNL     1      46.941   2.224   6.908  0.00  0.00    +0.000 A 
ATOM     15  C   UNL     1      46.684   3.581   6.914  0.00  0.00    +0.000 A 
ATOM     16  N   UNL     1      45.936   4.197   7.850  0.00  0.00    +0.000 NA
ENDBRANCH  10  11
BRANCH  10  18
ATOM     17  C   UNL     1      43.273   2.737  11.675  0.00  0.00    +0.000 C 
ATOM     18  C   UNL     1      44.588   3.364  11.238  0.00  0.00    +0.000 C 
ENDBRANCH  10  18
ENDBRANCH   8  10
ENDBRANCH   7   8
ENDBRANCH   1   7
BRANCH   4  19
ATOM     19  C   UNL     1      48.818   8.921  13.864  0.00  0.00    +0.000 C 
BRANCH  19  20
ATOM     20  N   UNL     1      49.269   8.210  15.033  0.00  0.00    +0.000 N 
ATOM     21  C   UNL     1      48.774   8.516  16.274  0.00  0.00    +0.000 C 
ATOM     22  O   UNL     1      47.898   9.363  16.433  0.00  0.00    +0.000 OA
ATOM     23  H   UNL     1      50.125   7.672  14.948  0.00  0.00    +0.000 HD
BRANCH  21  24
ATOM     24  C   UNL     1      49.301   7.743  17.404  0.00  0.00    +0.000 A 
ATOM     25  C   UNL     1      49.922   8.408  18.453  0.00  0.00    +0.000 A 
ATOM     26  S   UNL     1      50.455   7.374  19.699  0.00  0.00    +0.000 S 
ATOM     27  C   UNL     1      49.916   5.996  18.860  0.00  0.00    +0.000 A 
ATOM     28  N   UNL     1      50.099   4.751  19.374  0.00  0.00    +0.000 NA
ATOM     29  C   UNL     1      49.668   3.795  18.622  0.00  0.00    +0.000 A 
ATOM     30  N   UNL     1      49.060   3.973  17.406  0.00  0.00    +0.000 N 
ATOM     31  C   UNL     1      48.826   5.211  16.860  0.00  0.00    +0.000 A 
ATOM     32  O   UNL     1      48.238   5.337  15.790  0.00  0.00    +0.000 OA
ATOM     33  C   UNL     1      49.314   6.320  17.657  0.00  0.00    +0.000 A 
ATOM     34  H   UNL     1      48.734   3.181  16.872  0.00  0.00    +0.000 HD
ENDBRANCH  21  24
ENDBRANCH  19  20
ENDBRANCH   4  19
TORSDOF 8
ENDMDL
MODEL 3
REMARK VINA RESULT:    -7.585      3.028      4.177
REMARK INTER + INTRA:         -11.952
REMARK INTER:                 -10.685
REMARK INTRA:                  -1.266
REMARK UNBOUND:                -0.819
REMARK  Name = 
REMARK  9 active torsions:
REMARK  status: ('A' for Active; 'I' for Inactive)
REMARK    1  A    between atoms: C_1  and  C_2
REMARK    2  A    between atoms: C_2  and  C_3
REMARK    3  A    between atoms: C_3  and  N_4
REMARK    4  A    between atoms: C_3  and  C_26
REMARK    5  A    between atoms: N_4  and  C_5
REMARK    6  A    between atoms: C_5  and  C_6
REMARK    7  A    between atoms: C_9  and  C_10
REMARK    8  A    between atoms: C_10  and  N_11
REMARK    9  A    between atoms: C_12  and  C_14
REMARK                            x       y       z     vdW  Elec       q    Type
REMARK                         _______ _______ _______ _____ _____    ______ ____
ROOT
ATOM      1  C   UNL     1      47.175   5.005  14.292  0.00  0.00    +0.000 A 
ATOM      2  C   UNL     1      47.932   6.181  14.189  0.00  0.00    +0.000 A 
ATOM      3  C   UNL     1      48.685   6.644  15.270  0.00  0.00    +0.000 A 
ATOM      4  C   UNL     1      48.688   5.946  16.484  0.00  0.00    +0.000 A 
ATOM      5  C   UNL     1      47.901   4.794  16.604  0.00  0.00    +0.000 A 
ATOM      6  C   UNL     1      47.160   4.323  15.518  0.00  0.00    +0.000 A 
ENDROOT
BRANCH   1   7
ATOM      7  C   UNL     1      46.352   4.496  13.127  0.00  0.00    +0.000 C 
BRANCH   7   8
ATOM      8  N   UNL     1      46.081   5.560  12.156  0.00  0.00    +0.000 NA
ATOM      9  H   UNL     1      46.026   6.446  12.649  0.00  0.00    +0.000 HD
BRANCH   8  10
ATOM     10  C   UNL     1      44.834   5.362  11.393  0.00  0.00    +0.000 C 
BRANCH  10  11
ATOM     11  C   UNL     1      45.009   4.410  10.204  0.00  0.00    +0.000 A 
ATOM     12  C   UNL     1      45.634   4.846   9.039  0.00  0.00    +0.000 A 
ATOM     13  C   UNL     1      45.799   3.948   7.986  0.00  0.00    +0.000 A 
ATOM     14  C   UNL     1      45.350   2.641   8.130  0.00  0.00    +0.000 A 
ATOM     15  C   UNL     1      44.759   2.279   9.325  0.00  0.00    +0.000 A 
ATOM     16  N   UNL     1      44.581   3.125  10.359  0.00  0.00    +0.000 NA
ENDBRANCH  10  11
BRANCH  10  18
ATOM     17  C   UNL     1      42.276   5.540  11.755  0.00  0.00    +0.000 C 
ATOM     18  C   UNL     1      43.597   4.958  12.232  0.00  0.00    +0.000 C 
ENDBRANCH  10  18
ENDBRANCH   8  10
ENDBRANCH   7   8
ENDBRANCH   1   7
BRANCH   4  19
ATOM     19  C   UNL     1      49.477   6.451  17.661  0.00  0.00    +0.000 C 
BRANCH  19  20
ATOM     20  N   UNL     1      50.440   5.471  18.095  0.00  0.00    +0.000 N 
ATOM     21  C   UNL     1      51.651   5.351  17.466  0.00  0.00    +0.000 C 
ATOM     22  O   UNL     1      51.984   6.101  16.551  0.00  0.00    +0.000 OA
ATOM     23  H   UNL     1      50.103   4.722  18.691  0.00  0.00    +0.000 HD
BRANCH  21  24
ATOM     24  C   UNL     1      52.559   4.318  17.973  0.00  0.00    +0.000 A 
ATOM     25  C   UNL     1      53.748   4.696  18.585  0.00  0.00    +0.000 A 
ATOM     26  S   UNL     1      54.678   3.382  19.144  0.00  0.00    +0.000 S 
ATOM     27  C   UNL     1      53.549   2.258  18.549  0.00  0.00    +0.000 A 
ATOM     28  N   UNL     1      53.763   0.921  18.672  0.00  0.00    +0.000 NA
ATOM     29  C   UNL     1      52.841   0.183  18.153  0.00  0.00    +0.000 A 
ATOM     30  N   UNL     1      51.717   0.661  17.528  0.00  0.00    +0.000 N 
ATOM     31  C   UNL     1      51.444   2.002  17.405  0.00  0.00    +0.000 A 
ATOM     32  O   UNL     1      50.406   2.396  16.880  0.00  0.00    +0.000 OA
ATOM     33  C   UNL     1      52.463   2.876  17.953  0.00  0.00    +0.000 A 
ATOM     34  H   UNL     1      51.028   0.028  17.153  0.00  0.00    +0.000 HD
ENDBRANCH  21  24
ENDBRANCH  19  20
ENDBRANCH   4  19
TORSDOF 8
ENDMDL
MODEL 4
REMARK VINA RESULT:    -7.414      2.891      8.103
REMARK INTER + INTRA:         -11.701
REMARK INTER:                  -9.941
REMARK INTRA:                  -1.759
REMARK UNBOUND:                -0.819
REMARK  Name = 
REMARK  9 active torsions:
REMARK  status: ('A' for Active; 'I' for Inactive)
REMARK    1  A    between atoms: C_1  and  C_2
REMARK    2  A    between atoms: C_2  and  C_3
REMARK    3  A    between atoms: C_3  and  N_4
REMARK    4  A    between atoms: C_3  and  C_26
REMARK    5  A    between atoms: N_4  and  C_5
REMARK    6  A    between atoms: C_5  and  C_6
REMARK    7  A    between atoms: C_9  and  C_10
REMARK    8  A    between atoms: C_10  and  N_11
REMARK    9  A    between atoms: C_12  and  C_14
REMARK                            x       y       z     vdW  Elec       q    Type
REMARK                         _______ _______ _______ _____ _____    ______ ____
ROOT
ATOM      1  C   UNL     1      49.411   8.287  15.738  0.00  0.00    +0.000 A 
ATOM      2  C   UNL     1      48.296   9.048  15.354  0.00  0.00    +0.000 A 
ATOM      3  C   UNL     1      47.743   8.913  14.079  0.00  0.00    +0.000 A 
ATOM      4  C   UNL     1      48.300   8.022  13.154  0.00  0.00    +0.000 A 
ATOM      5  C   UNL     1      49.437   7.290  13.519  0.00  0.00    +0.000 A 
ATOM      6  C   UNL     1      49.981   7.414  14.799  0.00  0.00    +0.000 A 
ENDROOT
BRANCH   1   7
ATOM      7  C   UNL     1      50.020   8.427  17.117  0.00  0.00    +0.000 C 
BRANCH   7   8
ATOM      8  N   UNL     1      50.024   7.149  17.835  0.00  0.00    +0.000 NA
ATOM      9  H   UNL     1      50.631   6.499  17.344  0.00  0.00    +0.000 HD
BRANCH   8  10
ATOM     10  C   UNL     1      48.687   6.541  17.971  0.00  0.00    +0.000 C 
BRANCH  10  11
ATOM     11  C   UNL     1      48.649   5.077  17.521  0.00  0.00    +0.000 A 
ATOM     12  C   UNL     1      47.728   4.657  16.565  0.00  0.00    +0.000 A 
ATOM     13  C   UNL     1      47.737   3.324  16.160  0.00  0.00    +0.000 A 
ATOM     14  C   UNL     1      48.671   2.454  16.707  0.00  0.00    +0.000 A 
ATOM     15  C   UNL     1      49.567   2.951  17.634  0.00  0.00    +0.000 A 
ATOM     16  N   UNL     1      49.580   4.233  18.049  0.00  0.00    +0.000 NA
ENDBRANCH  10  11
BRANCH  10  18
ATOM     17  C   UNL     1      47.418   8.065  19.636  0.00  0.00    +0.000 C 
ATOM     18  C   UNL     1      48.023   6.698  19.361  0.00  0.00    +0.000 C 
ENDBRANCH  10  18
ENDBRANCH   8  10
ENDBRANCH   7   8
ENDBRANCH   1   7
BRANCH   4  19
ATOM     19  C   UNL     1      47.725   7.889  11.770  0.00  0.00    +0.000 C 
BRANCH  19  20
ATOM     20  N   UNL     1      47.014   6.644  11.625  0.00  0.00    +0.000 N 
ATOM     21  C   UNL     1      45.650   6.598  11.748  0.00  0.00    +0.000 C 
ATOM     22  O   UNL     1      44.980   7.611  11.931  0.00  0.00    +0.000 OA
ATOM     23  H   UNL     1      47.557   5.789  11.687  0.00  0.00    +0.000 HD
BRANCH  21  24
ATOM     24  C   UNL     1      45.018   5.283  11.594  0.00  0.00    +0.000 A 
ATOM     25  C   UNL     1      44.350   4.718  12.673  0.00  0.00    +0.000 A 
ATOM     26  S   UNL     1      43.648   3.205  12.326  0.00  0.00    +0.000 S 
ATOM     27  C   UNL     1      44.249   3.228  10.735  0.00  0.00    +0.000 A 
ATOM     28  N   UNL     1      44.028   2.187   9.890  0.00  0.00    +0.000 NA
ATOM     29  C   UNL     1      44.563   2.323   8.724  0.00  0.00    +0.000 A 
ATOM     30  N   UNL     1      45.292   3.413   8.322  0.00  0.00    +0.000 N 
ATOM     31  C   UNL     1      45.517   4.501   9.130  0.00  0.00    +0.000 A 
ATOM     32  O   UNL     1      46.136   5.481   8.724  0.00  0.00    +0.000 OA
ATOM     33  C   UNL     1      44.955   4.387  10.462  0.00  0.00    +0.000 A 
ATOM     34  H   UNL     1      45.674   3.462   7.390  0.00  0.00    +0.000 HD
ENDBRANCH  21  24
ENDBRANCH  19  20
ENDBRANCH   4  19
TORSDOF 8
ENDMDL
MODEL 5
REMARK VINA RESULT:    -7.246      3.043      5.040
REMARK INTER + INTRA:         -11.455
REMARK INTER:                 -10.050
REMARK INTRA:                  -1.405
REMARK UNBOUND:                -0.819
REMARK  Name = 
REMARK  9 active torsions:
REMARK  status: ('A' for Active; 'I' for Inactive)
REMARK    1  A    between atoms: C_1  and  C_2
REMARK    2  A    between atoms: C_2  and  C_3
REMARK    3  A    between atoms: C_3  and  N_4
REMARK    4  A    between atoms: C_3  and  C_26
REMARK    5  A    between atoms: N_4  and  C_5
REMARK    6  A    between atoms: C_5  and  C_6
REMARK    7  A    between atoms: C_9  and  C_10
REMARK    8  A    between atoms: C_10  and  N_11
REMARK    9  A    between atoms: C_12  and  C_14
REMARK                            x       y       z     vdW  Elec       q    Type
REMARK                         _______ _______ _______ _____ _____    ______ ____
ROOT
ATOM      1  C   UNL     1      47.534   6.181  14.034  0.00  0.00    +0.000 A 
ATOM      2  C   UNL     1      48.291   6.516  15.168  0.00  0.00    +0.000 A 
ATOM      3  C   UNL     1      48.418   5.621  16.232  0.00  0.00    +0.000 A 
ATOM      4  C   UNL     1      47.782   4.375  16.193  0.00  0.00    +0.000 A 
ATOM      5  C   UNL     1      46.993   4.053  15.081  0.00  0.00    +0.000 A 
ATOM      6  C   UNL     1      46.878   4.942  14.010  0.00  0.00    +0.000 A 
ENDROOT
BRANCH   1   7
ATOM      7  C   UNL     1      47.387   7.145  12.875  0.00  0.00    +0.000 C 
BRANCH   7   8
ATOM      8  N   UNL     1      47.287   6.435  11.596  0.00  0.00    +0.000 NA
ATOM      9  H   UNL     1      48.024   6.764  10.980  0.00  0.00    +0.000 HD
BRANCH   8  10
ATOM     10  C   UNL     1      45.987   6.612  10.921  0.00  0.00    +0.000 C 
BRANCH  10  11
ATOM     11  C   UNL     1      45.477   5.325  10.265  0.00  0.00    +0.000 A 
ATOM     12  C   UNL     1      44.674   4.440  10.979  0.00  0.00    +0.000 A 
ATOM     13  C   UNL     1      44.207   3.290  10.344  0.00  0.00    +0.000 A 
ATOM     14  C   UNL     1      44.542   3.064   9.015  0.00  0.00    +0.000 A 
ATOM     15  C   UNL     1      45.325   4.000   8.367  0.00  0.00    +0.000 A 
ATOM     16  N   UNL     1      45.795   5.118   8.955  0.00  0.00    +0.000 NA
ENDBRANCH  10  11
BRANCH  10  18
ATOM     17  C   UNL     1      44.429   8.640  11.327  0.00  0.00    +0.000 C 
ATOM     18  C   UNL     1      44.873   7.259  11.781  0.00  0.00    +0.000 C 
ENDBRANCH  10  18
ENDBRANCH   8  10
ENDBRANCH   7   8
ENDBRANCH   1   7
BRANCH   4  19
ATOM     19  C   UNL     1      47.894   3.416  17.346  0.00  0.00    +0.000 C 
BRANCH  19  20
ATOM     20  N   UNL     1      49.274   3.194  17.699  0.00  0.00    +0.000 N 
ATOM     21  C   UNL     1      50.040   2.298  17.001  0.00  0.00    +0.000 C 
ATOM     22  O   UNL     1      49.605   1.693  16.024  0.00  0.00    +0.000 OA
ATOM     23  H   UNL     1      49.576   3.516  18.612  0.00  0.00    +0.000 HD
BRANCH  21  24
ATOM     24  C   UNL     1      51.430   2.134  17.442  0.00  0.00    +0.000 A 
ATOM     25  C   UNL     1      51.936   0.855  17.635  0.00  0.00    +0.000 A 
ATOM     26  S   UNL     1      53.570   0.833  18.120  0.00  0.00    +0.000 S 
ATOM     27  C   UNL     1      53.646   2.531  18.135  0.00  0.00    +0.000 A 
ATOM     28  N   UNL     1      54.785   3.175  18.503  0.00  0.00    +0.000 NA
ATOM     29  C   UNL     1      54.697   4.463  18.496  0.00  0.00    +0.000 A 
ATOM     30  N   UNL     1      53.572   5.166  18.144  0.00  0.00    +0.000 N 
ATOM     31  C   UNL     1      52.408   4.560  17.737  0.00  0.00    +0.000 A 
ATOM     32  O   UNL     1      51.435   5.219  17.385  0.00  0.00    +0.000 OA
ATOM     33  C   UNL     1      52.449   3.111  17.750  0.00  0.00    +0.000 A 
ATOM     34  H   UNL     1      53.573   6.174  18.148  0.00  0.00    +0.000 HD
ENDBRANCH  21  24
ENDBRANCH  19  20
ENDBRANCH   4  19
TORSDOF 8
ENDMDL
MODEL 6
REMARK VINA RESULT:    -6.935      3.814      5.312
REMARK INTER + INTRA:         -10.997
REMARK INTER:                 -10.099
REMARK INTRA:                  -0.898
REMARK UNBOUND:                -0.819
REMARK  Name = 
REMARK  9 active torsions:
REMARK  status: ('A' for Active; 'I' for Inactive)
REMARK    1  A    between atoms: C_1  and  C_2
REMARK    2  A    between atoms: C_2  and  C_3
REMARK    3  A    between atoms: C_3  and  N_4
REMARK    4  A    between atoms: C_3  and  C_26
REMARK    5  A    between atoms: N_4  and  C_5
REMARK    6  A    between atoms: C_5  and  C_6
REMARK    7  A    between atoms: C_9  and  C_10
REMARK    8  A    between atoms: C_10  and  N_11
REMARK    9  A    between atoms: C_12  and  C_14
REMARK                            x       y       z     vdW  Elec       q    Type
REMARK                         _______ _______ _______ _____ _____    ______ ____
ROOT
ATOM      1  C   UNL     1      46.041   6.121  11.799  0.00  0.00    +0.000 A 
ATOM      2  C   UNL     1      46.185   5.513  13.055  0.00  0.00    +0.000 A 
ATOM      3  C   UNL     1      47.276   5.814  13.874  0.00  0.00    +0.000 A 
ATOM      4  C   UNL     1      48.254   6.721  13.449  0.00  0.00    +0.000 A 
ATOM      5  C   UNL     1      48.135   7.299  12.179  0.00  0.00    +0.000 A 
ATOM      6  C   UNL     1      47.036   7.010  11.366  0.00  0.00    +0.000 A 
ENDROOT
BRANCH   1   7
ATOM      7  C   UNL     1      44.863   5.800  10.902  0.00  0.00    +0.000 C 
BRANCH   7   8
ATOM      8  N   UNL     1      45.296   5.154   9.659  0.00  0.00    +0.000 NA
ATOM      9  H   UNL     1      44.940   5.688   8.871  0.00  0.00    +0.000 HD
BRANCH   8  10
ATOM     10  C   UNL     1      44.845   3.756   9.530  0.00  0.00    +0.000 C 
BRANCH  10  11
ATOM     11  C   UNL     1      45.631   2.971   8.475  0.00  0.00    +0.000 A 
ATOM     12  C   UNL     1      46.129   3.615   7.345  0.00  0.00    +0.000 A 
ATOM     13  C   UNL     1      46.861   2.877   6.416  0.00  0.00    +0.000 A 
ATOM     14  C   UNL     1      47.088   1.526   6.648  0.00  0.00    +0.000 A 
ATOM     15  C   UNL     1      46.580   0.965   7.804  0.00  0.00    +0.000 A 
ATOM     16  N   UNL     1      45.865   1.650   8.717  0.00  0.00    +0.000 NA
ENDBRANCH  10  11
BRANCH  10  18
ATOM     17  C   UNL     1      43.370   2.783  11.423  0.00  0.00    +0.000 C 
ATOM     18  C   UNL     1      44.769   2.957  10.854  0.00  0.00    +0.000 C 
ENDBRANCH  10  18
ENDBRANCH   8  10
ENDBRANCH   7   8
ENDBRANCH   1   7
BRANCH   4  19
ATOM     19  C   UNL     1      49.445   7.032  14.314  0.00  0.00    +0.000 C 
BRANCH  19  20
ATOM     20  N   UNL     1      50.481   7.681  13.551  0.00  0.00    +0.000 N 
ATOM     21  C   UNL     1      50.585   9.047  13.531  0.00  0.00    +0.000 C 
ATOM     22  O   UNL     1      49.843   9.765  14.197  0.00  0.00    +0.000 OA
ATOM     23  H   UNL     1      50.953   7.127  12.845  0.00  0.00    +0.000 HD
BRANCH  21  24
ATOM     24  C   UNL     1      51.666   9.614  12.718  0.00  0.00    +0.000 A 
ATOM     25  C   UNL     1      52.316  10.761  13.154  0.00  0.00    +0.000 A 
ATOM     26  S   UNL     1      53.563  11.278  12.114  0.00  0.00    +0.000 S 
ATOM     27  C   UNL     1      53.249  10.014  11.020  0.00  0.00    +0.000 A 
ATOM     28  N   UNL     1      53.961   9.897   9.867  0.00  0.00    +0.000 NA
ATOM     29  C   UNL     1      53.601   8.911   9.117  0.00  0.00    +0.000 A 
ATOM     30  N   UNL     1      52.598   8.025   9.419  0.00  0.00    +0.000 N 
ATOM     31  C   UNL     1      51.872   8.086  10.584  0.00  0.00    +0.000 A 
ATOM     32  O   UNL     1      51.012   7.250  10.845  0.00  0.00    +0.000 OA
ATOM     33  C   UNL     1      52.223   9.193  11.453  0.00  0.00    +0.000 A 
ATOM     34  H   UNL     1      52.374   7.267   8.793  0.00  0.00    +0.000 HD
ENDBRANCH  21  24
ENDBRANCH  19  20
ENDBRANCH   4  19
TORSDOF 8
ENDMDL
MODEL 7
REMARK VINA RESULT:    -6.902      3.633      8.709
REMARK INTER + INTRA:         -10.950
REMARK INTER:                  -9.448
REMARK INTRA:                  -1.501
REMARK UNBOUND:                -0.819
REMARK  Name = 
REMARK  9 active torsions:
REMARK  status: ('A' for Active; 'I' for Inactive)
REMARK    1  A    between atoms: C_1  and  C_2
REMARK    2  A    between atoms: C_2  and  C_3
REMARK    3  A    between atoms: C_3  and  N_4
REMARK    4  A    between atoms: C_3  and  C_26
REMARK    5  A    between atoms: N_4  and  C_5
REMARK    6  A    between atoms: C_5  and  C_6
REMARK    7  A    between atoms: C_9  and  C_10
REMARK    8  A    between atoms: C_10  and  N_11
REMARK    9  A    between atoms: C_12  and  C_14
REMARK                            x       y       z     vdW  Elec       q    Type
REMARK                         _______ _______ _______ _____ _____    ______ ____
ROOT
ATOM      1  C   UNL     1      50.979   5.770  17.827  0.00  0.00    +0.000 A 
ATOM      2  C   UNL     1      49.620   6.034  18.060  0.00  0.00    +0.000 A 
ATOM      3  C   UNL     1      48.857   6.729  17.120  0.00  0.00    +0.000 A 
ATOM      4  C   UNL     1      49.436   7.187  15.931  0.00  0.00    +0.000 A 
ATOM      5  C   UNL     1      50.802   6.961  15.713  0.00  0.00    +0.000 A 
ATOM      6  C   UNL     1      51.562   6.253  16.646  0.00  0.00    +0.000 A 
ENDROOT
BRANCH   1   7
ATOM      7  C   UNL     1      51.818   5.019  18.840  0.00  0.00    +0.000 C 
BRANCH   7   8
ATOM      8  N   UNL     1      51.421   3.611  18.928  0.00  0.00    +0.000 NA
ATOM      9  H   UNL     1      51.927   3.175  19.692  0.00  0.00    +0.000 HD
BRANCH   8  10
ATOM     10  C   UNL     1      51.673   2.846  17.691  0.00  0.00    +0.000 C 
BRANCH  10  11
ATOM     11  C   UNL     1      52.890   1.922  17.801  0.00  0.00    +0.000 A 
ATOM     12  C   UNL     1      54.177   2.433  17.659  0.00  0.00    +0.000 A 
ATOM     13  C   UNL     1      55.263   1.569  17.789  0.00  0.00    +0.000 A 
ATOM     14  C   UNL     1      55.035   0.228  18.070  0.00  0.00    +0.000 A 
ATOM     15  C   UNL     1      53.730  -0.198  18.219  0.00  0.00    +0.000 A 
ATOM     16  N   UNL     1      52.659   0.611  18.095  0.00  0.00    +0.000 NA
ENDBRANCH  10  11
BRANCH  10  18
ATOM     17  C   UNL     1      49.099   2.664  17.479  0.00  0.00    +0.000 C 
ATOM     18  C   UNL     1      50.455   2.074  17.127  0.00  0.00    +0.000 C 
ENDBRANCH  10  18
ENDBRANCH   8  10
ENDBRANCH   7   8
ENDBRANCH   1   7
BRANCH   4  19
ATOM     19  C   UNL     1      48.626   7.958  14.925  0.00  0.00    +0.000 C 
BRANCH  19  20
ATOM     20  N   UNL     1      47.537   7.161  14.421  0.00  0.00    +0.000 N 
ATOM     21  C   UNL     1      47.732   6.279  13.390  0.00  0.00    +0.000 C 
ATOM     22  O   UNL     1      48.841   6.095  12.894  0.00  0.00    +0.000 OA
ATOM     23  H   UNL     1      46.597   7.450  14.668  0.00  0.00    +0.000 HD
BRANCH  21  24
ATOM     24  C   UNL     1      46.560   5.520  12.940  0.00  0.00    +0.000 A 
ATOM     25  C   UNL     1      46.555   4.137  13.065  0.00  0.00    +0.000 A 
ATOM     26  S   UNL     1      45.115   3.406  12.523  0.00  0.00    +0.000 S 
ATOM     27  C   UNL     1      44.463   4.907  12.059  0.00  0.00    +0.000 A 
ATOM     28  N   UNL     1      43.236   4.986  11.479  0.00  0.00    +0.000 NA
ATOM     29  C   UNL     1      42.876   6.181  11.153  0.00  0.00    +0.000 A 
ATOM     30  N   UNL     1      43.629   7.308  11.362  0.00  0.00    +0.000 N 
ATOM     31  C   UNL     1      44.861   7.282  11.971  0.00  0.00    +0.000 A 
ATOM     32  O   UNL     1      45.489   8.314  12.184  0.00  0.00    +0.000 OA
ATOM     33  C   UNL     1      45.322   5.957  12.336  0.00  0.00    +0.000 A 
ATOM     34  H   UNL     1      43.283   8.216  11.094  0.00  0.00    +0.000 HD
ENDBRANCH  21  24
ENDBRANCH  19  20
ENDBRANCH   4  19
TORSDOF 8
ENDMDL
MODEL 8
REMARK VINA RESULT:    -6.691      3.426      8.182
REMARK INTER + INTRA:         -10.640
REMARK INTER:                  -8.916
REMARK INTRA:                  -1.724
REMARK UNBOUND:                -0.819
REMARK  Name = 
REMARK  9 active torsions:
REMARK  status: ('A' for Active; 'I' for Inactive)
REMARK    1  A    between atoms: C_1  and  C_2
REMARK    2  A    between atoms: C_2  and  C_3
REMARK    3  A    between atoms: C_3  and  N_4
REMARK    4  A    between atoms: C_3  and  C_26
REMARK    5  A    between atoms: N_4  and  C_5
REMARK    6  A    between atoms: C_5  and  C_6
REMARK    7  A    between atoms: C_9  and  C_10
REMARK    8  A    between atoms: C_10  and  N_11
REMARK    9  A    between atoms: C_12  and  C_14
REMARK                            x       y       z     vdW  Elec       q    Type
REMARK                         _______ _______ _______ _____ _____    ______ ____
ROOT
ATOM      1  C   UNL     1      49.182   7.884  17.855  0.00  0.00    +0.000 A 
ATOM      2  C   UNL     1      48.379   9.016  17.646  0.00  0.00    +0.000 A 
ATOM      3  C   UNL     1      47.950   9.360  16.362  0.00  0.00    +0.000 A 
ATOM      4  C   UNL     1      48.322   8.587  15.257  0.00  0.00    +0.000 A 
ATOM      5  C   UNL     1      49.156   7.479  15.456  0.00  0.00    +0.000 A 
ATOM      6  C   UNL     1      49.574   7.126  16.741  0.00  0.00    +0.000 A 
ENDROOT
BRANCH   1   7
ATOM      7  C   UNL     1      49.656   7.503  19.242  0.00  0.00    +0.000 C 
BRANCH   7   8
ATOM      8  N   UNL     1      48.884   6.380  19.784  0.00  0.00    +0.000 NA
ATOM      9  H   UNL     1      48.619   6.596  20.740  0.00  0.00    +0.000 HD
BRANCH   8  10
ATOM     10  C   UNL     1      49.613   5.098  19.769  0.00  0.00    +0.000 C 
BRANCH  10  11
ATOM     11  C   UNL     1      49.188   4.185  18.614  0.00  0.00    +0.000 A 
ATOM     12  C   UNL     1      50.111   3.335  18.011  0.00  0.00    +0.000 A 
ATOM     13  C   UNL     1      49.685   2.500  16.979  0.00  0.00    +0.000 A 
ATOM     14  C   UNL     1      48.352   2.526  16.590  0.00  0.00    +0.000 A 
ATOM     15  C   UNL     1      47.492   3.381  17.251  0.00  0.00    +0.000 A 
ATOM     16  N   UNL     1      47.875   4.204  18.248  0.00  0.00    +0.000 NA
ENDBRANCH  10  11
BRANCH  10  18
ATOM     17  C   UNL     1      51.783   4.751  21.137  0.00  0.00    +0.000 C 
ATOM     18  C   UNL     1      51.156   5.209  19.830  0.00  0.00    +0.000 C 
ENDBRANCH  10  18
ENDBRANCH   8  10
ENDBRANCH   7   8
ENDBRANCH   1   7
BRANCH   4  19
ATOM     19  C   UNL     1      47.884   8.965  13.869  0.00  0.00    +0.000 C 
BRANCH  19  20
ATOM     20  N   UNL     1      46.707   8.229  13.481  0.00  0.00    +0.000 N 
ATOM     21  C   UNL     1      46.760   7.302  12.473  0.00  0.00    +0.000 C 
ATOM     22  O   UNL     1      47.812   7.025  11.901  0.00  0.00    +0.000 OA
ATOM     23  H   UNL     1      45.811   8.591  13.789  0.00  0.00    +0.000 HD
BRANCH  21  24
ATOM     24  C   UNL     1      45.509   6.612  12.145  0.00  0.00    +0.000 A 
ATOM     25  C   UNL     1      44.448   7.338  11.620  0.00  0.00    +0.000 A 
ATOM     26  S   UNL     1      43.077   6.389  11.266  0.00  0.00    +0.000 S 
ATOM     27  C   UNL     1      43.835   4.980  11.844  0.00  0.00    +0.000 A 
ATOM     28  N   UNL     1      43.180   3.790  11.856  0.00  0.00    +0.000 NA
ATOM     29  C   UNL     1      43.861   2.810  12.345  0.00  0.00    +0.000 A 
ATOM     30  N   UNL     1      45.146   2.912  12.817  0.00  0.00    +0.000 N 
ATOM     31  C   UNL     1      45.858   4.086  12.799  0.00  0.00    +0.000 A 
ATOM     32  O   UNL     1      47.022   4.132  13.187  0.00  0.00    +0.000 OA
ATOM     33  C   UNL     1      45.127   5.224  12.279  0.00  0.00    +0.000 A 
ATOM     34  H   UNL     1      45.628   2.102  13.177  0.00  0.00    +0.000 HD
ENDBRANCH  21  24
ENDBRANCH  19  20
ENDBRANCH   4  19
TORSDOF 8
ENDMDL
MODEL 9
REMARK VINA RESULT:    -6.615      5.088      6.540
REMARK INTER + INTRA:         -10.528
REMARK INTER:                  -9.237
REMARK INTRA:                  -1.291
REMARK UNBOUND:                -0.819
REMARK  Name = 
REMARK  9 active torsions:
REMARK  status: ('A' for Active; 'I' for Inactive)
REMARK    1  A    between atoms: C_1  and  C_2
REMARK    2  A    between atoms: C_2  and  C_3
REMARK    3  A    between atoms: C_3  and  N_4
REMARK    4  A    between atoms: C_3  and  C_26
REMARK    5  A    between atoms: N_4  and  C_5
REMARK    6  A    between atoms: C_5  and  C_6
REMARK    7  A    between atoms: C_9  and  C_10
REMARK    8  A    between atoms: C_10  and  N_11
REMARK    9  A    between atoms: C_12  and  C_14
REMARK                            x       y       z     vdW  Elec       q    Type
REMARK                         _______ _______ _______ _____ _____    ______ ____
ROOT
ATOM      1  C   UNL     1      46.428   6.343  12.345  0.00  0.00    +0.000 A 
ATOM      2  C   UNL     1      47.161   6.172  13.530  0.00  0.00    +0.000 A 
ATOM      3  C   UNL     1      48.436   6.723  13.667  0.00  0.00    +0.000 A 
ATOM      4  C   UNL     1      49.014   7.449  12.619  0.00  0.00    +0.000 A 
ATOM      5  C   UNL     1      48.303   7.587  11.420  0.00  0.00    +0.000 A 
ATOM      6  C   UNL     1      47.021   7.048  11.287  0.00  0.00    +0.000 A 
ENDROOT
BRANCH   1   7
ATOM      7  C   UNL     1      45.045   5.746  12.184  0.00  0.00    +0.000 C 
BRANCH   7   8
ATOM      8  N   UNL     1      44.733   5.488  10.775  0.00  0.00    +0.000 NA
ATOM      9  H   UNL     1      43.924   6.043  10.512  0.00  0.00    +0.000 HD
BRANCH   8  10
ATOM     10  C   UNL     1      44.454   4.069  10.481  0.00  0.00    +0.000 C 
BRANCH  10  11
ATOM     11  C   UNL     1      45.249   3.543   9.281  0.00  0.00    +0.000 A 
ATOM     12  C   UNL     1      45.826   4.429   8.375  0.00  0.00    +0.000 A 
ATOM     13  C   UNL     1      46.564   3.917   7.309  0.00  0.00    +0.000 A 
ATOM     14  C   UNL     1      46.716   2.542   7.185  0.00  0.00    +0.000 A 
ATOM     15  C   UNL     1      46.131   1.729   8.137  0.00  0.00    +0.000 A 
ATOM     16  N   UNL     1      45.408   2.193   9.176  0.00  0.00    +0.000 NA
ENDBRANCH  10  11
BRANCH  10  18
ATOM     17  C   UNL     1      43.297   2.404  12.090  0.00  0.00    +0.000 C 
ATOM     18  C   UNL     1      44.584   3.103  11.683  0.00  0.00    +0.000 C 
ENDBRANCH  10  18
ENDBRANCH   8  10
ENDBRANCH   7   8
ENDBRANCH   1   7
BRANCH   4  19
ATOM     19  C   UNL     1      50.397   8.025  12.750  0.00  0.00    +0.000 C 
BRANCH  19  20
ATOM     20  N   UNL     1      50.977   8.273  11.455  0.00  0.00    +0.000 N 
ATOM     21  C   UNL     1      52.337   8.295  11.288  0.00  0.00    +0.000 C 
ATOM     22  O   UNL     1      53.108   8.055  12.214  0.00  0.00    +0.000 OA
ATOM     23  H   UNL     1      50.373   8.675  10.745  0.00  0.00    +0.000 HD
BRANCH  21  24
ATOM     24  C   UNL     1      52.832   8.566   9.934  0.00  0.00    +0.000 A 
ATOM     25  C   UNL     1      52.763   9.858   9.429  0.00  0.00    +0.000 A 
ATOM     26  S   UNL     1      53.402  10.013   7.857  0.00  0.00    +0.000 S 
ATOM     27  C   UNL     1      53.753   8.351   7.776  0.00  0.00    +0.000 A 
ATOM     28  N   UNL     1      54.297   7.806   6.656  0.00  0.00    +0.000 NA
ATOM     29  C   UNL     1      54.486   6.532   6.719  0.00  0.00    +0.000 A 
ATOM     30  N   UNL     1      54.187   5.752   7.808  0.00  0.00    +0.000 N 
ATOM     31  C   UNL     1      53.663   6.261   8.971  0.00  0.00    +0.000 A 
ATOM     32  O   UNL     1      53.449   5.542   9.943  0.00  0.00    +0.000 OA
ATOM     33  C   UNL     1      53.410   7.688   8.942  0.00  0.00    +0.000 A 
ATOM     34  H   UNL     1      54.371   4.760   7.797  0.00  0.00    +0.000 HD
ENDBRANCH  21  24
ENDBRANCH  19  20
ENDBRANCH   4  19
TORSDOF 8
ENDMDL
