MODEL 1
REMARK VINA RESULT:    -8.440      0.000      0.000
REMARK INTER + INTRA:         -11.524
REMARK INTER:                 -10.907
REMARK INTRA:                  -0.617
REMARK UNBOUND:                -0.617
REMARK  Name = 
REMARK  9 active torsions:
REMARK  status: ('A' for Active; 'I' for Inactive)
REMARK    1  A    between atoms: C_1  and  C_2
REMARK    2  A    between atoms: N_4  and  C_5
REMARK    3  A    between atoms: C_9  and  C_10
REMARK    4  A    between atoms: C_10  and  C_11
REMARK    5  A    between atoms: C_10  and  C_12
REMARK    6  A    between atoms: C_10  and  C_13
REMARK    7  A    between atoms: C_13  and  N_14
REMARK    8  A    between atoms: C_18  and  C_19
REMARK    9  A    between atoms: C_26  and  C_27
REMARK                            x       y       z     vdW  Elec       q    Type
REMARK                         _______ _______ _______ _____ _____    ______ ____
ROOT
ATOM      1  C   UNL     1      44.067   4.545  12.278  0.00  0.00    +0.000 C 
ATOM      2  C   UNL     1      45.110   3.414  12.477  0.00  0.00    +0.000 C 
ATOM      3  C   UNL     1      43.113   4.579  13.492  0.00  0.00    +0.000 C 
ENDROOT
BRANCH   1   8
ATOM      4  C   UNL     1      47.015   7.069  12.173  0.00  0.00    +0.000 A 
ATOM      5  C   UNL     1      46.345   8.235  11.790  0.00  0.00    +0.000 A 
ATOM      6  C   UNL     1      44.962   8.259  11.623  0.00  0.00    +0.000 A 
ATOM      7  C   UNL     1      44.213   7.098  11.807  0.00  0.00    +0.000 A 
ATOM      8  C   UNL     1      44.829   5.892  12.174  0.00  0.00    +0.000 A 
ATOM      9  C   UNL     1      46.225   5.928  12.391  0.00  0.00    +0.000 A 
BRANCH   4  13
ATOM     10  C   UNL     1      49.149  10.149  12.378  0.00  0.00    +0.000 C 
ATOM     11  C   UNL     1      50.029   8.925  12.136  0.00  0.00    +0.000 C 
ATOM     12  C   UNL     1      49.296   7.774  11.418  0.00  0.00    +0.000 C 
ATOM     13  N   UNL     1      48.386   7.063  12.324  0.00  0.00    +0.000 N 
ATOM     14  C   UNL     1      48.997   6.656  13.602  0.00  0.00    +0.000 C 
ATOM     15  C   UNL     1      49.725   7.850  14.259  0.00  0.00    +0.000 C 
ATOM     16  C   UNL     1      50.519   7.387  15.476  0.00  0.00    +0.000 C 
ATOM     17  O   UNL     1      50.653   8.480  13.356  0.00  0.00    +0.000 OA
ENDBRANCH   4  13
ENDBRANCH   1   8
BRANCH   1  18
ATOM     18  C   UNL     1      43.252   4.246  10.980  0.00  0.00    +0.000 C 
BRANCH  18  19
ATOM     19  N   UNL     1      43.848   4.771   9.757  0.00  0.00    +0.000 N 
ATOM     20  C   UNL     1      44.782   3.994   9.083  0.00  0.00    +0.000 A 
ATOM     21  C   UNL     1      44.766   2.595   9.038  0.00  0.00    +0.000 A 
ATOM     22  N   UNL     1      45.646   1.837   8.332  0.00  0.00    +0.000 NA
ATOM     23  C   UNL     1      46.554   2.555   7.622  0.00  0.00    +0.000 A 
ATOM     24  C   UNL     1      46.584   3.940   7.650  0.00  0.00    +0.000 A 
ATOM     25  N   UNL     1      45.707   4.682   8.383  0.00  0.00    +0.000 NA
ATOM     26  H   UNL     1      44.214   5.721   9.786  0.00  0.00    +0.000 HD
BRANCH  23  27
ATOM     27  C   UNL     1      47.531   1.806   6.789  0.00  0.00    +0.000 C 
ATOM     28  N   UNL     1      48.611   2.517   6.340  0.00  0.00    +0.000 N 
ATOM     29  O   UNL     1      47.386   0.622   6.522  0.00  0.00    +0.000 OA
ATOM     30  H   UNL     1      48.725   3.494   6.586  0.00  0.00    +0.000 HD
ATOM     31  H   UNL     1      49.316   2.049   5.790  0.00  0.00    +0.000 HD
ENDBRANCH  23  27
ENDBRANCH  18  19
ENDBRANCH   1  18
TORSDOF 5
ENDMDL
MODEL 2
REMARK VINA RESULT:    -7.611      3.205      7.740
REMARK INTER + INTRA:         -10.452
REMARK INTER:                  -9.449
REMARK INTRA:                  -1.003
REMARK UNBOUND:                -0.617
REMARK  Name = 
REMARK  9 active torsions:
REMARK  status: ('A' for Active; 'I' for Inactive)
REMARK    1  A    between atoms: C_1  and  C_2
REMARK    2  A    between atoms: N_4  and  C_5
REMARK    3  A    between atoms: C_9  and  C_10
REMARK    4  A    between atoms: C_10  and  C_11
REMARK    5  A    between atoms: C_10  and  C_12
REMARK    6  A    between atoms: C_10  and  C_13
REMARK    7  A    between atoms: C_13  and  N_14
REMARK    8  A    between atoms: C_18  and  C_19
REMARK    9  A    between atoms: C_26  and  C_27
REMARK                            x       y       z     vdW  Elec       q    Type
REMARK                         _______ _______ _______ _____ _____    ______ ____
ROOT
ATOM      1  C   UNL     1      49.082   8.628  12.571  0.00  0.00    +0.000 C 
ATOM      2  C   UNL     1      49.953   7.492  11.976  0.00  0.00    +0.000 C 
ATOM      3  C   UNL     1      49.509   9.976  11.950  0.00  0.00    +0.000 C 
ENDROOT
BRANCH   1   8
ATOM      4  C   UNL     1      45.847   6.635  11.774  0.00  0.00    +0.000 A 
ATOM      5  C   UNL     1      44.898   7.662  11.792  0.00  0.00    +0.000 A 
ATOM      6  C   UNL     1      45.267   8.991  11.988  0.00  0.00    +0.000 A 
ATOM      7  C   UNL     1      46.603   9.324  12.206  0.00  0.00    +0.000 A 
ATOM      8  C   UNL     1      47.599   8.336  12.219  0.00  0.00    +0.000 A 
ATOM      9  C   UNL     1      47.189   7.010  11.954  0.00  0.00    +0.000 A 
BRANCH   4  13
ATOM     10  C   UNL     1      42.286   5.454  11.703  0.00  0.00    +0.000 C 
ATOM     11  C   UNL     1      43.225   4.258  11.847  0.00  0.00    +0.000 C 
ATOM     12  C   UNL     1      44.571   4.611  12.512  0.00  0.00    +0.000 C 
ATOM     13  N   UNL     1      45.461   5.324  11.588  0.00  0.00    +0.000 N 
ATOM     14  C   UNL     1      45.614   4.679  10.272  0.00  0.00    +0.000 C 
ATOM     15  C   UNL     1      44.232   4.340   9.670  0.00  0.00    +0.000 C 
ATOM     16  C   UNL     1      44.390   3.501   8.407  0.00  0.00    +0.000 C 
ATOM     17  O   UNL     1      43.414   3.587  10.586  0.00  0.00    +0.000 OA
ENDBRANCH   4  13
ENDBRANCH   1   8
BRANCH   1  18
ATOM     18  C   UNL     1      49.306   8.670  14.116  0.00  0.00    +0.000 C 
BRANCH  18  19
ATOM     19  N   UNL     1      50.100   7.566  14.641  0.00  0.00    +0.000 N 
ATOM     20  C   UNL     1      49.476   6.613  15.436  0.00  0.00    +0.000 A 
ATOM     21  C   UNL     1      48.143   6.208  15.292  0.00  0.00    +0.000 A 
ATOM     22  N   UNL     1      47.548   5.235  16.031  0.00  0.00    +0.000 NA
ATOM     23  C   UNL     1      48.372   4.639  16.931  0.00  0.00    +0.000 A 
ATOM     24  C   UNL     1      49.694   5.022  17.087  0.00  0.00    +0.000 A 
ATOM     25  N   UNL     1      50.266   6.016  16.351  0.00  0.00    +0.000 NA
ATOM     26  H   UNL     1      50.983   7.799  15.092  0.00  0.00    +0.000 HD
BRANCH  23  27
ATOM     27  C   UNL     1      47.814   3.536  17.756  0.00  0.00    +0.000 C 
ATOM     28  N   UNL     1      48.493   3.241  18.908  0.00  0.00    +0.000 N 
ATOM     29  O   UNL     1      46.804   2.928  17.433  0.00  0.00    +0.000 OA
ATOM     30  H   UNL     1      49.319   3.768  19.170  0.00  0.00    +0.000 HD
ATOM     31  H   UNL     1      48.142   2.516  19.516  0.00  0.00    +0.000 HD
ENDBRANCH  23  27
ENDBRANCH  18  19
ENDBRANCH   1  18
TORSDOF 5
ENDMDL
MODEL 3
REMARK VINA RESULT:    -7.271      3.499      6.217
REMARK INTER + INTRA:         -10.013
REMARK INTER:                  -8.977
REMARK INTRA:                  -1.036
REMARK UNBOUND:                -0.617
REMARK  Name = 
REMARK  9 active torsions:
REMARK  status: ('A' for Active; 'I' for Inactive)
REMARK    1  A    between atoms: C_1  and  C_2
REMARK    2  A    between atoms: N_4  and  C_5
REMARK    3  A    between atoms: C_9  and  C_10
REMARK    4  A    between atoms: C_10  and  C_11
REMARK    5  A    between atoms: C_10  and  C_12
REMARK    6  A    between atoms: C_10  and  C_13
REMARK    7  A    between atoms: C_13  and  N_14
REMARK    8  A    between atoms: C_18  and  C_19
REMARK    9  A    between atoms: C_26  and  C_27
REMARK                            x       y       z     vdW  Elec       q    Type
REMARK                         _______ _______ _______ _____ _____    ______ ____
ROOT
ATOM      1  C   UNL     1      48.895   8.390  13.160  0.00  0.00    +0.000 C 
ATOM      2  C   UNL     1      49.382   9.861  13.097  0.00  0.00    +0.000 C 
ATOM      3  C   UNL     1      49.358   7.645  11.889  0.00  0.00    +0.000 C 
ENDROOT
BRANCH   1   8
ATOM      4  C   UNL     1      49.219   6.206  16.352  0.00  0.00    +0.000 A 
ATOM      5  C   UNL     1      50.595   6.292  16.587  0.00  0.00    +0.000 A 
ATOM      6  C   UNL     1      51.421   7.082  15.791  0.00  0.00    +0.000 A 
ATOM      7  C   UNL     1      50.892   7.787  14.712  0.00  0.00    +0.000 A 
ATOM      8  C   UNL     1      49.522   7.726  14.413  0.00  0.00    +0.000 A 
ATOM      9  C   UNL     1      48.712   6.961  15.282  0.00  0.00    +0.000 A 
BRANCH   4  13
ATOM     10  C   UNL     1      49.911   2.602  17.139  0.00  0.00    +0.000 C 
ATOM     11  C   UNL     1      48.474   2.948  17.521  0.00  0.00    +0.000 C 
ATOM     12  C   UNL     1      47.885   4.116  16.703  0.00  0.00    +0.000 C 
ATOM     13  N   UNL     1      48.419   5.410  17.145  0.00  0.00    +0.000 N 
ATOM     14  C   UNL     1      48.354   5.629  18.601  0.00  0.00    +0.000 C 
ATOM     15  C   UNL     1      48.946   4.419  19.358  0.00  0.00    +0.000 C 
ATOM     16  C   UNL     1      48.703   4.556  20.857  0.00  0.00    +0.000 C 
ATOM     17  O   UNL     1      48.351   3.176  18.939  0.00  0.00    +0.000 OA
ENDBRANCH   4  13
ENDBRANCH   1   8
BRANCH   1  18
ATOM     18  C   UNL     1      47.335   8.386  13.229  0.00  0.00    +0.000 C 
BRANCH  18  19
ATOM     19  N   UNL     1      46.676   7.997  11.988  0.00  0.00    +0.000 N 
ATOM     20  C   UNL     1      46.041   6.763  11.927  0.00  0.00    +0.000 A 
ATOM     21  C   UNL     1      45.411   6.139  13.010  0.00  0.00    +0.000 A 
ATOM     22  N   UNL     1      44.741   4.959  12.939  0.00  0.00    +0.000 NA
ATOM     23  C   UNL     1      44.695   4.422  11.692  0.00  0.00    +0.000 A 
ATOM     24  C   UNL     1      45.308   5.024  10.606  0.00  0.00    +0.000 A 
ATOM     25  N   UNL     1      45.996   6.197  10.703  0.00  0.00    +0.000 NA
ATOM     26  H   UNL     1      47.205   8.104  11.124  0.00  0.00    +0.000 HD
BRANCH  23  27
ATOM     27  C   UNL     1      43.948   3.149  11.514  0.00  0.00    +0.000 C 
ATOM     28  N   UNL     1      43.765   2.394  12.643  0.00  0.00    +0.000 N 
ATOM     29  O   UNL     1      43.514   2.795  10.428  0.00  0.00    +0.000 OA
ATOM     30  H   UNL     1      44.116   2.712  13.539  0.00  0.00    +0.000 HD
ATOM     31  H   UNL     1      43.243   1.532  12.580  0.00  0.00    +0.000 HD
ENDBRANCH  23  27
ENDBRANCH  18  19
ENDBRANCH   1  18
TORSDOF 5
ENDMDL
MODEL 4
REMARK VINA RESULT:    -7.183      3.593      6.298
REMARK INTER + INTRA:          -9.899
REMARK INTER:                  -8.704
REMARK INTRA:                  -1.196
REMARK UNBOUND:                -0.617
REMARK  Name = 
REMARK  9 active torsions:
REMARK  status: ('A' for Active; 'I' for Inactive)
REMARK    1  A    between atoms: C_1  and  C_2
REMARK    2  A    between atoms: N_4  and  C_5
REMARK    3  A    between atoms: C_9  and  C_10
REMARK    4  A    between atoms: C_10  and  C_11
REMARK    5  A    between atoms: C_10  and  C_12
REMARK    6  A    between atoms: C_10  and  C_13
REMARK    7  A    between atoms: C_13  and  N_14
REMARK    8  A    between atoms: C_18  and  C_19
REMARK    9  A    between atoms: C_26  and  C_27
REMARK                            x       y       z     vdW  Elec       q    Type
REMARK                         _______ _______ _______ _____ _____    ______ ____
ROOT
ATOM      1  C   UNL     1      49.400   8.289  14.188  0.00  0.00    +0.000 C 
ATOM      2  C   UNL     1      48.766   9.590  13.630  0.00  0.00    +0.000 C 
ATOM      3  C   UNL     1      50.938   8.426  14.177  0.00  0.00    +0.000 C 
ENDROOT
BRANCH   1   8
ATOM      4  C   UNL     1      48.756   6.609  17.627  0.00  0.00    +0.000 A 
ATOM      5  C   UNL     1      48.244   7.690  18.353  0.00  0.00    +0.000 A 
ATOM      6  C   UNL     1      48.037   8.932  17.758  0.00  0.00    +0.000 A 
ATOM      7  C   UNL     1      48.368   9.135  16.420  0.00  0.00    +0.000 A 
ATOM      8  C   UNL     1      48.903   8.095  15.644  0.00  0.00    +0.000 A 
ATOM      9  C   UNL     1      49.039   6.836  16.271  0.00  0.00    +0.000 A 
BRANCH   4  13
ATOM     10  C   UNL     1      47.781   3.299  16.152  0.00  0.00    +0.000 C 
ATOM     11  C   UNL     1      48.108   3.129  17.634  0.00  0.00    +0.000 C 
ATOM     12  C   UNL     1      47.891   4.412  18.462  0.00  0.00    +0.000 C 
ATOM     13  N   UNL     1      48.963   5.389  18.236  0.00  0.00    +0.000 N 
ATOM     14  C   UNL     1      50.324   4.838  18.363  0.00  0.00    +0.000 C 
ATOM     15  C   UNL     1      50.468   3.549  17.522  0.00  0.00    +0.000 C 
ATOM     16  C   UNL     1      51.805   2.874  17.804  0.00  0.00    +0.000 C 
ATOM     17  O   UNL     1      49.433   2.593  17.819  0.00  0.00    +0.000 OA
ENDBRANCH   4  13
ENDBRANCH   1   8
BRANCH   1  18
ATOM     18  C   UNL     1      48.975   7.097  13.273  0.00  0.00    +0.000 C 
BRANCH  18  19
ATOM     19  N   UNL     1      47.760   7.330  12.502  0.00  0.00    +0.000 N 
ATOM     20  C   UNL     1      46.896   6.264  12.279  0.00  0.00    +0.000 A 
ATOM     21  C   UNL     1      46.692   5.207  13.174  0.00  0.00    +0.000 A 
ATOM     22  N   UNL     1      45.805   4.195  12.983  0.00  0.00    +0.000 NA
ATOM     23  C   UNL     1      45.083   4.299  11.838  0.00  0.00    +0.000 A 
ATOM     24  C   UNL     1      45.266   5.339  10.941  0.00  0.00    +0.000 A 
ATOM     25  N   UNL     1      46.177   6.333  11.141  0.00  0.00    +0.000 NA
ATOM     26  H   UNL     1      47.855   7.827  11.619  0.00  0.00    +0.000 HD
BRANCH  23  27
ATOM     27  C   UNL     1      44.060   3.254  11.567  0.00  0.00    +0.000 C 
ATOM     28  N   UNL     1      43.753   2.426  12.614  0.00  0.00    +0.000 N 
ATOM     29  O   UNL     1      43.518   3.140  10.478  0.00  0.00    +0.000 OA
ATOM     30  H   UNL     1      44.199   2.547  13.516  0.00  0.00    +0.000 HD
ATOM     31  H   UNL     1      43.047   1.715  12.489  0.00  0.00    +0.000 HD
ENDBRANCH  23  27
ENDBRANCH  18  19
ENDBRANCH   1  18
TORSDOF 5
ENDMDL
MODEL 5
REMARK VINA RESULT:    -6.395      3.628      6.255
REMARK INTER + INTRA:          -8.882
REMARK INTER:                  -8.176
REMARK INTRA:                  -0.706
REMARK UNBOUND:                -0.617
REMARK  Name = 
REMARK  9 active torsions:
REMARK  status: ('A' for Active; 'I' for Inactive)
REMARK    1  A    between atoms: C_1  and  C_2
REMARK    2  A    between atoms: N_4  and  C_5
REMARK    3  A    between atoms: C_9  and  C_10
REMARK    4  A    between atoms: C_10  and  C_11
REMARK    5  A    between atoms: C_10  and  C_12
REMARK    6  A    between atoms: C_10  and  C_13
REMARK    7  A    between atoms: C_13  and  N_14
REMARK    8  A    between atoms: C_18  and  C_19
REMARK    9  A    between atoms: C_26  and  C_27
REMARK                            x       y       z     vdW  Elec       q    Type
REMARK                         _______ _______ _______ _____ _____    ______ ____
ROOT
ATOM      1  C   UNL     1      48.510   8.909  13.769  0.00  0.00    +0.000 C 
ATOM      2  C   UNL     1      48.543  10.395  13.323  0.00  0.00    +0.000 C 
ATOM      3  C   UNL     1      49.722   8.168  13.164  0.00  0.00    +0.000 C 
ENDROOT
BRANCH   1   8
ATOM      4  C   UNL     1      49.089   7.538  17.354  0.00  0.00    +0.000 A 
ATOM      5  C   UNL     1      48.984   8.714  18.103  0.00  0.00    +0.000 A 
ATOM      6  C   UNL     1      48.669   9.932  17.504  0.00  0.00    +0.000 A 
ATOM      7  C   UNL     1      48.481  10.009  16.125  0.00  0.00    +0.000 A 
ATOM      8  C   UNL     1      48.591   8.867  15.318  0.00  0.00    +0.000 A 
ATOM      9  C   UNL     1      48.851   7.643  15.974  0.00  0.00    +0.000 A 
BRANCH   4  13
ATOM     10  C   UNL     1      47.375   6.170  20.399  0.00  0.00    +0.000 C 
ATOM     11  C   UNL     1      48.675   5.408  20.151  0.00  0.00    +0.000 C 
ATOM     12  C   UNL     1      49.734   6.232  19.391  0.00  0.00    +0.000 C 
ATOM     13  N   UNL     1      49.411   6.343  17.964  0.00  0.00    +0.000 N 
ATOM     14  C   UNL     1      49.094   5.060  17.311  0.00  0.00    +0.000 C 
ATOM     15  C   UNL     1      48.040   4.282  18.130  0.00  0.00    +0.000 C 
ATOM     16  C   UNL     1      47.856   2.878  17.566  0.00  0.00    +0.000 C 
ATOM     17  O   UNL     1      48.425   4.142  19.511  0.00  0.00    +0.000 OA
ENDBRANCH   4  13
ENDBRANCH   1   8
BRANCH   1  18
ATOM     18  C   UNL     1      47.188   8.263  13.247  0.00  0.00    +0.000 C 
BRANCH  18  19
ATOM     19  N   UNL     1      46.989   6.878  13.659  0.00  0.00    +0.000 N 
ATOM     20  C   UNL     1      46.189   6.057  12.874  0.00  0.00    +0.000 A 
ATOM     21  C   UNL     1      46.072   6.156  11.483  0.00  0.00    +0.000 A 
ATOM     22  N   UNL     1      45.335   5.318  10.708  0.00  0.00    +0.000 NA
ATOM     23  C   UNL     1      44.722   4.321  11.397  0.00  0.00    +0.000 A 
ATOM     24  C   UNL     1      44.827   4.202  12.773  0.00  0.00    +0.000 A 
ATOM     25  N   UNL     1      45.553   5.068  13.535  0.00  0.00    +0.000 NA
ATOM     26  H   UNL     1      46.727   6.713  14.628  0.00  0.00    +0.000 HD
BRANCH  23  27
ATOM     27  C   UNL     1      43.925   3.333  10.623  0.00  0.00    +0.000 C 
ATOM     28  N   UNL     1      44.181   3.272   9.279  0.00  0.00    +0.000 N 
ATOM     29  O   UNL     1      43.092   2.611  11.152  0.00  0.00    +0.000 OA
ATOM     30  H   UNL     1      44.887   3.866   8.861  0.00  0.00    +0.000 HD
ATOM     31  H   UNL     1      43.682   2.601   8.713  0.00  0.00    +0.000 HD
ENDBRANCH  23  27
ENDBRANCH  18  19
ENDBRANCH   1  18
TORSDOF 5
ENDMDL
MODEL 6
REMARK VINA RESULT:    -6.314      3.303      7.626
REMARK INTER + INTRA:          -8.777
REMARK INTER:                  -7.733
REMARK INTRA:                  -1.044
REMARK UNBOUND:                -0.617
REMARK  Name = 
REMARK  9 active torsions:
REMARK  status: ('A' for Active; 'I' for Inactive)
REMARK    1  A    between atoms: C_1  and  C_2
REMARK    2  A    between atoms: N_4  and  C_5
REMARK    3  A    between atoms: C_9  and  C_10
REMARK    4  A    between atoms: C_10  and  C_11
REMARK    5  A    between atoms: C_10  and  C_12
REMARK    6  A    between atoms: C_10  and  C_13
REMARK    7  A    between atoms: C_13  and  N_14
REMARK    8  A    between atoms: C_18  and  C_19
REMARK    9  A    between atoms: C_26  and  C_27
REMARK                            x       y       z     vdW  Elec       q    Type
REMARK                         _______ _______ _______ _____ _____    ______ ____
ROOT
ATOM      1  C   UNL     1      49.428   8.839  12.259  0.00  0.00    +0.000 C 
ATOM      2  C   UNL     1      49.892   7.467  11.705  0.00  0.00    +0.000 C 
ATOM      3  C   UNL     1      50.075   9.969  11.428  0.00  0.00    +0.000 C 
ENDROOT
BRANCH   1   8
ATOM      4  C   UNL     1      45.714   7.712  12.208  0.00  0.00    +0.000 A 
ATOM      5  C   UNL     1      45.067   8.950  12.134  0.00  0.00    +0.000 A 
ATOM      6  C   UNL     1      45.784  10.141  12.035  0.00  0.00    +0.000 A 
ATOM      7  C   UNL     1      47.178  10.124  12.040  0.00  0.00    +0.000 A 
ATOM      8  C   UNL     1      47.884   8.915  12.130  0.00  0.00    +0.000 A 
ATOM      9  C   UNL     1      47.117   7.728  12.167  0.00  0.00    +0.000 A 
BRANCH   4  13
ATOM     10  C   UNL     1      45.429   5.124   9.505  0.00  0.00    +0.000 C 
ATOM     11  C   UNL     1      44.369   4.874  10.575  0.00  0.00    +0.000 C 
ATOM     12  C   UNL     1      43.960   6.147  11.344  0.00  0.00    +0.000 C 
ATOM     13  N   UNL     1      44.986   6.545  12.315  0.00  0.00    +0.000 N 
ATOM     14  C   UNL     1      45.445   5.456  13.195  0.00  0.00    +0.000 C 
ATOM     15  C   UNL     1      45.824   4.210  12.363  0.00  0.00    +0.000 C 
ATOM     16  C   UNL     1      46.110   3.024  13.277  0.00  0.00    +0.000 C 
ATOM     17  O   UNL     1      44.766   3.816  11.469  0.00  0.00    +0.000 OA
ENDBRANCH   4  13
ENDBRANCH   1   8
BRANCH   1  18
ATOM     18  C   UNL     1      49.885   8.957  13.747  0.00  0.00    +0.000 C 
BRANCH  18  19
ATOM     19  N   UNL     1      48.959   8.377  14.712  0.00  0.00    +0.000 N 
ATOM     20  C   UNL     1      49.357   7.257  15.430  0.00  0.00    +0.000 A 
ATOM     21  C   UNL     1      50.675   6.993  15.824  0.00  0.00    +0.000 A 
ATOM     22  N   UNL     1      51.056   5.927  16.576  0.00  0.00    +0.000 NA
ATOM     23  C   UNL     1      50.032   5.123  16.959  0.00  0.00    +0.000 A 
ATOM     24  C   UNL     1      48.721   5.368  16.584  0.00  0.00    +0.000 A 
ATOM     25  N   UNL     1      48.362   6.430  15.810  0.00  0.00    +0.000 NA
ATOM     26  H   UNL     1      48.005   8.208  14.400  0.00  0.00    +0.000 HD
BRANCH  23  27
ATOM     27  C   UNL     1      50.354   3.953  17.817  0.00  0.00    +0.000 C 
ATOM     28  N   UNL     1      49.547   3.764  18.908  0.00  0.00    +0.000 N 
ATOM     29  O   UNL     1      51.281   3.196  17.566  0.00  0.00    +0.000 OA
ATOM     30  H   UNL     1      48.772   4.391  19.091  0.00  0.00    +0.000 HD
ATOM     31  H   UNL     1      49.710   2.970  19.510  0.00  0.00    +0.000 HD
ENDBRANCH  23  27
ENDBRANCH  18  19
ENDBRANCH   1  18
TORSDOF 5
ENDMDL
MODEL 7
REMARK VINA RESULT:    -6.128      4.747      8.198
REMARK INTER + INTRA:          -8.536
REMARK INTER:                  -7.120
REMARK INTRA:                  -1.415
REMARK UNBOUND:                -0.617
REMARK  Name = 
REMARK  9 active torsions:
REMARK  status: ('A' for Active; 'I' for Inactive)
REMARK    1  A    between atoms: C_1  and  C_2
REMARK    2  A    between atoms: N_4  and  C_5
REMARK    3  A    between atoms: C_9  and  C_10
REMARK    4  A    between atoms: C_10  and  C_11
REMARK    5  A    between atoms: C_10  and  C_12
REMARK    6  A    between atoms: C_10  and  C_13
REMARK    7  A    between atoms: C_13  and  N_14
REMARK    8  A    between atoms: C_18  and  C_19
REMARK    9  A    between atoms: C_26  and  C_27
REMARK                            x       y       z     vdW  Elec       q    Type
REMARK                         _______ _______ _______ _____ _____    ______ ____
ROOT
ATOM      1  C   UNL     1      49.042   8.991  18.365  0.00  0.00    +0.000 C 
ATOM      2  C   UNL     1      49.747  10.262  18.904  0.00  0.00    +0.000 C 
ATOM      3  C   UNL     1      47.565   9.318  18.057  0.00  0.00    +0.000 C 
ENDROOT
BRANCH   1   8
ATOM      4  C   UNL     1      49.601   8.122  14.623  0.00  0.00    +0.000 A 
ATOM      5  C   UNL     1      50.993   7.987  14.592  0.00  0.00    +0.000 A 
ATOM      6  C   UNL     1      51.760   8.102  15.749  0.00  0.00    +0.000 A 
ATOM      7  C   UNL     1      51.153   8.390  16.969  0.00  0.00    +0.000 A 
ATOM      8  C   UNL     1      49.763   8.555  17.061  0.00  0.00    +0.000 A 
ATOM      9  C   UNL     1      49.017   8.369  15.875  0.00  0.00    +0.000 A 
BRANCH   4  13
ATOM     10  C   UNL     1      47.096   5.412  13.943  0.00  0.00    +0.000 C 
ATOM     11  C   UNL     1      47.422   6.151  12.647  0.00  0.00    +0.000 C 
ATOM     12  C   UNL     1      48.823   6.798  12.645  0.00  0.00    +0.000 C 
ATOM     13  N   UNL     1      48.858   8.015  13.465  0.00  0.00    +0.000 N 
ATOM     14  C   UNL     1      47.776   8.972  13.178  0.00  0.00    +0.000 C 
ATOM     15  C   UNL     1      46.405   8.258  13.182  0.00  0.00    +0.000 C 
ATOM     16  C   UNL     1      45.311   9.201  12.696  0.00  0.00    +0.000 C 
ATOM     17  O   UNL     1      46.395   7.106  12.318  0.00  0.00    +0.000 OA
ENDBRANCH   4  13
ENDBRANCH   1   8
BRANCH   1  18
ATOM     18  C   UNL     1      49.115   7.879  19.458  0.00  0.00    +0.000 C 
BRANCH  18  19
ATOM     19  N   UNL     1      48.227   6.746  19.228  0.00  0.00    +0.000 N 
ATOM     20  C   UNL     1      48.742   5.606  18.622  0.00  0.00    +0.000 A 
ATOM     21  C   UNL     1      50.057   5.152  18.774  0.00  0.00    +0.000 A 
ATOM     22  N   UNL     1      50.545   4.007  18.228  0.00  0.00    +0.000 NA
ATOM     23  C   UNL     1      49.629   3.292  17.526  0.00  0.00    +0.000 A 
ATOM     24  C   UNL     1      48.321   3.722  17.367  0.00  0.00    +0.000 A 
ATOM     25  N   UNL     1      47.857   4.885  17.904  0.00  0.00    +0.000 NA
ATOM     26  H   UNL     1      47.329   6.938  18.789  0.00  0.00    +0.000 HD
BRANCH  23  27
ATOM     27  C   UNL     1      50.067   2.004  16.926  0.00  0.00    +0.000 C 
ATOM     28  N   UNL     1      50.982   1.283  17.647  0.00  0.00    +0.000 N 
ATOM     29  O   UNL     1      49.636   1.604  15.854  0.00  0.00    +0.000 OA
ATOM     30  H   UNL     1      51.315   1.622  18.543  0.00  0.00    +0.000 HD
ATOM     31  H   UNL     1      51.294   0.390  17.295  0.00  0.00    +0.000 HD
ENDBRANCH  23  27
ENDBRANCH  18  19
ENDBRANCH   1  18
TORSDOF 5
ENDMDL
MODEL 8
REMARK VINA RESULT:    -5.949      3.540      6.125
REMARK INTER + INTRA:          -8.305
REMARK INTER:                  -7.357
REMARK INTRA:                  -0.948
REMARK UNBOUND:                -0.617
REMARK  Name = 
REMARK  9 active torsions:
REMARK  status: ('A' for Active; 'I' for Inactive)
REMARK    1  A    between atoms: C_1  and  C_2
REMARK    2  A    between atoms: N_4  and  C_5
REMARK    3  A    between atoms: C_9  and  C_10
REMARK    4  A    between atoms: C_10  and  C_11
REMARK    5  A    between atoms: C_10  and  C_12
REMARK    6  A    between atoms: C_10  and  C_13
REMARK    7  A    between atoms: C_13  and  N_14
REMARK    8  A    between atoms: C_18  and  C_19
REMARK    9  A    between atoms: C_26  and  C_27
REMARK                            x       y       z     vdW  Elec       q    Type
REMARK                         _______ _______ _______ _____ _____    ______ ____
ROOT
ATOM      1  C   UNL     1      48.083   8.878  13.002  0.00  0.00    +0.000 C 
ATOM      2  C   UNL     1      48.062  10.426  12.897  0.00  0.00    +0.000 C 
ATOM      3  C   UNL     1      48.793   8.293  11.762  0.00  0.00    +0.000 C 
ENDROOT
BRANCH   1   8
ATOM      4  C   UNL     1      49.019   8.606  16.759  0.00  0.00    +0.000 A 
ATOM      5  C   UNL     1      50.066   7.680  16.700  0.00  0.00    +0.000 A 
ATOM      6  C   UNL     1      50.529   7.183  15.484  0.00  0.00    +0.000 A 
ATOM      7  C   UNL     1      49.931   7.579  14.289  0.00  0.00    +0.000 A 
ATOM      8  C   UNL     1      48.864   8.490  14.284  0.00  0.00    +0.000 A 
ATOM      9  C   UNL     1      48.467   9.016  15.535  0.00  0.00    +0.000 A 
BRANCH   4  13
ATOM     10  C   UNL     1      48.358   6.463  19.768  0.00  0.00    +0.000 C 
ATOM     11  C   UNL     1      47.735   7.842  19.969  0.00  0.00    +0.000 C 
ATOM     12  C   UNL     1      47.375   8.551  18.647  0.00  0.00    +0.000 C 
ATOM     13  N   UNL     1      48.567   9.079  17.974  0.00  0.00    +0.000 N 
ATOM     14  C   UNL     1      49.451   9.879  18.840  0.00  0.00    +0.000 C 
ATOM     15  C   UNL     1      49.759   9.118  20.149  0.00  0.00    +0.000 C 
ATOM     16  C   UNL     1      50.508  10.018  21.126  0.00  0.00    +0.000 C 
ATOM     17  O   UNL     1      48.560   8.672  20.810  0.00  0.00    +0.000 OA
ENDBRANCH   4  13
ENDBRANCH   1   8
BRANCH   1  18
ATOM     18  C   UNL     1      46.610   8.364  13.051  0.00  0.00    +0.000 C 
BRANCH  18  19
ATOM     19  N   UNL     1      46.455   7.026  13.611  0.00  0.00    +0.000 N 
ATOM     20  C   UNL     1      45.762   6.071  12.878  0.00  0.00    +0.000 A 
ATOM     21  C   UNL     1      45.746   6.001  11.480  0.00  0.00    +0.000 A 
ATOM     22  N   UNL     1      45.116   5.034  10.763  0.00  0.00    +0.000 NA
ATOM     23  C   UNL     1      44.508   4.087  11.523  0.00  0.00    +0.000 A 
ATOM     24  C   UNL     1      44.515   4.135  12.907  0.00  0.00    +0.000 A 
ATOM     25  N   UNL     1      45.133   5.127  13.608  0.00  0.00    +0.000 NA
ATOM     26  H   UNL     1      46.129   6.958  14.574  0.00  0.00    +0.000 HD
BRANCH  23  27
ATOM     27  C   UNL     1      43.826   2.968  10.820  0.00  0.00    +0.000 C 
ATOM     28  N   UNL     1      44.142   2.805   9.497  0.00  0.00    +0.000 N 
ATOM     29  O   UNL     1      43.033   2.230  11.386  0.00  0.00    +0.000 OA
ATOM     30  H   UNL     1      44.816   3.415   9.048  0.00  0.00    +0.000 HD
ATOM     31  H   UNL     1      43.724   2.044   8.981  0.00  0.00    +0.000 HD
ENDBRANCH  23  27
ENDBRANCH  18  19
ENDBRANCH   1  18
TORSDOF 5
ENDMDL
