MODEL 1
REMARK VINA RESULT:    -8.026      0.000      0.000
REMARK INTER + INTRA:         -11.847
REMARK INTER:                 -10.842
REMARK INTRA:                  -1.005
REMARK UNBOUND:                -1.005
REMARK  Name = 
REMARK  7 active torsions:
REMARK  status: ('A' for Active; 'I' for Inactive)
REMARK    1  A    between atoms: C_1  and  N_2
REMARK    2  A    between atoms: N_2  and  C_3
REMARK    3  A    between atoms: C_3  and  C_4
REMARK    4  A    between atoms: C_7  and  C_8
REMARK    5  A    between atoms: C_8  and  N_9
REMARK    6  A    between atoms: C_10  and  C_12
REMARK    7  A    between atoms: C_24  and  C_26
REMARK                            x       y       z     vdW  Elec       q    Type
REMARK                         _______ _______ _______ _____ _____    ______ ____
ROOT
ATOM      1  C   UNL     1      46.493   4.525  13.445  0.00  0.00    +0.000 A 
ATOM      2  C   UNL     1      47.072   5.715  13.014  0.00  0.00    +0.000 A 
ATOM      3  C   UNL     1      47.885   6.424  13.898  0.00  0.00    +0.000 A 
ATOM      4  C   UNL     1      48.115   5.925  15.182  0.00  0.00    +0.000 A 
ATOM      5  C   UNL     1      47.484   4.736  15.526  0.00  0.00    +0.000 A 
ATOM      6  N   UNL     1      46.689   4.033  14.695  0.00  0.00    +0.000 NA
ENDROOT
BRANCH   1   7
ATOM      7  C   UNL     1      45.599   3.719  12.534  0.00  0.00    +0.000 C 
BRANCH   7   9
ATOM      8  C   UNL     1      43.420   4.826  13.243  0.00  0.00    +0.000 C 
ATOM      9  N   UNL     1      44.266   4.260  12.209  0.00  0.00    +0.000 N 
ATOM     10  C   UNL     1      43.817   4.380  10.876  0.00  0.00    +0.000 C 
ATOM     11  O   UNL     1      42.797   5.023  10.628  0.00  0.00    +0.000 OA
BRANCH  10  12
ATOM     12  C   UNL     1      44.604   3.776   9.809  0.00  0.00    +0.000 A 
ATOM     13  C   UNL     1      45.292   4.356   8.760  0.00  0.00    +0.000 A 
ATOM     14  C   UNL     1      45.886   3.298   8.022  0.00  0.00    +0.000 A 
ATOM     15  C   UNL     1      45.506   2.141   8.646  0.00  0.00    +0.000 A 
ATOM     16  O   UNL     1      44.716   2.419   9.712  0.00  0.00    +0.000 OA
ENDBRANCH  10  12
ENDBRANCH   7   9
ENDBRANCH   1   7
BRANCH   4  17
ATOM     17  C   UNL     1      48.944   6.659  16.195  0.00  0.00    +0.000 C 
BRANCH  17  18
ATOM     18  N   UNL     1      50.031   5.832  16.647  0.00  0.00    +0.000 N 
ATOM     19  C   UNL     1      50.199   5.506  17.968  0.00  0.00    +0.000 C 
ATOM     20  O   UNL     1      49.414   5.870  18.838  0.00  0.00    +0.000 OA
ATOM     21  H   UNL     1      50.830   5.753  16.026  0.00  0.00    +0.000 HD
BRANCH  19  22
ATOM     22  C   UNL     1      51.339   4.630  18.267  0.00  0.00    +0.000 A 
ATOM     23  C   UNL     1      52.436   5.130  18.956  0.00  0.00    +0.000 A 
ATOM     24  S   UNL     1      53.622   3.950  19.293  0.00  0.00    +0.000 S 
ATOM     25  C   UNL     1      52.739   2.746  18.479  0.00  0.00    +0.000 A 
ATOM     26  N   UNL     1      53.211   1.475  18.377  0.00  0.00    +0.000 NA
ATOM     27  C   UNL     1      52.452   0.673  17.709  0.00  0.00    +0.000 A 
ATOM     28  N   UNL     1      51.260   1.027  17.131  0.00  0.00    +0.000 N 
ATOM     29  C   UNL     1      50.732   2.289  17.231  0.00  0.00    +0.000 A 
ATOM     30  O   UNL     1      49.640   2.564  16.746  0.00  0.00    +0.000 OA
ATOM     31  C   UNL     1      51.550   3.234  17.968  0.00  0.00    +0.000 A 
ATOM     32  H   UNL     1      50.709   0.351  16.626  0.00  0.00    +0.000 HD
ENDBRANCH  19  22
ENDBRANCH  17  18
ENDBRANCH   4  17
TORSDOF 6
ENDMDL
MODEL 2
REMARK VINA RESULT:    -7.385      3.391      8.600
REMARK INTER + INTRA:         -10.980
REMARK INTER:                  -9.827
REMARK INTRA:                  -1.153
REMARK UNBOUND:                -1.005
REMARK  Name = 
REMARK  7 active torsions:
REMARK  status: ('A' for Active; 'I' for Inactive)
REMARK    1  A    between atoms: C_1  and  N_2
REMARK    2  A    between atoms: N_2  and  C_3
REMARK    3  A    between atoms: C_3  and  C_4
REMARK    4  A    between atoms: C_7  and  C_8
REMARK    5  A    between atoms: C_8  and  N_9
REMARK    6  A    between atoms: C_10  and  C_12
REMARK    7  A    between atoms: C_24  and  C_26
REMARK                            x       y       z     vdW  Elec       q    Type
REMARK                         _______ _______ _______ _____ _____    ______ ____
ROOT
ATOM      1  C   UNL     1      49.891   6.722  15.910  0.00  0.00    +0.000 A 
ATOM      2  C   UNL     1      50.702   7.560  15.150  0.00  0.00    +0.000 A 
ATOM      3  C   UNL     1      50.251   7.976  13.899  0.00  0.00    +0.000 A 
ATOM      4  C   UNL     1      48.997   7.563  13.440  0.00  0.00    +0.000 A 
ATOM      5  C   UNL     1      48.265   6.717  14.263  0.00  0.00    +0.000 A 
ATOM      6  N   UNL     1      48.679   6.295  15.475  0.00  0.00    +0.000 NA
ENDROOT
BRANCH   1   7
ATOM      7  C   UNL     1      50.332   6.235  17.269  0.00  0.00    +0.000 C 
BRANCH   7   9
ATOM      8  C   UNL     1      52.759   5.474  17.342  0.00  0.00    +0.000 C 
ATOM      9  N   UNL     1      51.343   5.162  17.331  0.00  0.00    +0.000 N 
ATOM     10  C   UNL     1      50.982   3.812  17.523  0.00  0.00    +0.000 C 
ATOM     11  O   UNL     1      51.849   2.975  17.778  0.00  0.00    +0.000 OA
BRANCH  10  12
ATOM     12  C   UNL     1      49.574   3.441  17.462  0.00  0.00    +0.000 A 
ATOM     13  C   UNL     1      48.635   3.307  18.466  0.00  0.00    +0.000 A 
ATOM     14  C   UNL     1      47.417   2.927  17.843  0.00  0.00    +0.000 A 
ATOM     15  C   UNL     1      47.691   2.826  16.506  0.00  0.00    +0.000 A 
ATOM     16  O   UNL     1      48.994   3.114  16.270  0.00  0.00    +0.000 OA
ENDBRANCH  10  12
ENDBRANCH   7   9
ENDBRANCH   1   7
BRANCH   4  17
ATOM     17  C   UNL     1      48.470   7.940  12.086  0.00  0.00    +0.000 C 
BRANCH  17  18
ATOM     18  N   UNL     1      47.694   6.862  11.533  0.00  0.00    +0.000 N 
ATOM     19  C   UNL     1      46.329   6.926  11.427  0.00  0.00    +0.000 C 
ATOM     20  O   UNL     1      45.690   7.918  11.767  0.00  0.00    +0.000 OA
ATOM     21  H   UNL     1      48.137   5.949  11.509  0.00  0.00    +0.000 HD
BRANCH  19  22
ATOM     22  C   UNL     1      45.684   5.759  10.814  0.00  0.00    +0.000 A 
ATOM     23  C   UNL     1      45.827   5.520   9.453  0.00  0.00    +0.000 A 
ATOM     24  S   UNL     1      45.086   4.073   8.934  0.00  0.00    +0.000 S 
ATOM     25  C   UNL     1      44.498   3.746  10.497  0.00  0.00    +0.000 A 
ATOM     26  N   UNL     1      43.750   2.639  10.748  0.00  0.00    +0.000 NA
ATOM     27  C   UNL     1      43.347   2.531  11.970  0.00  0.00    +0.000 A 
ATOM     28  N   UNL     1      43.625   3.432  12.966  0.00  0.00    +0.000 N 
ATOM     29  C   UNL     1      44.398   4.547  12.764  0.00  0.00    +0.000 A 
ATOM     30  O   UNL     1      44.672   5.309  13.685  0.00  0.00    +0.000 OA
ATOM     31  C   UNL     1      44.873   4.720  11.404  0.00  0.00    +0.000 A 
ATOM     32  H   UNL     1      43.286   3.288  13.904  0.00  0.00    +0.000 HD
ENDBRANCH  19  22
ENDBRANCH  17  18
ENDBRANCH   4  17
TORSDOF 6
ENDMDL
MODEL 3
REMARK VINA RESULT:    -7.284      2.635      3.084
REMARK INTER + INTRA:         -10.844
REMARK INTER:                 -10.039
REMARK INTRA:                  -0.805
REMARK UNBOUND:                -1.005
REMARK  Name = 
REMARK  7 active torsions:
REMARK  status: ('A' for Active; 'I' for Inactive)
REMARK    1  A    between atoms: C_1  and  N_2
REMARK    2  A    between atoms: N_2  and  C_3
REMARK    3  A    between atoms: C_3  and  C_4
REMARK    4  A    between atoms: C_7  and  C_8
REMARK    5  A    between atoms: C_8  and  N_9
REMARK    6  A    between atoms: C_10  and  C_12
REMARK    7  A    between atoms: C_24  and  C_26
REMARK                            x       y       z     vdW  Elec       q    Type
REMARK                         _______ _______ _______ _____ _____    ______ ____
ROOT
ATOM      1  C   UNL     1      45.454   6.527  11.836  0.00  0.00    +0.000 A 
ATOM      2  C   UNL     1      46.656   5.884  12.120  0.00  0.00    +0.000 A 
ATOM      3  C   UNL     1      47.634   6.575  12.836  0.00  0.00    +0.000 A 
ATOM      4  C   UNL     1      47.386   7.882  13.265  0.00  0.00    +0.000 A 
ATOM      5  C   UNL     1      46.163   8.444  12.923  0.00  0.00    +0.000 A 
ATOM      6  N   UNL     1      45.202   7.801  12.228  0.00  0.00    +0.000 NA
ENDROOT
BRANCH   1   7
ATOM      7  C   UNL     1      44.364   5.829  11.060  0.00  0.00    +0.000 C 
BRANCH   7   9
ATOM      8  C   UNL     1      43.010   4.717  12.906  0.00  0.00    +0.000 C 
ATOM      9  N   UNL     1      43.741   4.632  11.655  0.00  0.00    +0.000 N 
ATOM     10  C   UNL     1      43.706   3.396  10.976  0.00  0.00    +0.000 C 
ATOM     11  O   UNL     1      43.003   2.480  11.403  0.00  0.00    +0.000 OA
BRANCH  10  12
ATOM     12  C   UNL     1      44.474   3.245   9.746  0.00  0.00    +0.000 A 
ATOM     13  C   UNL     1      44.502   4.020   8.602  0.00  0.00    +0.000 A 
ATOM     14  C   UNL     1      45.430   3.413   7.716  0.00  0.00    +0.000 A 
ATOM     15  C   UNL     1      45.891   2.295   8.358  0.00  0.00    +0.000 A 
ATOM     16  O   UNL     1      45.304   2.176   9.574  0.00  0.00    +0.000 OA
ENDBRANCH  10  12
ENDBRANCH   7   9
ENDBRANCH   1   7
BRANCH   4  17
ATOM     17  C   UNL     1      48.410   8.696  14.000  0.00  0.00    +0.000 C 
BRANCH  17  18
ATOM     18  N   UNL     1      48.720   8.086  15.266  0.00  0.00    +0.000 N 
ATOM     19  C   UNL     1      49.958   7.567  15.542  0.00  0.00    +0.000 C 
ATOM     20  O   UNL     1      50.886   7.621  14.740  0.00  0.00    +0.000 OA
ATOM     21  H   UNL     1      47.932   7.776  15.825  0.00  0.00    +0.000 HD
BRANCH  19  22
ATOM     22  C   UNL     1      50.126   7.005  16.888  0.00  0.00    +0.000 A 
ATOM     23  C   UNL     1      50.986   7.615  17.793  0.00  0.00    +0.000 A 
ATOM     24  S   UNL     1      50.986   6.880  19.333  0.00  0.00    +0.000 S 
ATOM     25  C   UNL     1      49.883   5.687  18.827  0.00  0.00    +0.000 A 
ATOM     26  N   UNL     1      49.465   4.711  19.676  0.00  0.00    +0.000 NA
ATOM     27  C   UNL     1      48.651   3.857  19.151  0.00  0.00    +0.000 A 
ATOM     28  N   UNL     1      48.216   3.890  17.852  0.00  0.00    +0.000 N 
ATOM     29  C   UNL     1      48.590   4.871  16.968  0.00  0.00    +0.000 A 
ATOM     30  O   UNL     1      48.145   4.904  15.826  0.00  0.00    +0.000 OA
ATOM     31  C   UNL     1      49.510   5.855  17.506  0.00  0.00    +0.000 A 
ATOM     32  H   UNL     1      47.574   3.196  17.502  0.00  0.00    +0.000 HD
ENDBRANCH  19  22
ENDBRANCH  17  18
ENDBRANCH   4  17
TORSDOF 6
ENDMDL
MODEL 4
REMARK VINA RESULT:    -7.269      3.776      4.605
REMARK INTER + INTRA:         -10.823
REMARK INTER:                 -10.204
REMARK INTRA:                  -0.619
REMARK UNBOUND:                -1.005
REMARK  Name = 
REMARK  7 active torsions:
REMARK  status: ('A' for Active; 'I' for Inactive)
REMARK    1  A    between atoms: C_1  and  N_2
REMARK    2  A    between atoms: N_2  and  C_3
REMARK    3  A    between atoms: C_3  and  C_4
REMARK    4  A    between atoms: C_7  and  C_8
REMARK    5  A    between atoms: C_8  and  N_9
REMARK    6  A    between atoms: C_10  and  C_12
REMARK    7  A    between atoms: C_24  and  C_26
REMARK                            x       y       z     vdW  Elec       q    Type
REMARK                         _______ _______ _______ _____ _____    ______ ____
ROOT
ATOM      1  C   UNL     1      45.495   6.644  11.896  0.00  0.00    +0.000 A 
ATOM      2  C   UNL     1      46.654   6.093  12.436  0.00  0.00    +0.000 A 
ATOM      3  C   UNL     1      47.466   6.892  13.239  0.00  0.00    +0.000 A 
ATOM      4  C   UNL     1      47.098   8.215  13.500  0.00  0.00    +0.000 A 
ATOM      5  C   UNL     1      45.932   8.680  12.907  0.00  0.00    +0.000 A 
ATOM      6  N   UNL     1      45.131   7.932  12.122  0.00  0.00    +0.000 NA
ENDROOT
BRANCH   1   7
ATOM      7  C   UNL     1      44.582   5.827  11.014  0.00  0.00    +0.000 C 
BRANCH   7   9
ATOM      8  C   UNL     1      43.175   4.799  12.868  0.00  0.00    +0.000 C 
ATOM      9  N   UNL     1      43.888   4.671  11.610  0.00  0.00    +0.000 N 
ATOM     10  C   UNL     1      43.767   3.443  10.927  0.00  0.00    +0.000 C 
ATOM     11  O   UNL     1      43.009   2.573  11.357  0.00  0.00    +0.000 OA
BRANCH  10  12
ATOM     12  C   UNL     1      44.511   3.247   9.689  0.00  0.00    +0.000 A 
ATOM     13  C   UNL     1      44.506   3.971   8.513  0.00  0.00    +0.000 A 
ATOM     14  C   UNL     1      45.425   3.337   7.635  0.00  0.00    +0.000 A 
ATOM     15  C   UNL     1      45.914   2.255   8.315  0.00  0.00    +0.000 A 
ATOM     16  O   UNL     1      45.352   2.182   9.547  0.00  0.00    +0.000 OA
ENDBRANCH  10  12
ENDBRANCH   7   9
ENDBRANCH   1   7
BRANCH   4  17
ATOM     17  C   UNL     1      47.948   9.140  14.320  0.00  0.00    +0.000 C 
BRANCH  17  18
ATOM     18  N   UNL     1      47.716   8.923  15.723  0.00  0.00    +0.000 N 
ATOM     19  C   UNL     1      48.327   9.679  16.689  0.00  0.00    +0.000 C 
ATOM     20  O   UNL     1      49.082  10.607  16.416  0.00  0.00    +0.000 OA
ATOM     21  H   UNL     1      47.339   8.018  15.985  0.00  0.00    +0.000 HD
BRANCH  19  22
ATOM     22  C   UNL     1      47.965   9.354  18.074  0.00  0.00    +0.000 A 
ATOM     23  C   UNL     1      47.555  10.360  18.940  0.00  0.00    +0.000 A 
ATOM     24  S   UNL     1      47.088   9.786  20.477  0.00  0.00    +0.000 S 
ATOM     25  C   UNL     1      47.474   8.183  20.060  0.00  0.00    +0.000 A 
ATOM     26  N   UNL     1      47.321   7.168  20.952  0.00  0.00    +0.000 NA
ATOM     27  C   UNL     1      47.677   6.008  20.511  0.00  0.00    +0.000 A 
ATOM     28  N   UNL     1      48.176   5.770  19.256  0.00  0.00    +0.000 N 
ATOM     29  C   UNL     1      48.322   6.758  18.315  0.00  0.00    +0.000 A 
ATOM     30  O   UNL     1      48.723   6.507  17.184  0.00  0.00    +0.000 OA
ATOM     31  C   UNL     1      47.940   8.085  18.761  0.00  0.00    +0.000 A 
ATOM     32  H   UNL     1      48.432   4.838  18.968  0.00  0.00    +0.000 HD
ENDBRANCH  19  22
ENDBRANCH  17  18
ENDBRANCH   4  17
TORSDOF 6
ENDMDL
MODEL 5
REMARK VINA RESULT:    -7.250      3.757      8.405
REMARK INTER + INTRA:         -10.798
REMARK INTER:                  -9.669
REMARK INTRA:                  -1.129
REMARK UNBOUND:                -1.005
REMARK  Name = 
REMARK  7 active torsions:
REMARK  status: ('A' for Active; 'I' for Inactive)
REMARK    1  A    between atoms: C_1  and  N_2
REMARK    2  A    between atoms: N_2  and  C_3
REMARK    3  A    between atoms: C_3  and  C_4
REMARK    4  A    between atoms: C_7  and  C_8
REMARK    5  A    between atoms: C_8  and  N_9
REMARK    6  A    between atoms: C_10  and  C_12
REMARK    7  A    between atoms: C_24  and  C_26
REMARK                            x       y       z     vdW  Elec       q    Type
REMARK                         _______ _______ _______ _____ _____    ______ ____
ROOT
ATOM      1  C   UNL     1      48.925   7.323  16.139  0.00  0.00    +0.000 A 
ATOM      2  C   UNL     1      48.621   8.622  15.740  0.00  0.00    +0.000 A 
ATOM      3  C   UNL     1      48.386   8.871  14.389  0.00  0.00    +0.000 A 
ATOM      4  C   UNL     1      48.442   7.820  13.469  0.00  0.00    +0.000 A 
ATOM      5  C   UNL     1      48.765   6.562  13.959  0.00  0.00    +0.000 A 
ATOM      6  N   UNL     1      49.002   6.293  15.259  0.00  0.00    +0.000 NA
ENDROOT
BRANCH   1   7
ATOM      7  C   UNL     1      49.195   6.997  17.588  0.00  0.00    +0.000 C 
BRANCH   7   9
ATOM      8  C   UNL     1      47.450   7.926  19.191  0.00  0.00    +0.000 C 
ATOM      9  N   UNL     1      48.041   6.804  18.486  0.00  0.00    +0.000 N 
ATOM     10  C   UNL     1      47.380   5.562  18.589  0.00  0.00    +0.000 C 
ATOM     11  O   UNL     1      46.302   5.488  19.181  0.00  0.00    +0.000 OA
BRANCH  10  12
ATOM     12  C   UNL     1      47.967   4.393  17.947  0.00  0.00    +0.000 A 
ATOM     13  C   UNL     1      47.490   3.592  16.928  0.00  0.00    +0.000 A 
ATOM     14  C   UNL     1      48.473   2.594  16.693  0.00  0.00    +0.000 A 
ATOM     15  C   UNL     1      49.474   2.829  17.596  0.00  0.00    +0.000 A 
ATOM     16  O   UNL     1      49.167   3.900  18.369  0.00  0.00    +0.000 OA
ENDBRANCH  10  12
ENDBRANCH   7   9
ENDBRANCH   1   7
BRANCH   4  17
ATOM     17  C   UNL     1      48.242   8.028  11.996  0.00  0.00    +0.000 C 
BRANCH  17  18
ATOM     18  N   UNL     1      47.518   6.921  11.428  0.00  0.00    +0.000 N 
ATOM     19  C   UNL     1      46.150   6.905  11.356  0.00  0.00    +0.000 C 
ATOM     20  O   UNL     1      45.461   7.845  11.740  0.00  0.00    +0.000 OA
ATOM     21  H   UNL     1      48.015   6.038  11.366  0.00  0.00    +0.000 HD
BRANCH  19  22
ATOM     22  C   UNL     1      45.561   5.719  10.723  0.00  0.00    +0.000 A 
ATOM     23  C   UNL     1      45.747   5.491   9.365  0.00  0.00    +0.000 A 
ATOM     24  S   UNL     1      45.070   4.022   8.822  0.00  0.00    +0.000 S 
ATOM     25  C   UNL     1      44.455   3.667  10.368  0.00  0.00    +0.000 A 
ATOM     26  N   UNL     1      43.739   2.534  10.597  0.00  0.00    +0.000 NA
ATOM     27  C   UNL     1      43.310   2.407  11.808  0.00  0.00    +0.000 A 
ATOM     28  N   UNL     1      43.531   3.312  12.814  0.00  0.00    +0.000 N 
ATOM     29  C   UNL     1      44.270   4.454  12.635  0.00  0.00    +0.000 A 
ATOM     30  O   UNL     1      44.494   5.221  13.566  0.00  0.00    +0.000 OA
ATOM     31  C   UNL     1      44.773   4.650  11.288  0.00  0.00    +0.000 A 
ATOM     32  H   UNL     1      43.174   3.152  13.743  0.00  0.00    +0.000 HD
ENDBRANCH  19  22
ENDBRANCH  17  18
ENDBRANCH   4  17
TORSDOF 6
ENDMDL
MODEL 6
REMARK VINA RESULT:    -6.971      3.543      8.987
REMARK INTER + INTRA:         -10.422
REMARK INTER:                  -9.389
REMARK INTRA:                  -1.033
REMARK UNBOUND:                -1.005
REMARK  Name = 
REMARK  7 active torsions:
REMARK  status: ('A' for Active; 'I' for Inactive)
REMARK    1  A    between atoms: C_1  and  N_2
REMARK    2  A    between atoms: N_2  and  C_3
REMARK    3  A    between atoms: C_3  and  C_4
REMARK    4  A    between atoms: C_7  and  C_8
REMARK    5  A    between atoms: C_8  and  N_9
REMARK    6  A    between atoms: C_10  and  C_12
REMARK    7  A    between atoms: C_24  and  C_26
REMARK                            x       y       z     vdW  Elec       q    Type
REMARK                         _______ _______ _______ _____ _____    ______ ____
ROOT
ATOM      1  C   UNL     1      49.554   7.758  15.572  0.00  0.00    +0.000 A 
ATOM      2  C   UNL     1      48.437   8.590  15.559  0.00  0.00    +0.000 A 
ATOM      3  C   UNL     1      47.650   8.637  14.409  0.00  0.00    +0.000 A 
ATOM      4  C   UNL     1      47.982   7.845  13.307  0.00  0.00    +0.000 A 
ATOM      5  C   UNL     1      49.121   7.056  13.410  0.00  0.00    +0.000 A 
ATOM      6  N   UNL     1      49.903   6.995  14.506  0.00  0.00    +0.000 NA
ENDROOT
BRANCH   1   7
ATOM      7  C   UNL     1      50.446   7.672  16.788  0.00  0.00    +0.000 C 
BRANCH   7   9
ATOM      8  C   UNL     1      52.785   6.673  16.731  0.00  0.00    +0.000 C 
ATOM      9  N   UNL     1      51.353   6.515  16.905  0.00  0.00    +0.000 N 
ATOM     10  C   UNL     1      50.894   5.249  17.325  0.00  0.00    +0.000 C 
ATOM     11  O   UNL     1      51.703   4.367  17.613  0.00  0.00    +0.000 OA
BRANCH  10  12
ATOM     12  C   UNL     1      49.459   5.026  17.457  0.00  0.00    +0.000 A 
ATOM     13  C   UNL     1      48.603   5.280  18.511  0.00  0.00    +0.000 A 
ATOM     14  C   UNL     1      47.308   4.870  18.098  0.00  0.00    +0.000 A 
ATOM     15  C   UNL     1      47.456   4.369  16.832  0.00  0.00    +0.000 A 
ATOM     16  O   UNL     1      48.753   4.441  16.447  0.00  0.00    +0.000 OA
ENDBRANCH  10  12
ENDBRANCH   7   9
ENDBRANCH   1   7
BRANCH   4  17
ATOM     17  C   UNL     1      47.203   7.880  12.026  0.00  0.00    +0.000 C 
BRANCH  17  18
ATOM     18  N   UNL     1      46.565   6.612  11.791  0.00  0.00    +0.000 N 
ATOM     19  C   UNL     1      45.213   6.499  11.600  0.00  0.00    +0.000 C 
ATOM     20  O   UNL     1      44.469   7.475  11.586  0.00  0.00    +0.000 OA
ATOM     21  H   UNL     1      47.084   5.785  12.071  0.00  0.00    +0.000 HD
BRANCH  19  22
ATOM     22  C   UNL     1      44.718   5.141  11.343  0.00  0.00    +0.000 A 
ATOM     23  C   UNL     1      43.964   4.482  12.305  0.00  0.00    +0.000 A 
ATOM     24  S   UNL     1      43.400   2.954  11.799  0.00  0.00    +0.000 S 
ATOM     25  C   UNL     1      44.191   3.094  10.300  0.00  0.00    +0.000 A 
ATOM     26  N   UNL     1      44.128   2.099   9.375  0.00  0.00    +0.000 NA
ATOM     27  C   UNL     1      44.798   2.327   8.296  0.00  0.00    +0.000 A 
ATOM     28  N   UNL     1      45.528   3.462   8.055  0.00  0.00    +0.000 N 
ATOM     29  C   UNL     1      45.598   4.503   8.947  0.00  0.00    +0.000 A 
ATOM     30  O   UNL     1      46.218   5.527   8.684  0.00  0.00    +0.000 OA
ATOM     31  C   UNL     1      44.866   4.296  10.182  0.00  0.00    +0.000 A 
ATOM     32  H   UNL     1      46.026   3.584   7.187  0.00  0.00    +0.000 HD
ENDBRANCH  19  22
ENDBRANCH  17  18
ENDBRANCH   4  17
TORSDOF 6
ENDMDL
MODEL 7
REMARK VINA RESULT:    -6.934      3.420      8.246
REMARK INTER + INTRA:         -10.372
REMARK INTER:                  -9.128
REMARK INTRA:                  -1.244
REMARK UNBOUND:                -1.005
REMARK  Name = 
REMARK  7 active torsions:
REMARK  status: ('A' for Active; 'I' for Inactive)
REMARK    1  A    between atoms: C_1  and  N_2
REMARK    2  A    between atoms: N_2  and  C_3
REMARK    3  A    between atoms: C_3  and  C_4
REMARK    4  A    between atoms: C_7  and  C_8
REMARK    5  A    between atoms: C_8  and  N_9
REMARK    6  A    between atoms: C_10  and  C_12
REMARK    7  A    between atoms: C_24  and  C_26
REMARK                            x       y       z     vdW  Elec       q    Type
REMARK                         _______ _______ _______ _____ _____    ______ ____
ROOT
ATOM      1  C   UNL     1      50.258   6.116  17.452  0.00  0.00    +0.000 A 
ATOM      2  C   UNL     1      49.069   6.740  17.818  0.00  0.00    +0.000 A 
ATOM      3  C   UNL     1      48.420   7.547  16.883  0.00  0.00    +0.000 A 
ATOM      4  C   UNL     1      48.960   7.700  15.604  0.00  0.00    +0.000 A 
ATOM      5  C   UNL     1      50.157   7.048  15.336  0.00  0.00    +0.000 A 
ATOM      6  N   UNL     1      50.809   6.267  16.220  0.00  0.00    +0.000 NA
ENDROOT
BRANCH   1   7
ATOM      7  C   UNL     1      51.007   5.237  18.424  0.00  0.00    +0.000 C 
BRANCH   7   9
ATOM      8  C   UNL     1      53.073   3.837  17.926  0.00  0.00    +0.000 C 
ATOM      9  N   UNL     1      51.632   4.004  17.910  0.00  0.00    +0.000 N 
ATOM     10  C   UNL     1      50.862   2.889  17.516  0.00  0.00    +0.000 C 
ATOM     11  O   UNL     1      51.412   1.811  17.293  0.00  0.00    +0.000 OA
BRANCH  10  12
ATOM     12  C   UNL     1      49.413   3.027  17.428  0.00  0.00    +0.000 A 
ATOM     13  C   UNL     1      48.437   2.895  18.397  0.00  0.00    +0.000 A 
ATOM     14  C   UNL     1      47.190   3.139  17.761  0.00  0.00    +0.000 A 
ATOM     15  C   UNL     1      47.477   3.377  16.444  0.00  0.00    +0.000 A 
ATOM     16  O   UNL     1      48.813   3.292  16.231  0.00  0.00    +0.000 OA
ENDBRANCH  10  12
ENDBRANCH   7   9
ENDBRANCH   1   7
BRANCH   4  17
ATOM     17  C   UNL     1      48.335   8.587  14.567  0.00  0.00    +0.000 C 
BRANCH  17  18
ATOM     18  N   UNL     1      47.159   7.965  14.018  0.00  0.00    +0.000 N 
ATOM     19  C   UNL     1      47.181   7.287  12.828  0.00  0.00    +0.000 C 
ATOM     20  O   UNL     1      48.210   7.140  12.175  0.00  0.00    +0.000 OA
ATOM     21  H   UNL     1      46.266   8.296  14.369  0.00  0.00    +0.000 HD
BRANCH  19  22
ATOM     22  C   UNL     1      45.907   6.683  12.417  0.00  0.00    +0.000 A 
ATOM     23  C   UNL     1      44.893   7.482  11.905  0.00  0.00    +0.000 A 
ATOM     24  S   UNL     1      43.524   6.600  11.396  0.00  0.00    +0.000 S 
ATOM     25  C   UNL     1      44.214   5.128  11.896  0.00  0.00    +0.000 A 
ATOM     26  N   UNL     1      43.542   3.954  11.758  0.00  0.00    +0.000 NA
ATOM     27  C   UNL     1      44.174   2.920  12.204  0.00  0.00    +0.000 A 
ATOM     28  N   UNL     1      45.418   2.953  12.779  0.00  0.00    +0.000 N 
ATOM     29  C   UNL     1      46.144   4.110  12.913  0.00  0.00    +0.000 A 
ATOM     30  O   UNL     1      47.275   4.102  13.384  0.00  0.00    +0.000 OA
ATOM     31  C   UNL     1      45.477   5.305  12.431  0.00  0.00    +0.000 A 
ATOM     32  H   UNL     1      45.862   2.108  13.103  0.00  0.00    +0.000 HD
ENDBRANCH  19  22
ENDBRANCH  17  18
ENDBRANCH   4  17
TORSDOF 6
ENDMDL
MODEL 8
REMARK VINA RESULT:    -6.888      1.956      3.024
REMARK INTER + INTRA:         -10.310
REMARK INTER:                  -9.296
REMARK INTRA:                  -1.013
REMARK UNBOUND:                -1.005
REMARK  Name = 
REMARK  7 active torsions:
REMARK  status: ('A' for Active; 'I' for Inactive)
REMARK    1  A    between atoms: C_1  and  N_2
REMARK    2  A    between atoms: N_2  and  C_3
REMARK    3  A    between atoms: C_3  and  C_4
REMARK    4  A    between atoms: C_7  and  C_8
REMARK    5  A    between atoms: C_8  and  N_9
REMARK    6  A    between atoms: C_10  and  C_12
REMARK    7  A    between atoms: C_24  and  C_26
REMARK                            x       y       z     vdW  Elec       q    Type
REMARK                         _______ _______ _______ _____ _____    ______ ____
ROOT
ATOM      1  C   UNL     1      47.434   5.617  13.802  0.00  0.00    +0.000 A 
ATOM      2  C   UNL     1      48.070   6.213  14.887  0.00  0.00    +0.000 A 
ATOM      3  C   UNL     1      48.226   5.475  16.060  0.00  0.00    +0.000 A 
ATOM      4  C   UNL     1      47.762   4.158  16.120  0.00  0.00    +0.000 A 
ATOM      5  C   UNL     1      47.130   3.655  14.990  0.00  0.00    +0.000 A 
ATOM      6  N   UNL     1      46.960   4.347  13.846  0.00  0.00    +0.000 NA
ENDROOT
BRANCH   1   7
ATOM      7  C   UNL     1      47.231   6.371  12.509  0.00  0.00    +0.000 C 
BRANCH   7   9
ATOM      8  C   UNL     1      46.031   8.567  12.968  0.00  0.00    +0.000 C 
ATOM      9  N   UNL     1      46.044   7.238  12.387  0.00  0.00    +0.000 N 
ATOM     10  C   UNL     1      44.938   6.876  11.591  0.00  0.00    +0.000 C 
ATOM     11  O   UNL     1      44.062   7.705  11.343  0.00  0.00    +0.000 OA
BRANCH  10  12
ATOM     12  C   UNL     1      44.879   5.530  11.033  0.00  0.00    +0.000 A 
ATOM     13  C   UNL     1      45.278   5.048   9.802  0.00  0.00    +0.000 A 
ATOM     14  C   UNL     1      44.991   3.658   9.790  0.00  0.00    +0.000 A 
ATOM     15  C   UNL     1      44.411   3.381  10.999  0.00  0.00    +0.000 A 
ATOM     16  O   UNL     1      44.322   4.508  11.747  0.00  0.00    +0.000 OA
ENDBRANCH  10  12
ENDBRANCH   7   9
ENDBRANCH   1   7
BRANCH   4  17
ATOM     17  C   UNL     1      47.861   3.325  17.364  0.00  0.00    +0.000 C 
BRANCH  17  18
ATOM     18  N   UNL     1      49.240   3.098  17.707  0.00  0.00    +0.000 N 
ATOM     19  C   UNL     1      50.037   2.243  16.993  0.00  0.00    +0.000 C 
ATOM     20  O   UNL     1      49.634   1.646  15.999  0.00  0.00    +0.000 OA
ATOM     21  H   UNL     1      49.517   3.340  18.652  0.00  0.00    +0.000 HD
BRANCH  19  22
ATOM     22  C   UNL     1      51.428   2.140  17.449  0.00  0.00    +0.000 A 
ATOM     23  C   UNL     1      51.999   0.892  17.667  0.00  0.00    +0.000 A 
ATOM     24  S   UNL     1      53.646   0.964  18.106  0.00  0.00    +0.000 S 
ATOM     25  C   UNL     1      53.639   2.665  18.078  0.00  0.00    +0.000 A 
ATOM     26  N   UNL     1      54.756   3.377  18.382  0.00  0.00    +0.000 NA
ATOM     27  C   UNL     1      54.601   4.658  18.348  0.00  0.00    +0.000 A 
ATOM     28  N   UNL     1      53.426   5.294  18.038  0.00  0.00    +0.000 N 
ATOM     29  C   UNL     1      52.282   4.616  17.699  0.00  0.00    +0.000 A 
ATOM     30  O   UNL     1      51.260   5.212  17.377  0.00  0.00    +0.000 OA
ATOM     31  C   UNL     1      52.401   3.171  17.726  0.00  0.00    +0.000 A 
ATOM     32  H   UNL     1      53.370   6.300  18.023  0.00  0.00    +0.000 HD
ENDBRANCH  19  22
ENDBRANCH  17  18
ENDBRANCH   4  17
TORSDOF 6
ENDMDL
MODEL 9
REMARK VINA RESULT:    -6.829      3.247      9.357
REMARK INTER + INTRA:         -10.230
REMARK INTER:                  -9.161
REMARK INTRA:                  -1.069
REMARK UNBOUND:                -1.005
REMARK  Name = 
REMARK  7 active torsions:
REMARK  status: ('A' for Active; 'I' for Inactive)
REMARK    1  A    between atoms: C_1  and  N_2
REMARK    2  A    between atoms: N_2  and  C_3
REMARK    3  A    between atoms: C_3  and  C_4
REMARK    4  A    between atoms: C_7  and  C_8
REMARK    5  A    between atoms: C_8  and  N_9
REMARK    6  A    between atoms: C_10  and  C_12
REMARK    7  A    between atoms: C_24  and  C_26
REMARK                            x       y       z     vdW  Elec       q    Type
REMARK                         _______ _______ _______ _____ _____    ______ ____
ROOT
ATOM      1  C   UNL     1      51.278   3.599  17.700  0.00  0.00    +0.000 A 
ATOM      2  C   UNL     1      50.736   2.366  17.346  0.00  0.00    +0.000 A 
ATOM      3  C   UNL     1      49.372   2.288  17.068  0.00  0.00    +0.000 A 
ATOM      4  C   UNL     1      48.583   3.439  17.134  0.00  0.00    +0.000 A 
ATOM      5  C   UNL     1      49.210   4.621  17.509  0.00  0.00    +0.000 A 
ATOM      6  N   UNL     1      50.525   4.724  17.788  0.00  0.00    +0.000 NA
ENDROOT
BRANCH   1   7
ATOM      7  C   UNL     1      52.747   3.741  18.018  0.00  0.00    +0.000 C 
BRANCH   7   9
ATOM      8  C   UNL     1      53.014   4.376  20.468  0.00  0.00    +0.000 C 
ATOM      9  N   UNL     1      53.144   4.706  19.060  0.00  0.00    +0.000 N 
ATOM     10  C   UNL     1      53.791   5.918  18.743  0.00  0.00    +0.000 C 
ATOM     11  O   UNL     1      54.294   6.599  19.638  0.00  0.00    +0.000 OA
BRANCH  10  12
ATOM     12  C   UNL     1      53.894   6.320  17.345  0.00  0.00    +0.000 A 
ATOM     13  C   UNL     1      54.912   6.139  16.430  0.00  0.00    +0.000 A 
ATOM     14  C   UNL     1      54.481   6.729  15.212  0.00  0.00    +0.000 A 
ATOM     15  C   UNL     1      53.243   7.254  15.463  0.00  0.00    +0.000 A 
ATOM     16  O   UNL     1      52.890   7.030  16.753  0.00  0.00    +0.000 OA
ENDBRANCH  10  12
ENDBRANCH   7   9
ENDBRANCH   1   7
BRANCH   4  17
ATOM     17  C   UNL     1      47.103   3.416  16.890  0.00  0.00    +0.000 C 
BRANCH  17  18
ATOM     18  N   UNL     1      46.742   4.400  15.903  0.00  0.00    +0.000 N 
ATOM     19  C   UNL     1      46.865   4.164  14.559  0.00  0.00    +0.000 C 
ATOM     20  O   UNL     1      47.259   3.090  14.115  0.00  0.00    +0.000 OA
ATOM     21  H   UNL     1      46.688   5.362  16.221  0.00  0.00    +0.000 HD
BRANCH  19  22
ATOM     22  C   UNL     1      46.428   5.255  13.680  0.00  0.00    +0.000 A 
ATOM     23  C   UNL     1      47.274   6.328  13.430  0.00  0.00    +0.000 A 
ATOM     24  S   UNL     1      46.637   7.453  12.316  0.00  0.00    +0.000 S 
ATOM     25  C   UNL     1      45.186   6.576  12.174  0.00  0.00    +0.000 A 
ATOM     26  N   UNL     1      44.178   7.010  11.370  0.00  0.00    +0.000 NA
ATOM     27  C   UNL     1      43.126   6.263  11.379  0.00  0.00    +0.000 A 
ATOM     28  N   UNL     1      42.987   5.118  12.122  0.00  0.00    +0.000 N 
ATOM     29  C   UNL     1      43.987   4.629  12.924  0.00  0.00    +0.000 A 
ATOM     30  O   UNL     1      43.854   3.576  13.538  0.00  0.00    +0.000 OA
ATOM     31  C   UNL     1      45.193   5.435  12.955  0.00  0.00    +0.000 A 
ATOM     32  H   UNL     1      42.140   4.573  12.081  0.00  0.00    +0.000 HD
ENDBRANCH  19  22
ENDBRANCH  17  18
ENDBRANCH   4  17
TORSDOF 6
ENDMDL
