MODEL 1
REMARK VINA RESULT:    -7.499      0.000      0.000
REMARK INTER + INTRA:         -10.764
REMARK INTER:                 -10.129
REMARK INTRA:                  -0.634
REMARK UNBOUND:                -0.634
REMARK  Name = 
REMARK  6 active torsions:
REMARK  status: ('A' for Active; 'I' for Inactive)
REMARK    1  A    between atoms: C_2  and  C_3
REMARK    2  A    between atoms: N_8  and  C_9
REMARK    3  A    between atoms: C_9  and  C_10
REMARK    4  A    between atoms: C_10  and  C_11
REMARK    5  A    between atoms: C_13  and  N_14
REMARK    6  A    between atoms: N_14  and  C_15
REMARK                            x       y       z     vdW  Elec       q    Type
REMARK                         _______ _______ _______ _____ _____    ______ ____
ROOT
ATOM      1  C   UNL     1      45.019   5.536  12.572  0.00  0.00    +0.000 A 
ATOM      2  C   UNL     1      45.350   4.623  13.576  0.00  0.00    +0.000 A 
ATOM      3  C   UNL     1      46.633   4.630  14.124  0.00  0.00    +0.000 A 
ATOM      4  C   UNL     1      47.561   5.526  13.597  0.00  0.00    +0.000 A 
ATOM      5  C   UNL     1      47.157   6.399  12.602  0.00  0.00    +0.000 A 
ATOM      6  N   UNL     1      45.908   6.430  12.089  0.00  0.00    +0.000 NA
ENDROOT
BRANCH   3   7
ATOM      7  N   UNL     1      47.038   3.709  15.117  0.00  0.00    +0.000 N 
ATOM      8  H   UNL     1      47.253   2.795  14.722  0.00  0.00    +0.000 HD
BRANCH   7   9
ATOM      9  C   UNL     1      47.862   4.018  16.259  0.00  0.00    +0.000 C 
ATOM     10  C   UNL     1      48.380   2.771  17.009  0.00  0.00    +0.000 C 
ATOM     11  N   UNL     1      47.957   3.386  18.288  0.00  0.00    +0.000 NA
ATOM     12  C   UNL     1      47.043   4.280  17.542  0.00  0.00    +0.000 C 
ATOM     13  H   UNL     1      48.708   3.885  18.764  0.00  0.00    +0.000 HD
ENDBRANCH   7   9
ENDBRANCH   3   7
BRANCH   1  14
ATOM     14  C   UNL     1      43.618   5.529  12.008  0.00  0.00    +0.000 C 
BRANCH  14  15
ATOM     15  C   UNL     1      43.537   5.243  10.504  0.00  0.00    +0.000 C 
BRANCH  15  21
ATOM     16  C   UNL     1      46.135   2.002   8.069  0.00  0.00    +0.000 A 
ATOM     17  C   UNL     1      46.728   3.055   7.384  0.00  0.00    +0.000 A 
ATOM     18  C   UNL     1      46.297   4.330   7.683  0.00  0.00    +0.000 A 
ATOM     19  N   UNL     1      45.347   4.601   8.602  0.00  0.00    +0.000 NA
ATOM     20  C   UNL     1      44.772   3.578   9.262  0.00  0.00    +0.000 A 
ATOM     21  N   UNL     1      43.815   3.818  10.264  0.00  0.00    +0.000 N 
ATOM     22  C   UNL     1      45.139   2.262   9.012  0.00  0.00    +0.000 A 
ATOM     23  H   UNL     1      42.974   3.292  10.048  0.00  0.00    +0.000 HD
BRANCH  16  25
ATOM     24  N   UNL     1      46.888  -0.439   7.630  0.00  0.00    +0.000 NA
ATOM     25  C   UNL     1      46.551   0.655   7.822  0.00  0.00    +0.000 C 
ENDBRANCH  16  25
ENDBRANCH  15  21
ENDBRANCH  14  15
ENDBRANCH   1  14
TORSDOF 6
ENDMDL
MODEL 2
REMARK VINA RESULT:    -7.396      1.629      7.709
REMARK INTER + INTRA:         -10.624
REMARK INTER:                  -9.926
REMARK INTRA:                  -0.698
REMARK UNBOUND:                -0.634
REMARK  Name = 
REMARK  6 active torsions:
REMARK  status: ('A' for Active; 'I' for Inactive)
REMARK    1  A    between atoms: C_2  and  C_3
REMARK    2  A    between atoms: N_8  and  C_9
REMARK    3  A    between atoms: C_9  and  C_10
REMARK    4  A    between atoms: C_10  and  C_11
REMARK    5  A    between atoms: C_13  and  N_14
REMARK    6  A    between atoms: N_14  and  C_15
REMARK                            x       y       z     vdW  Elec       q    Type
REMARK                         _______ _______ _______ _____ _____    ______ ____
ROOT
ATOM      1  C   UNL     1      45.031   5.006  10.305  0.00  0.00    +0.000 A 
ATOM      2  C   UNL     1      45.527   4.738   9.027  0.00  0.00    +0.000 A 
ATOM      3  C   UNL     1      45.255   3.510   8.421  0.00  0.00    +0.000 A 
ATOM      4  C   UNL     1      44.536   2.568   9.154  0.00  0.00    +0.000 A 
ATOM      5  C   UNL     1      44.078   2.909  10.415  0.00  0.00    +0.000 A 
ATOM      6  N   UNL     1      44.300   4.107  10.998  0.00  0.00    +0.000 NA
ENDROOT
BRANCH   3   7
ATOM      7  N   UNL     1      45.757   3.168   7.144  0.00  0.00    +0.000 N 
ATOM      8  H   UNL     1      45.215   3.596   6.397  0.00  0.00    +0.000 HD
BRANCH   7   9
ATOM      9  C   UNL     1      47.152   3.036   6.802  0.00  0.00    +0.000 C 
ATOM     10  C   UNL     1      47.398   2.694   5.316  0.00  0.00    +0.000 C 
ATOM     11  N   UNL     1      48.334   1.626   5.735  0.00  0.00    +0.000 NA
ATOM     12  C   UNL     1      47.711   1.624   7.077  0.00  0.00    +0.000 C 
ATOM     13  H   UNL     1      49.309   1.925   5.744  0.00  0.00    +0.000 HD
ENDBRANCH   7   9
ENDBRANCH   3   7
BRANCH   1  14
ATOM     14  C   UNL     1      45.316   6.349  10.934  0.00  0.00    +0.000 C 
BRANCH  14  15
ATOM     15  C   UNL     1      46.521   6.367  11.883  0.00  0.00    +0.000 C 
BRANCH  15  21
ATOM     16  C   UNL     1      47.832   4.577  16.156  0.00  0.00    +0.000 A 
ATOM     17  C   UNL     1      48.653   5.685  16.320  0.00  0.00    +0.000 A 
ATOM     18  C   UNL     1      48.700   6.599  15.289  0.00  0.00    +0.000 A 
ATOM     19  N   UNL     1      47.991   6.475  14.148  0.00  0.00    +0.000 NA
ATOM     20  C   UNL     1      47.198   5.398  13.991  0.00  0.00    +0.000 A 
ATOM     21  N   UNL     1      46.402   5.256  12.840  0.00  0.00    +0.000 N 
ATOM     22  C   UNL     1      47.102   4.424  14.976  0.00  0.00    +0.000 A 
ATOM     23  H   UNL     1      46.599   4.356  12.413  0.00  0.00    +0.000 HD
BRANCH  16  25
ATOM     24  N   UNL     1      47.622   2.806  18.036  0.00  0.00    +0.000 NA
ATOM     25  C   UNL     1      47.720   3.601  17.196  0.00  0.00    +0.000 C 
ENDBRANCH  16  25
ENDBRANCH  15  21
ENDBRANCH  14  15
ENDBRANCH   1  14
TORSDOF 6
ENDMDL
MODEL 3
REMARK VINA RESULT:    -7.298      1.032      1.503
REMARK INTER + INTRA:         -10.492
REMARK INTER:                  -9.742
REMARK INTRA:                  -0.750
REMARK UNBOUND:                -0.634
REMARK  Name = 
REMARK  6 active torsions:
REMARK  status: ('A' for Active; 'I' for Inactive)
REMARK    1  A    between atoms: C_2  and  C_3
REMARK    2  A    between atoms: N_8  and  C_9
REMARK    3  A    between atoms: C_9  and  C_10
REMARK    4  A    between atoms: C_10  and  C_11
REMARK    5  A    between atoms: C_13  and  N_14
REMARK    6  A    between atoms: N_14  and  C_15
REMARK                            x       y       z     vdW  Elec       q    Type
REMARK                         _______ _______ _______ _____ _____    ______ ____
ROOT
ATOM      1  C   UNL     1      45.382   6.070  12.161  0.00  0.00    +0.000 A 
ATOM      2  C   UNL     1      45.413   5.177  13.234  0.00  0.00    +0.000 A 
ATOM      3  C   UNL     1      46.590   5.013  13.966  0.00  0.00    +0.000 A 
ATOM      4  C   UNL     1      47.718   5.717  13.550  0.00  0.00    +0.000 A 
ATOM      5  C   UNL     1      47.607   6.583  12.476  0.00  0.00    +0.000 A 
ATOM      6  N   UNL     1      46.465   6.782  11.783  0.00  0.00    +0.000 NA
ENDROOT
BRANCH   3   7
ATOM      7  N   UNL     1      46.693   4.100  15.040  0.00  0.00    +0.000 N 
ATOM      8  H   UNL     1      46.501   3.144  14.746  0.00  0.00    +0.000 HD
BRANCH   7   9
ATOM      9  C   UNL     1      47.670   4.160  16.098  0.00  0.00    +0.000 C 
ATOM     10  C   UNL     1      48.013   2.782  16.708  0.00  0.00    +0.000 C 
ATOM     11  N   UNL     1      47.845   3.360  18.061  0.00  0.00    +0.000 NA
ATOM     12  C   UNL     1      47.049   4.463  17.479  0.00  0.00    +0.000 C 
ATOM     13  H   UNL     1      48.722   3.672  18.478  0.00  0.00    +0.000 HD
ENDBRANCH   7   9
ENDBRANCH   3   7
BRANCH   1  14
ATOM     14  C   UNL     1      44.092   6.252  11.396  0.00  0.00    +0.000 C 
BRANCH  14  15
ATOM     15  C   UNL     1      43.791   5.144  10.380  0.00  0.00    +0.000 C 
BRANCH  15  21
ATOM     16  C   UNL     1      46.526   2.289   7.632  0.00  0.00    +0.000 A 
ATOM     17  C   UNL     1      45.850   1.199   8.165  0.00  0.00    +0.000 A 
ATOM     18  C   UNL     1      44.888   1.454   9.120  0.00  0.00    +0.000 A 
ATOM     19  N   UNL     1      44.570   2.693   9.549  0.00  0.00    +0.000 NA
ATOM     20  C   UNL     1      45.230   3.747   9.031  0.00  0.00    +0.000 A 
ATOM     21  N   UNL     1      44.895   5.058   9.411  0.00  0.00    +0.000 N 
ATOM     22  C   UNL     1      46.222   3.578   8.074  0.00  0.00    +0.000 A 
ATOM     23  H   UNL     1      45.733   5.530   9.739  0.00  0.00    +0.000 HD
BRANCH  16  25
ATOM     24  N   UNL     1      48.334   1.938   5.809  0.00  0.00    +0.000 NA
ATOM     25  C   UNL     1      47.522   2.097   6.622  0.00  0.00    +0.000 C 
ENDBRANCH  16  25
ENDBRANCH  15  21
ENDBRANCH  14  15
ENDBRANCH   1  14
TORSDOF 6
ENDMDL
MODEL 4
REMARK VINA RESULT:    -7.253      1.909      3.621
REMARK INTER + INTRA:         -10.432
REMARK INTER:                  -9.648
REMARK INTRA:                  -0.784
REMARK UNBOUND:                -0.634
REMARK  Name = 
REMARK  6 active torsions:
REMARK  status: ('A' for Active; 'I' for Inactive)
REMARK    1  A    between atoms: C_2  and  C_3
REMARK    2  A    between atoms: N_8  and  C_9
REMARK    3  A    between atoms: C_9  and  C_10
REMARK    4  A    between atoms: C_10  and  C_11
REMARK    5  A    between atoms: C_13  and  N_14
REMARK    6  A    between atoms: N_14  and  C_15
REMARK                            x       y       z     vdW  Elec       q    Type
REMARK                         _______ _______ _______ _____ _____    ______ ____
ROOT
ATOM      1  C   UNL     1      44.823   5.108  13.135  0.00  0.00    +0.000 A 
ATOM      2  C   UNL     1      45.401   6.353  12.876  0.00  0.00    +0.000 A 
ATOM      3  C   UNL     1      46.760   6.552  13.124  0.00  0.00    +0.000 A 
ATOM      4  C   UNL     1      47.481   5.498  13.681  0.00  0.00    +0.000 A 
ATOM      5  C   UNL     1      46.837   4.294  13.909  0.00  0.00    +0.000 A 
ATOM      6  N   UNL     1      45.532   4.075  13.639  0.00  0.00    +0.000 NA
ENDROOT
BRANCH   3   7
ATOM      7  N   UNL     1      47.393   7.799  12.914  0.00  0.00    +0.000 N 
ATOM      8  H   UNL     1      47.754   8.191  13.782  0.00  0.00    +0.000 HD
BRANCH   7   9
ATOM      9  C   UNL     1      48.212   8.140  11.778  0.00  0.00    +0.000 C 
ATOM     10  C   UNL     1      49.700   7.759  11.945  0.00  0.00    +0.000 C 
ATOM     11  N   UNL     1      50.081   9.112  11.481  0.00  0.00    +0.000 NA
ATOM     12  C   UNL     1      48.723   9.596  11.817  0.00  0.00    +0.000 C 
ATOM     13  H   UNL     1      50.287   9.152  10.483  0.00  0.00    +0.000 HD
ENDBRANCH   7   9
ENDBRANCH   3   7
BRANCH   1  14
ATOM     14  C   UNL     1      43.356   4.905  12.839  0.00  0.00    +0.000 C 
BRANCH  14  15
ATOM     15  C   UNL     1      43.031   4.667  11.359  0.00  0.00    +0.000 C 
BRANCH  15  21
ATOM     16  C   UNL     1      45.809   2.085   8.393  0.00  0.00    +0.000 A 
ATOM     17  C   UNL     1      46.145   3.268   7.747  0.00  0.00    +0.000 A 
ATOM     18  C   UNL     1      45.556   4.429   8.201  0.00  0.00    +0.000 A 
ATOM     19  N   UNL     1      44.687   4.472   9.232  0.00  0.00    +0.000 NA
ATOM     20  C   UNL     1      44.362   3.323   9.855  0.00  0.00    +0.000 A 
ATOM     21  N   UNL     1      43.501   3.329  10.967  0.00  0.00    +0.000 N 
ATOM     22  C   UNL     1      44.901   2.108   9.453  0.00  0.00    +0.000 A 
ATOM     23  H   UNL     1      42.735   2.686  10.793  0.00  0.00    +0.000 HD
BRANCH  16  25
ATOM     24  N   UNL     1      46.885  -0.152   7.650  0.00  0.00    +0.000 NA
ATOM     25  C   UNL     1      46.402   0.847   7.987  0.00  0.00    +0.000 C 
ENDBRANCH  16  25
ENDBRANCH  15  21
ENDBRANCH  14  15
ENDBRANCH   1  14
TORSDOF 6
ENDMDL
MODEL 5
REMARK VINA RESULT:    -6.775      3.122      7.367
REMARK INTER + INTRA:          -9.786
REMARK INTER:                  -9.228
REMARK INTRA:                  -0.558
REMARK UNBOUND:                -0.634
REMARK  Name = 
REMARK  6 active torsions:
REMARK  status: ('A' for Active; 'I' for Inactive)
REMARK    1  A    between atoms: C_2  and  C_3
REMARK    2  A    between atoms: N_8  and  C_9
REMARK    3  A    between atoms: C_9  and  C_10
REMARK    4  A    between atoms: C_10  and  C_11
REMARK    5  A    between atoms: C_13  and  N_14
REMARK    6  A    between atoms: N_14  and  C_15
REMARK                            x       y       z     vdW  Elec       q    Type
REMARK                         _______ _______ _______ _____ _____    ______ ____
ROOT
ATOM      1  C   UNL     1      43.969   4.377  10.317  0.00  0.00    +0.000 A 
ATOM      2  C   UNL     1      44.776   4.548   9.189  0.00  0.00    +0.000 A 
ATOM      3  C   UNL     1      45.259   3.431   8.507  0.00  0.00    +0.000 A 
ATOM      4  C   UNL     1      44.956   2.172   9.022  0.00  0.00    +0.000 A 
ATOM      5  C   UNL     1      44.150   2.085  10.144  0.00  0.00    +0.000 A 
ATOM      6  N   UNL     1      43.644   3.156  10.792  0.00  0.00    +0.000 NA
ENDROOT
BRANCH   3   7
ATOM      7  N   UNL     1      46.107   3.539   7.380  0.00  0.00    +0.000 N 
ATOM      8  H   UNL     1      46.834   4.238   7.519  0.00  0.00    +0.000 HD
BRANCH   7   9
ATOM      9  C   UNL     1      46.554   2.441   6.561  0.00  0.00    +0.000 C 
ATOM     10  C   UNL     1      47.946   1.897   6.954  0.00  0.00    +0.000 C 
ATOM     11  N   UNL     1      48.345   1.937   5.529  0.00  0.00    +0.000 NA
ATOM     12  C   UNL     1      47.253   2.900   5.263  0.00  0.00    +0.000 C 
ATOM     13  H   UNL     1      48.221   1.045   5.050  0.00  0.00    +0.000 HD
ENDBRANCH   7   9
ENDBRANCH   3   7
BRANCH   1  14
ATOM     14  C   UNL     1      43.437   5.598  11.029  0.00  0.00    +0.000 C 
BRANCH  14  15
ATOM     15  C   UNL     1      44.081   5.873  12.393  0.00  0.00    +0.000 C 
BRANCH  15  21
ATOM     16  C   UNL     1      48.314   8.152  12.124  0.00  0.00    +0.000 A 
ATOM     17  C   UNL     1      47.619   9.355  12.143  0.00  0.00    +0.000 A 
ATOM     18  C   UNL     1      46.242   9.293  12.183  0.00  0.00    +0.000 A 
ATOM     19  N   UNL     1      45.547   8.137  12.213  0.00  0.00    +0.000 NA
ATOM     20  C   UNL     1      46.224   6.972  12.193  0.00  0.00    +0.000 A 
ATOM     21  N   UNL     1      45.542   5.746  12.275  0.00  0.00    +0.000 N 
ATOM     22  C   UNL     1      47.612   6.946  12.139  0.00  0.00    +0.000 A 
ATOM     23  H   UNL     1      45.816   5.163  11.490  0.00  0.00    +0.000 HD
BRANCH  16  25
ATOM     24  N   UNL     1      50.905   8.145  12.081  0.00  0.00    +0.000 NA
ATOM     25  C   UNL     1      49.745   8.145  12.104  0.00  0.00    +0.000 C 
ENDBRANCH  16  25
ENDBRANCH  15  21
ENDBRANCH  14  15
ENDBRANCH   1  14
TORSDOF 6
ENDMDL
MODEL 6
REMARK VINA RESULT:    -6.635      1.659      7.925
REMARK INTER + INTRA:          -9.597
REMARK INTER:                  -9.084
REMARK INTRA:                  -0.513
REMARK UNBOUND:                -0.634
REMARK  Name = 
REMARK  6 active torsions:
REMARK  status: ('A' for Active; 'I' for Inactive)
REMARK    1  A    between atoms: C_2  and  C_3
REMARK    2  A    between atoms: N_8  and  C_9
REMARK    3  A    between atoms: C_9  and  C_10
REMARK    4  A    between atoms: C_10  and  C_11
REMARK    5  A    between atoms: C_13  and  N_14
REMARK    6  A    between atoms: N_14  and  C_15
REMARK                            x       y       z     vdW  Elec       q    Type
REMARK                         _______ _______ _______ _____ _____    ______ ____
ROOT
ATOM      1  C   UNL     1      45.239   5.537  12.797  0.00  0.00    +0.000 A 
ATOM      2  C   UNL     1      45.593   4.515  11.913  0.00  0.00    +0.000 A 
ATOM      3  C   UNL     1      44.624   3.615  11.469  0.00  0.00    +0.000 A 
ATOM      4  C   UNL     1      43.334   3.743  11.981  0.00  0.00    +0.000 A 
ATOM      5  C   UNL     1      43.061   4.782  12.854  0.00  0.00    +0.000 A 
ATOM      6  N   UNL     1      43.980   5.684  13.261  0.00  0.00    +0.000 NA
ENDROOT
BRANCH   3   7
ATOM      7  N   UNL     1      44.928   2.540  10.602  0.00  0.00    +0.000 N 
ATOM      8  H   UNL     1      44.740   1.638  11.036  0.00  0.00    +0.000 HD
BRANCH   7   9
ATOM      9  C   UNL     1      44.696   2.522   9.179  0.00  0.00    +0.000 C 
ATOM     10  C   UNL     1      45.926   2.087   8.353  0.00  0.00    +0.000 C 
ATOM     11  N   UNL     1      45.713   3.247   7.458  0.00  0.00    +0.000 NA
ATOM     12  C   UNL     1      44.908   3.899   8.515  0.00  0.00    +0.000 C 
ATOM     13  H   UNL     1      45.173   3.018   6.624  0.00  0.00    +0.000 HD
ENDBRANCH   7   9
ENDBRANCH   3   7
BRANCH   1  14
ATOM     14  C   UNL     1      46.297   6.516  13.248  0.00  0.00    +0.000 C 
BRANCH  14  15
ATOM     15  C   UNL     1      47.616   5.871  13.689  0.00  0.00    +0.000 C 
BRANCH  15  21
ATOM     16  C   UNL     1      48.424   4.272  18.158  0.00  0.00    +0.000 A 
ATOM     17  C   UNL     1      48.245   2.979  17.682  0.00  0.00    +0.000 A 
ATOM     18  C   UNL     1      47.927   2.831  16.348  0.00  0.00    +0.000 A 
ATOM     19  N   UNL     1      47.792   3.867  15.494  0.00  0.00    +0.000 NA
ATOM     20  C   UNL     1      47.965   5.119  15.959  0.00  0.00    +0.000 A 
ATOM     21  N   UNL     1      47.884   6.223  15.092  0.00  0.00    +0.000 N 
ATOM     22  C   UNL     1      48.274   5.357  17.292  0.00  0.00    +0.000 A 
ATOM     23  H   UNL     1      47.206   6.882  15.461  0.00  0.00    +0.000 HD
BRANCH  16  25
ATOM     24  N   UNL     1      49.071   4.678  20.635  0.00  0.00    +0.000 NA
ATOM     25  C   UNL     1      48.777   4.494  19.527  0.00  0.00    +0.000 C 
ENDBRANCH  16  25
ENDBRANCH  15  21
ENDBRANCH  14  15
ENDBRANCH   1  14
TORSDOF 6
ENDMDL
MODEL 7
REMARK VINA RESULT:    -6.504      2.107      7.874
REMARK INTER + INTRA:          -9.420
REMARK INTER:                  -9.029
REMARK INTRA:                  -0.391
REMARK UNBOUND:                -0.634
REMARK  Name = 
REMARK  6 active torsions:
REMARK  status: ('A' for Active; 'I' for Inactive)
REMARK    1  A    between atoms: C_2  and  C_3
REMARK    2  A    between atoms: N_8  and  C_9
REMARK    3  A    between atoms: C_9  and  C_10
REMARK    4  A    between atoms: C_10  and  C_11
REMARK    5  A    between atoms: C_13  and  N_14
REMARK    6  A    between atoms: N_14  and  C_15
REMARK                            x       y       z     vdW  Elec       q    Type
REMARK                         _______ _______ _______ _____ _____    ______ ____
ROOT
ATOM      1  C   UNL     1      45.545   4.462  13.196  0.00  0.00    +0.000 A 
ATOM      2  C   UNL     1      45.545   3.504  12.180  0.00  0.00    +0.000 A 
ATOM      3  C   UNL     1      44.375   3.254  11.463  0.00  0.00    +0.000 A 
ATOM      4  C   UNL     1      43.222   3.943  11.837  0.00  0.00    +0.000 A 
ATOM      5  C   UNL     1      43.303   4.876  12.856  0.00  0.00    +0.000 A 
ATOM      6  N   UNL     1      44.437   5.157  13.532  0.00  0.00    +0.000 NA
ENDROOT
BRANCH   3   7
ATOM      7  N   UNL     1      44.304   2.274  10.446  0.00  0.00    +0.000 N 
ATOM      8  H   UNL     1      43.586   1.578  10.640  0.00  0.00    +0.000 HD
BRANCH   7   9
ATOM      9  C   UNL     1      44.459   2.520   9.034  0.00  0.00    +0.000 C 
ATOM     10  C   UNL     1      45.804   2.023   8.460  0.00  0.00    +0.000 C 
ATOM     11  N   UNL     1      45.979   3.329   7.785  0.00  0.00    +0.000 NA
ATOM     12  C   UNL     1      45.005   3.930   8.723  0.00  0.00    +0.000 C 
ATOM     13  H   UNL     1      45.658   3.329   6.817  0.00  0.00    +0.000 HD
ENDBRANCH   7   9
ENDBRANCH   3   7
BRANCH   1  14
ATOM     14  C   UNL     1      46.828   4.735  13.946  0.00  0.00    +0.000 C 
BRANCH  14  15
ATOM     15  C   UNL     1      46.782   4.386  15.438  0.00  0.00    +0.000 C 
BRANCH  15  21
ATOM     16  C   UNL     1      50.721   2.409  17.376  0.00  0.00    +0.000 A 
ATOM     17  C   UNL     1      51.127   3.684  17.747  0.00  0.00    +0.000 A 
ATOM     18  C   UNL     1      50.317   4.740  17.383  0.00  0.00    +0.000 A 
ATOM     19  N   UNL     1      49.163   4.595  16.701  0.00  0.00    +0.000 NA
ATOM     20  C   UNL     1      48.773   3.356  16.340  0.00  0.00    +0.000 A 
ATOM     21  N   UNL     1      47.552   3.155  15.674  0.00  0.00    +0.000 N 
ATOM     22  C   UNL     1      49.537   2.240  16.656  0.00  0.00    +0.000 A 
ATOM     23  H   UNL     1      47.726   2.639  14.816  0.00  0.00    +0.000 HD
BRANCH  16  25
ATOM     24  N   UNL     1      52.145   0.347  18.037  0.00  0.00    +0.000 NA
ATOM     25  C   UNL     1      51.504   1.267  17.741  0.00  0.00    +0.000 C 
ENDBRANCH  16  25
ENDBRANCH  15  21
ENDBRANCH  14  15
ENDBRANCH   1  14
TORSDOF 6
ENDMDL
MODEL 8
REMARK VINA RESULT:    -6.463      2.680      3.314
REMARK INTER + INTRA:          -9.365
REMARK INTER:                  -8.859
REMARK INTRA:                  -0.506
REMARK UNBOUND:                -0.634
REMARK  Name = 
REMARK  6 active torsions:
REMARK  status: ('A' for Active; 'I' for Inactive)
REMARK    1  A    between atoms: C_2  and  C_3
REMARK    2  A    between atoms: N_8  and  C_9
REMARK    3  A    between atoms: C_9  and  C_10
REMARK    4  A    between atoms: C_10  and  C_11
REMARK    5  A    between atoms: C_13  and  N_14
REMARK    6  A    between atoms: N_14  and  C_15
REMARK                            x       y       z     vdW  Elec       q    Type
REMARK                         _______ _______ _______ _____ _____    ______ ____
ROOT
ATOM      1  C   UNL     1      44.998   6.047  11.928  0.00  0.00    +0.000 A 
ATOM      2  C   UNL     1      46.031   6.017  12.868  0.00  0.00    +0.000 A 
ATOM      3  C   UNL     1      46.615   7.210  13.295  0.00  0.00    +0.000 A 
ATOM      4  C   UNL     1      46.171   8.396  12.714  0.00  0.00    +0.000 A 
ATOM      5  C   UNL     1      45.143   8.344  11.789  0.00  0.00    +0.000 A 
ATOM      6  N   UNL     1      44.542   7.200  11.394  0.00  0.00    +0.000 NA
ENDROOT
BRANCH   3   7
ATOM      7  N   UNL     1      47.686   7.241  14.218  0.00  0.00    +0.000 N 
ATOM      8  H   UNL     1      47.871   6.322  14.615  0.00  0.00    +0.000 HD
BRANCH   7   9
ATOM      9  C   UNL     1      48.886   8.029  14.080  0.00  0.00    +0.000 C 
ATOM     10  C   UNL     1      49.687   7.723  12.795  0.00  0.00    +0.000 C 
ATOM     11  N   UNL     1      50.922   7.636  13.607  0.00  0.00    +0.000 NA
ATOM     12  C   UNL     1      50.097   7.418  14.816  0.00  0.00    +0.000 C 
ATOM     13  H   UNL     1      51.450   8.508  13.631  0.00  0.00    +0.000 HD
ENDBRANCH   7   9
ENDBRANCH   3   7
BRANCH   1  14
ATOM     14  C   UNL     1      44.363   4.747  11.495  0.00  0.00    +0.000 C 
BRANCH  14  15
ATOM     15  C   UNL     1      43.736   4.777  10.096  0.00  0.00    +0.000 C 
BRANCH  15  21
ATOM     16  C   UNL     1      46.724   2.265   7.277  0.00  0.00    +0.000 A 
ATOM     17  C   UNL     1      46.220   1.104   7.849  0.00  0.00    +0.000 A 
ATOM     18  C   UNL     1      45.269   1.245   8.837  0.00  0.00    +0.000 A 
ATOM     19  N   UNL     1      44.805   2.438   9.264  0.00  0.00    +0.000 NA
ATOM     20  C   UNL     1      45.298   3.562   8.708  0.00  0.00    +0.000 A 
ATOM     21  N   UNL     1      44.805   4.823   9.086  0.00  0.00    +0.000 N 
ATOM     22  C   UNL     1      46.267   3.510   7.715  0.00  0.00    +0.000 A 
ATOM     23  H   UNL     1      45.583   5.408   9.374  0.00  0.00    +0.000 HD
BRANCH  16  25
ATOM     24  N   UNL     1      48.488   2.122   5.384  0.00  0.00    +0.000 NA
ATOM     25  C   UNL     1      47.698   2.190   6.230  0.00  0.00    +0.000 C 
ENDBRANCH  16  25
ENDBRANCH  15  21
ENDBRANCH  14  15
ENDBRANCH   1  14
TORSDOF 6
ENDMDL
MODEL 9
REMARK VINA RESULT:    -6.393      2.023      8.220
REMARK INTER + INTRA:          -9.270
REMARK INTER:                  -8.923
REMARK INTRA:                  -0.347
REMARK UNBOUND:                -0.634
REMARK  Name = 
REMARK  6 active torsions:
REMARK  status: ('A' for Active; 'I' for Inactive)
REMARK    1  A    between atoms: C_2  and  C_3
REMARK    2  A    between atoms: N_8  and  C_9
REMARK    3  A    between atoms: C_9  and  C_10
REMARK    4  A    between atoms: C_10  and  C_11
REMARK    5  A    between atoms: C_13  and  N_14
REMARK    6  A    between atoms: N_14  and  C_15
REMARK                            x       y       z     vdW  Elec       q    Type
REMARK                         _______ _______ _______ _____ _____    ______ ____
ROOT
ATOM      1  C   UNL     1      45.139   5.113  12.422  0.00  0.00    +0.000 A 
ATOM      2  C   UNL     1      45.092   5.181  11.027  0.00  0.00    +0.000 A 
ATOM      3  C   UNL     1      44.296   4.283  10.315  0.00  0.00    +0.000 A 
ATOM      4  C   UNL     1      43.614   3.305  11.036  0.00  0.00    +0.000 A 
ATOM      5  C   UNL     1      43.712   3.302  12.417  0.00  0.00    +0.000 A 
ATOM      6  N   UNL     1      44.447   4.188  13.122  0.00  0.00    +0.000 NA
ENDROOT
BRANCH   3   7
ATOM      7  N   UNL     1      44.234   4.281   8.903  0.00  0.00    +0.000 N 
ATOM      8  H   UNL     1      44.402   5.207   8.514  0.00  0.00    +0.000 HD
BRANCH   7   9
ATOM      9  C   UNL     1      44.727   3.232   8.045  0.00  0.00    +0.000 C 
ATOM     10  C   UNL     1      45.609   2.194   8.775  0.00  0.00    +0.000 C 
ATOM     11  N   UNL     1      46.611   2.310   7.691  0.00  0.00    +0.000 NA
ATOM     12  C   UNL     1      46.028   3.615   7.308  0.00  0.00    +0.000 C 
ATOM     13  H   UNL     1      46.509   1.596   6.970  0.00  0.00    +0.000 HD
ENDBRANCH   7   9
ENDBRANCH   3   7
BRANCH   1  14
ATOM     14  C   UNL     1      45.989   6.108  13.176  0.00  0.00    +0.000 C 
BRANCH  14  15
ATOM     15  C   UNL     1      47.307   5.542  13.716  0.00  0.00    +0.000 C 
BRANCH  15  21
ATOM     16  C   UNL     1      48.882   5.175  18.251  0.00  0.00    +0.000 A 
ATOM     17  C   UNL     1      49.984   5.937  17.885  0.00  0.00    +0.000 A 
ATOM     18  C   UNL     1      50.076   6.328  16.566  0.00  0.00    +0.000 A 
ATOM     19  N   UNL     1      49.156   6.018  15.629  0.00  0.00    +0.000 NA
ATOM     20  C   UNL     1      48.090   5.277  15.987  0.00  0.00    +0.000 A 
ATOM     21  N   UNL     1      47.082   4.975  15.055  0.00  0.00    +0.000 N 
ATOM     22  C   UNL     1      47.927   4.831  17.293  0.00  0.00    +0.000 A 
ATOM     23  H   UNL     1      46.947   3.969  15.030  0.00  0.00    +0.000 HD
BRANCH  16  25
ATOM     24  N   UNL     1      48.570   4.419  20.710  0.00  0.00    +0.000 NA
ATOM     25  C   UNL     1      48.713   4.755  19.609  0.00  0.00    +0.000 C 
ENDBRANCH  16  25
ENDBRANCH  15  21
ENDBRANCH  14  15
ENDBRANCH   1  14
TORSDOF 6
ENDMDL
