MODEL 1
REMARK VINA RESULT:    -8.164      0.000      0.000
REMARK INTER + INTRA:         -12.570
REMARK INTER:                 -11.504
REMARK INTRA:                  -1.065
REMARK UNBOUND:                -1.065
REMARK  Name = 
REMARK  8 active torsions:
REMARK  status: ('A' for Active; 'I' for Inactive)
REMARK    1  A    between atoms: C_1  and  C_2
REMARK    2  A    between atoms: C_2  and  C_3
REMARK    3  A    between atoms: C_2  and  N_18
REMARK    4  A    between atoms: C_3  and  C_4
REMARK    5  A    between atoms: C_7  and  O_8
REMARK    6  A    between atoms: O_8  and  C_9
REMARK    7  A    between atoms: C_9  and  C_10
REMARK    8  A    between atoms: C_19  and  C_21
REMARK                            x       y       z     vdW  Elec       q    Type
REMARK                         _______ _______ _______ _____ _____    ______ ____
ROOT
ATOM      1  C   UNL     1      48.767   8.517  15.860  0.00  0.00    +0.000 C 
ATOM      2  C   UNL     1      48.769   7.067  15.368  0.00  0.00    +0.000 C 
ENDROOT
BRANCH   2   3
ATOM      3  N   UNL     1      49.784   6.273  16.053  0.00  0.00    +0.000 N 
ATOM      4  C   UNL     1      49.510   5.368  17.049  0.00  0.00    +0.000 C 
ATOM      5  O   UNL     1      48.368   5.112  17.416  0.00  0.00    +0.000 OA
ATOM      6  H   UNL     1      50.736   6.622  15.974  0.00  0.00    +0.000 HD
BRANCH   4   7
ATOM      7  C   UNL     1      50.661   4.679  17.642  0.00  0.00    +0.000 A 
ATOM      8  C   UNL     1      51.592   5.411  18.365  0.00  0.00    +0.000 A 
ATOM      9  S   UNL     1      52.855   4.463  19.004  0.00  0.00    +0.000 S 
ATOM     10  C   UNL     1      52.227   3.051  18.293  0.00  0.00    +0.000 A 
ATOM     11  N   UNL     1      52.863   1.857  18.432  0.00  0.00    +0.000 NA
ATOM     12  C   UNL     1      52.303   0.879  17.805  0.00  0.00    +0.000 A 
ATOM     13  N   UNL     1      51.160   0.983  17.057  0.00  0.00    +0.000 N 
ATOM     14  C   UNL     1      50.445   2.151  16.945  0.00  0.00    +0.000 A 
ATOM     15  O   UNL     1      49.365   2.188  16.367  0.00  0.00    +0.000 OA
ATOM     16  C   UNL     1      51.054   3.294  17.600  0.00  0.00    +0.000 A 
ATOM     17  H   UNL     1      50.758   0.172  16.609  0.00  0.00    +0.000 HD
ENDBRANCH   4   7
ENDBRANCH   2   3
BRANCH   2  18
ATOM     18  C   UNL     1      48.875   7.016  13.833  0.00  0.00    +0.000 C 
BRANCH  18  19
ATOM     19  C   UNL     1      47.768   6.244  13.151  0.00  0.00    +0.000 A 
ATOM     20  C   UNL     1      47.188   5.120  13.750  0.00  0.00    +0.000 A 
ATOM     21  C   UNL     1      46.096   4.487  13.148  0.00  0.00    +0.000 A 
ATOM     22  C   UNL     1      45.578   4.966  11.945  0.00  0.00    +0.000 A 
ATOM     23  C   UNL     1      46.211   6.029  11.301  0.00  0.00    +0.000 A 
ATOM     24  C   UNL     1      47.286   6.673  11.909  0.00  0.00    +0.000 A 
BRANCH  22  25
ATOM     25  O   UNL     1      44.444   4.347  11.488  0.00  0.00    +0.000 OA
BRANCH  25  26
ATOM     26  C   UNL     1      44.125   4.633  10.124  0.00  0.00    +0.000 C 
BRANCH  26  27
ATOM     27  C   UNL     1      44.911   3.739   9.211  0.00  0.00    +0.000 A 
ATOM     28  C   UNL     1      45.709   4.263   8.191  0.00  0.00    +0.000 A 
ATOM     29  C   UNL     1      46.490   3.408   7.420  0.00  0.00    +0.000 A 
ATOM     30  C   UNL     1      46.445   2.052   7.698  0.00  0.00    +0.000 A 
ATOM     31  N   UNL     1      45.686   1.508   8.672  0.00  0.00    +0.000 NA
ATOM     32  C   UNL     1      44.939   2.363   9.407  0.00  0.00    +0.000 A 
ENDBRANCH  26  27
ENDBRANCH  25  26
ENDBRANCH  22  25
ENDBRANCH  18  19
ENDBRANCH   2  18
TORSDOF 7
ENDMDL
MODEL 2
REMARK VINA RESULT:    -8.039      2.537      3.396
REMARK INTER + INTRA:         -12.395
REMARK INTER:                 -11.386
REMARK INTRA:                  -1.009
REMARK UNBOUND:                -1.065
REMARK  Name = 
REMARK  8 active torsions:
REMARK  status: ('A' for Active; 'I' for Inactive)
REMARK    1  A    between atoms: C_1  and  C_2
REMARK    2  A    between atoms: C_2  and  C_3
REMARK    3  A    between atoms: C_2  and  N_18
REMARK    4  A    between atoms: C_3  and  C_4
REMARK    5  A    between atoms: C_7  and  O_8
REMARK    6  A    between atoms: O_8  and  C_9
REMARK    7  A    between atoms: C_9  and  C_10
REMARK    8  A    between atoms: C_19  and  C_21
REMARK                            x       y       z     vdW  Elec       q    Type
REMARK                         _______ _______ _______ _____ _____    ______ ____
ROOT
ATOM      1  C   UNL     1      47.269   4.123  13.719  0.00  0.00    +0.000 C 
ATOM      2  C   UNL     1      47.349   5.633  13.954  0.00  0.00    +0.000 C 
ENDROOT
BRANCH   2   3
ATOM      3  N   UNL     1      47.621   5.941  15.355  0.00  0.00    +0.000 N 
ATOM      4  C   UNL     1      48.836   6.376  15.824  0.00  0.00    +0.000 C 
ATOM      5  O   UNL     1      49.793   6.592  15.087  0.00  0.00    +0.000 OA
ATOM      6  H   UNL     1      46.966   5.544  16.023  0.00  0.00    +0.000 HD
BRANCH   4   7
ATOM      7  C   UNL     1      48.933   6.610  17.268  0.00  0.00    +0.000 A 
ATOM      8  C   UNL     1      49.212   7.889  17.731  0.00  0.00    +0.000 A 
ATOM      9  S   UNL     1      49.272   7.999  19.431  0.00  0.00    +0.000 S 
ATOM     10  C   UNL     1      48.976   6.333  19.603  0.00  0.00    +0.000 A 
ATOM     11  N   UNL     1      48.929   5.756  20.833  0.00  0.00    +0.000 NA
ATOM     12  C   UNL     1      48.743   4.480  20.817  0.00  0.00    +0.000 A 
ATOM     13  N   UNL     1      48.592   3.727  19.682  0.00  0.00    +0.000 N 
ATOM     14  C   UNL     1      48.562   4.274  18.422  0.00  0.00    +0.000 A 
ATOM     15  O   UNL     1      48.309   3.595  17.434  0.00  0.00    +0.000 OA
ATOM     16  C   UNL     1      48.808   5.704  18.382  0.00  0.00    +0.000 A 
ATOM     17  H   UNL     1      48.425   2.733  19.737  0.00  0.00    +0.000 HD
ENDBRANCH   4   7
ENDBRANCH   2   3
BRANCH   2  18
ATOM     18  C   UNL     1      46.096   6.335  13.399  0.00  0.00    +0.000 C 
BRANCH  18  19
ATOM     19  C   UNL     1      45.502   5.682  12.172  0.00  0.00    +0.000 A 
ATOM     20  C   UNL     1      46.027   5.914  10.896  0.00  0.00    +0.000 A 
ATOM     21  C   UNL     1      45.527   5.217   9.791  0.00  0.00    +0.000 A 
ATOM     22  C   UNL     1      44.498   4.288   9.950  0.00  0.00    +0.000 A 
ATOM     23  C   UNL     1      43.912   4.122  11.205  0.00  0.00    +0.000 A 
ATOM     24  C   UNL     1      44.422   4.801  12.309  0.00  0.00    +0.000 A 
BRANCH  22  25
ATOM     25  O   UNL     1      44.148   3.579   8.830  0.00  0.00    +0.000 OA
BRANCH  25  26
ATOM     26  C   UNL     1      44.719   2.270   8.760  0.00  0.00    +0.000 C 
BRANCH  26  27
ATOM     27  C   UNL     1      45.819   2.241   7.741  0.00  0.00    +0.000 A 
ATOM     28  C   UNL     1      45.974   3.273   6.810  0.00  0.00    +0.000 A 
ATOM     29  C   UNL     1      47.057   3.254   5.937  0.00  0.00    +0.000 A 
ATOM     30  C   UNL     1      47.951   2.200   6.024  0.00  0.00    +0.000 A 
ATOM     31  N   UNL     1      47.833   1.185   6.907  0.00  0.00    +0.000 NA
ATOM     32  C   UNL     1      46.773   1.230   7.744  0.00  0.00    +0.000 A 
ENDBRANCH  26  27
ENDBRANCH  25  26
ENDBRANCH  22  25
ENDBRANCH  18  19
ENDBRANCH   2  18
TORSDOF 7
ENDMDL
MODEL 3
REMARK VINA RESULT:    -7.976      2.310      2.797
REMARK INTER + INTRA:         -12.306
REMARK INTER:                 -11.229
REMARK INTRA:                  -1.077
REMARK UNBOUND:                -1.065
REMARK  Name = 
REMARK  8 active torsions:
REMARK  status: ('A' for Active; 'I' for Inactive)
REMARK    1  A    between atoms: C_1  and  C_2
REMARK    2  A    between atoms: C_2  and  C_3
REMARK    3  A    between atoms: C_2  and  N_18
REMARK    4  A    between atoms: C_3  and  C_4
REMARK    5  A    between atoms: C_7  and  O_8
REMARK    6  A    between atoms: O_8  and  C_9
REMARK    7  A    between atoms: C_9  and  C_10
REMARK    8  A    between atoms: C_19  and  C_21
REMARK                            x       y       z     vdW  Elec       q    Type
REMARK                         _______ _______ _______ _____ _____    ______ ____
ROOT
ATOM      1  C   UNL     1      48.772   6.943  12.547  0.00  0.00    +0.000 C 
ATOM      2  C   UNL     1      47.995   7.758  13.585  0.00  0.00    +0.000 C 
ENDROOT
BRANCH   2   3
ATOM      3  N   UNL     1      48.161   7.208  14.927  0.00  0.00    +0.000 N 
ATOM      4  C   UNL     1      49.314   7.315  15.664  0.00  0.00    +0.000 C 
ATOM      5  O   UNL     1      50.299   7.932  15.269  0.00  0.00    +0.000 OA
ATOM      6  H   UNL     1      47.493   6.488  15.188  0.00  0.00    +0.000 HD
BRANCH   4   7
ATOM      7  C   UNL     1      49.308   6.678  16.984  0.00  0.00    +0.000 A 
ATOM      8  C   UNL     1      49.835   7.362  18.071  0.00  0.00    +0.000 A 
ATOM      9  S   UNL     1      49.735   6.496  19.535  0.00  0.00    +0.000 S 
ATOM     10  C   UNL     1      49.030   5.157  18.757  0.00  0.00    +0.000 A 
ATOM     11  N   UNL     1      48.713   4.033  19.452  0.00  0.00    +0.000 NA
ATOM     12  C   UNL     1      48.228   3.079  18.731  0.00  0.00    +0.000 A 
ATOM     13  N   UNL     1      48.024   3.149  17.378  0.00  0.00    +0.000 N 
ATOM     14  C   UNL     1      48.264   4.286  16.645  0.00  0.00    +0.000 A 
ATOM     15  O   UNL     1      47.963   4.360  15.459  0.00  0.00    +0.000 OA
ATOM     16  C   UNL     1      48.849   5.378  17.402  0.00  0.00    +0.000 A 
ATOM     17  H   UNL     1      47.618   2.374  16.874  0.00  0.00    +0.000 HD
ENDBRANCH   4   7
ENDBRANCH   2   3
BRANCH   2  18
ATOM     18  C   UNL     1      46.523   7.915  13.159  0.00  0.00    +0.000 C 
BRANCH  18  19
ATOM     19  C   UNL     1      45.936   6.706  12.467  0.00  0.00    +0.000 A 
ATOM     20  C   UNL     1      45.690   6.702  11.090  0.00  0.00    +0.000 A 
ATOM     21  C   UNL     1      45.246   5.536  10.457  0.00  0.00    +0.000 A 
ATOM     22  C   UNL     1      45.041   4.369  11.193  0.00  0.00    +0.000 A 
ATOM     23  C   UNL     1      45.198   4.396  12.579  0.00  0.00    +0.000 A 
ATOM     24  C   UNL     1      45.659   5.550  13.207  0.00  0.00    +0.000 A 
BRANCH  22  25
ATOM     25  O   UNL     1      44.709   3.252  10.471  0.00  0.00    +0.000 OA
BRANCH  25  26
ATOM     26  C   UNL     1      44.524   3.488   9.073  0.00  0.00    +0.000 C 
BRANCH  26  27
ATOM     27  C   UNL     1      45.558   2.742   8.283  0.00  0.00    +0.000 A 
ATOM     28  C   UNL     1      46.406   3.403   7.390  0.00  0.00    +0.000 A 
ATOM     29  C   UNL     1      47.409   2.692   6.740  0.00  0.00    +0.000 A 
ATOM     30  C   UNL     1      47.530   1.338   7.006  0.00  0.00    +0.000 A 
ATOM     31  N   UNL     1      46.729   0.665   7.859  0.00  0.00    +0.000 NA
ATOM     32  C   UNL     1      45.765   1.381   8.478  0.00  0.00    +0.000 A 
ENDBRANCH  26  27
ENDBRANCH  25  26
ENDBRANCH  22  25
ENDBRANCH  18  19
ENDBRANCH   2  18
TORSDOF 7
ENDMDL
MODEL 4
REMARK VINA RESULT:    -7.284      2.050      2.540
REMARK INTER + INTRA:         -11.330
REMARK INTER:                 -10.203
REMARK INTRA:                  -1.127
REMARK UNBOUND:                -1.065
REMARK  Name = 
REMARK  8 active torsions:
REMARK  status: ('A' for Active; 'I' for Inactive)
REMARK    1  A    between atoms: C_1  and  C_2
REMARK    2  A    between atoms: C_2  and  C_3
REMARK    3  A    between atoms: C_2  and  N_18
REMARK    4  A    between atoms: C_3  and  C_4
REMARK    5  A    between atoms: C_7  and  O_8
REMARK    6  A    between atoms: O_8  and  C_9
REMARK    7  A    between atoms: C_9  and  C_10
REMARK    8  A    between atoms: C_19  and  C_21
REMARK                            x       y       z     vdW  Elec       q    Type
REMARK                         _______ _______ _______ _____ _____    ______ ____
ROOT
ATOM      1  C   UNL     1      49.327   7.608  12.184  0.00  0.00    +0.000 C 
ATOM      2  C   UNL     1      48.708   7.900  13.553  0.00  0.00    +0.000 C 
ENDROOT
BRANCH   2   3
ATOM      3  N   UNL     1      49.214   6.985  14.573  0.00  0.00    +0.000 N 
ATOM      4  C   UNL     1      49.093   7.198  15.924  0.00  0.00    +0.000 C 
ATOM      5  O   UNL     1      48.498   8.163  16.393  0.00  0.00    +0.000 OA
ATOM      6  H   UNL     1      49.919   6.325  14.254  0.00  0.00    +0.000 HD
BRANCH   4   7
ATOM      7  C   UNL     1      49.685   6.183  16.801  0.00  0.00    +0.000 A 
ATOM      8  C   UNL     1      48.859   5.435  17.628  0.00  0.00    +0.000 A 
ATOM      9  S   UNL     1      49.697   4.286  18.568  0.00  0.00    +0.000 S 
ATOM     10  C   UNL     1      51.197   4.785  17.938  0.00  0.00    +0.000 A 
ATOM     11  N   UNL     1      52.355   4.211  18.358  0.00  0.00    +0.000 NA
ATOM     12  C   UNL     1      53.420   4.716  17.832  0.00  0.00    +0.000 A 
ATOM     13  N   UNL     1      53.432   5.737  16.919  0.00  0.00    +0.000 N 
ATOM     14  C   UNL     1      52.285   6.301  16.414  0.00  0.00    +0.000 A 
ATOM     15  O   UNL     1      52.322   7.131  15.513  0.00  0.00    +0.000 OA
ATOM     16  C   UNL     1      51.059   5.796  17.003  0.00  0.00    +0.000 A 
ATOM     17  H   UNL     1      54.301   6.072  16.527  0.00  0.00    +0.000 HD
ENDBRANCH   4   7
ENDBRANCH   2   3
BRANCH   2  18
ATOM     18  C   UNL     1      47.171   7.931  13.458  0.00  0.00    +0.000 C 
BRANCH  18  19
ATOM     19  C   UNL     1      46.567   6.786  12.676  0.00  0.00    +0.000 A 
ATOM     20  C   UNL     1      46.524   5.489  13.200  0.00  0.00    +0.000 A 
ATOM     21  C   UNL     1      45.866   4.470  12.503  0.00  0.00    +0.000 A 
ATOM     22  C   UNL     1      45.251   4.736  11.279  0.00  0.00    +0.000 A 
ATOM     23  C   UNL     1      45.372   6.005  10.713  0.00  0.00    +0.000 A 
ATOM     24  C   UNL     1      46.009   7.025  11.414  0.00  0.00    +0.000 A 
BRANCH  22  25
ATOM     25  O   UNL     1      44.543   3.703  10.724  0.00  0.00    +0.000 OA
BRANCH  25  26
ATOM     26  C   UNL     1      44.299   3.842   9.322  0.00  0.00    +0.000 C 
BRANCH  26  27
ATOM     27  C   UNL     1      45.287   3.025   8.543  0.00  0.00    +0.000 A 
ATOM     28  C   UNL     1      46.180   3.624   7.650  0.00  0.00    +0.000 A 
ATOM     29  C   UNL     1      47.139   2.846   7.011  0.00  0.00    +0.000 A 
ATOM     30  C   UNL     1      47.173   1.489   7.287  0.00  0.00    +0.000 A 
ATOM     31  N   UNL     1      46.326   0.874   8.141  0.00  0.00    +0.000 NA
ATOM     32  C   UNL     1      45.406   1.655   8.749  0.00  0.00    +0.000 A 
ENDBRANCH  26  27
ENDBRANCH  25  26
ENDBRANCH  22  25
ENDBRANCH  18  19
ENDBRANCH   2  18
TORSDOF 7
ENDMDL
MODEL 5
REMARK VINA RESULT:    -6.988      2.565      3.398
REMARK INTER + INTRA:         -10.913
REMARK INTER:                 -10.438
REMARK INTRA:                  -0.474
REMARK UNBOUND:                -1.065
REMARK  Name = 
REMARK  8 active torsions:
REMARK  status: ('A' for Active; 'I' for Inactive)
REMARK    1  A    between atoms: C_1  and  C_2
REMARK    2  A    between atoms: C_2  and  C_3
REMARK    3  A    between atoms: C_2  and  N_18
REMARK    4  A    between atoms: C_3  and  C_4
REMARK    5  A    between atoms: C_7  and  O_8
REMARK    6  A    between atoms: O_8  and  C_9
REMARK    7  A    between atoms: C_9  and  C_10
REMARK    8  A    between atoms: C_19  and  C_21
REMARK                            x       y       z     vdW  Elec       q    Type
REMARK                         _______ _______ _______ _____ _____    ______ ____
ROOT
ATOM      1  C   UNL     1      48.060   6.045  12.439  0.00  0.00    +0.000 C 
ATOM      2  C   UNL     1      47.357   6.860  13.528  0.00  0.00    +0.000 C 
ENDROOT
BRANCH   2   3
ATOM      3  N   UNL     1      47.881   6.542  14.853  0.00  0.00    +0.000 N 
ATOM      4  C   UNL     1      47.872   5.284  15.403  0.00  0.00    +0.000 C 
ATOM      5  O   UNL     1      47.461   4.299  14.796  0.00  0.00    +0.000 OA
ATOM      6  H   UNL     1      47.990   7.335  15.480  0.00  0.00    +0.000 HD
BRANCH   4   7
ATOM      7  C   UNL     1      48.418   5.157  16.757  0.00  0.00    +0.000 A 
ATOM      8  C   UNL     1      47.672   4.509  17.732  0.00  0.00    +0.000 A 
ATOM      9  S   UNL     1      48.454   4.427  19.244  0.00  0.00    +0.000 S 
ATOM     10  C   UNL     1      49.792   5.300  18.660  0.00  0.00    +0.000 A 
ATOM     11  N   UNL     1      50.835   5.606  19.476  0.00  0.00    +0.000 NA
ATOM     12  C   UNL     1      51.761   6.309  18.917  0.00  0.00    +0.000 A 
ATOM     13  N   UNL     1      51.743   6.728  17.612  0.00  0.00    +0.000 N 
ATOM     14  C   UNL     1      50.746   6.384  16.731  0.00  0.00    +0.000 A 
ATOM     15  O   UNL     1      50.813   6.673  15.542  0.00  0.00    +0.000 OA
ATOM     16  C   UNL     1      49.658   5.626  17.322  0.00  0.00    +0.000 A 
ATOM     17  H   UNL     1      52.512   7.257  17.226  0.00  0.00    +0.000 HD
ENDBRANCH   4   7
ENDBRANCH   2   3
BRANCH   2  18
ATOM     18  C   UNL     1      45.829   6.710  13.415  0.00  0.00    +0.000 C 
BRANCH  18  19
ATOM     19  C   UNL     1      45.367   5.809  12.293  0.00  0.00    +0.000 A 
ATOM     20  C   UNL     1      45.410   6.228  10.958  0.00  0.00    +0.000 A 
ATOM     21  C   UNL     1      45.077   5.339   9.930  0.00  0.00    +0.000 A 
ATOM     22  C   UNL     1      44.695   4.030  10.227  0.00  0.00    +0.000 A 
ATOM     23  C   UNL     1      44.563   3.639  11.559  0.00  0.00    +0.000 A 
ATOM     24  C   UNL     1      44.914   4.516  12.582  0.00  0.00    +0.000 A 
BRANCH  22  25
ATOM     25  O   UNL     1      44.491   3.205   9.152  0.00  0.00    +0.000 OA
BRANCH  25  26
ATOM     26  C   UNL     1      45.382   2.089   9.088  0.00  0.00    +0.000 C 
BRANCH  26  27
ATOM     27  C   UNL     1      46.176   2.135   7.816  0.00  0.00    +0.000 A 
ATOM     28  C   UNL     1      46.032   3.187   6.908  0.00  0.00    +0.000 A 
ATOM     29  C   UNL     1      46.846   3.240   5.781  0.00  0.00    +0.000 A 
ATOM     30  C   UNL     1      47.780   2.233   5.601  0.00  0.00    +0.000 A 
ATOM     31  N   UNL     1      47.946   1.199   6.453  0.00  0.00    +0.000 NA
ATOM     32  C   UNL     1      47.143   1.175   7.540  0.00  0.00    +0.000 A 
ENDBRANCH  26  27
ENDBRANCH  25  26
ENDBRANCH  22  25
ENDBRANCH  18  19
ENDBRANCH   2  18
TORSDOF 7
ENDMDL
MODEL 6
REMARK VINA RESULT:    -6.922      3.809      8.079
REMARK INTER + INTRA:         -10.820
REMARK INTER:                  -9.653
REMARK INTRA:                  -1.168
REMARK UNBOUND:                -1.065
REMARK  Name = 
REMARK  8 active torsions:
REMARK  status: ('A' for Active; 'I' for Inactive)
REMARK    1  A    between atoms: C_1  and  C_2
REMARK    2  A    between atoms: C_2  and  C_3
REMARK    3  A    between atoms: C_2  and  N_18
REMARK    4  A    between atoms: C_3  and  C_4
REMARK    5  A    between atoms: C_7  and  O_8
REMARK    6  A    between atoms: O_8  and  C_9
REMARK    7  A    between atoms: C_9  and  C_10
REMARK    8  A    between atoms: C_19  and  C_21
REMARK                            x       y       z     vdW  Elec       q    Type
REMARK                         _______ _______ _______ _____ _____    ______ ____
ROOT
ATOM      1  C   UNL     1      49.247   9.164  11.794  0.00  0.00    +0.000 C 
ATOM      2  C   UNL     1      48.533   8.417  12.923  0.00  0.00    +0.000 C 
ENDROOT
BRANCH   2   3
ATOM      3  N   UNL     1      47.285   7.819  12.461  0.00  0.00    +0.000 N 
ATOM      4  C   UNL     1      46.770   6.641  12.945  0.00  0.00    +0.000 C 
ATOM      5  O   UNL     1      47.301   6.011  13.855  0.00  0.00    +0.000 OA
ATOM      6  H   UNL     1      46.951   8.150  11.559  0.00  0.00    +0.000 HD
BRANCH   4   7
ATOM      7  C   UNL     1      45.517   6.178  12.343  0.00  0.00    +0.000 A 
ATOM      8  C   UNL     1      44.648   7.105  11.785  0.00  0.00    +0.000 A 
ATOM      9  S   UNL     1      43.248   6.406  11.110  0.00  0.00    +0.000 S 
ATOM     10  C   UNL     1      43.732   4.846  11.585  0.00  0.00    +0.000 A 
ATOM     11  N   UNL     1      42.948   3.765  11.332  0.00  0.00    +0.000 NA
ATOM     12  C   UNL     1      43.415   2.651  11.786  0.00  0.00    +0.000 A 
ATOM     13  N   UNL     1      44.597   2.518  12.465  0.00  0.00    +0.000 N 
ATOM     14  C   UNL     1      45.455   3.569  12.684  0.00  0.00    +0.000 A 
ATOM     15  O   UNL     1      46.558   3.401  13.190  0.00  0.00    +0.000 OA
ATOM     16  C   UNL     1      44.959   4.854  12.227  0.00  0.00    +0.000 A 
ATOM     17  H   UNL     1      44.918   1.612  12.775  0.00  0.00    +0.000 HD
ENDBRANCH   4   7
ENDBRANCH   2   3
BRANCH   2  18
ATOM     18  C   UNL     1      48.364   9.328  14.153  0.00  0.00    +0.000 C 
BRANCH  18  19
ATOM     19  C   UNL     1      48.811   8.711  15.459  0.00  0.00    +0.000 A 
ATOM     20  C   UNL     1      48.221   9.072  16.675  0.00  0.00    +0.000 A 
ATOM     21  C   UNL     1      48.579   8.411  17.855  0.00  0.00    +0.000 A 
ATOM     22  C   UNL     1      49.527   7.389  17.831  0.00  0.00    +0.000 A 
ATOM     23  C   UNL     1      50.182   7.089  16.636  0.00  0.00    +0.000 A 
ATOM     24  C   UNL     1      49.813   7.733  15.457  0.00  0.00    +0.000 A 
BRANCH  22  25
ATOM     25  O   UNL     1      49.733   6.730  19.015  0.00  0.00    +0.000 OA
BRANCH  25  26
ATOM     26  C   UNL     1      48.632   5.923  19.439  0.00  0.00    +0.000 C 
BRANCH  26  27
ATOM     27  C   UNL     1      48.411   4.800  18.469  0.00  0.00    +0.000 A 
ATOM     28  C   UNL     1      49.396   3.835  18.239  0.00  0.00    +0.000 A 
ATOM     29  C   UNL     1      49.124   2.761  17.397  0.00  0.00    +0.000 A 
ATOM     30  C   UNL     1      47.871   2.689  16.812  0.00  0.00    +0.000 A 
ATOM     31  N   UNL     1      46.896   3.602  17.007  0.00  0.00    +0.000 NA
ATOM     32  C   UNL     1      47.187   4.633  17.831  0.00  0.00    +0.000 A 
ENDBRANCH  26  27
ENDBRANCH  25  26
ENDBRANCH  22  25
ENDBRANCH  18  19
ENDBRANCH   2  18
TORSDOF 7
ENDMDL
MODEL 7
REMARK VINA RESULT:    -6.910      3.027      3.725
REMARK INTER + INTRA:         -10.804
REMARK INTER:                  -9.919
REMARK INTRA:                  -0.884
REMARK UNBOUND:                -1.065
REMARK  Name = 
REMARK  8 active torsions:
REMARK  status: ('A' for Active; 'I' for Inactive)
REMARK    1  A    between atoms: C_1  and  C_2
REMARK    2  A    between atoms: C_2  and  C_3
REMARK    3  A    between atoms: C_2  and  N_18
REMARK    4  A    between atoms: C_3  and  C_4
REMARK    5  A    between atoms: C_7  and  O_8
REMARK    6  A    between atoms: O_8  and  C_9
REMARK    7  A    between atoms: C_9  and  C_10
REMARK    8  A    between atoms: C_19  and  C_21
REMARK                            x       y       z     vdW  Elec       q    Type
REMARK                         _______ _______ _______ _____ _____    ______ ____
ROOT
ATOM      1  C   UNL     1      48.724   6.574  12.835  0.00  0.00    +0.000 C 
ATOM      2  C   UNL     1      47.834   6.602  14.080  0.00  0.00    +0.000 C 
ENDROOT
BRANCH   2   3
ATOM      3  N   UNL     1      48.593   6.981  15.269  0.00  0.00    +0.000 N 
ATOM      4  C   UNL     1      48.591   8.242  15.812  0.00  0.00    +0.000 C 
ATOM      5  O   UNL     1      47.902   9.155  15.367  0.00  0.00    +0.000 OA
ATOM      6  H   UNL     1      49.356   6.356  15.515  0.00  0.00    +0.000 HD
BRANCH   4   7
ATOM      7  C   UNL     1      49.434   8.446  16.994  0.00  0.00    +0.000 A 
ATOM      8  C   UNL     1      50.331   9.505  17.013  0.00  0.00    +0.000 A 
ATOM      9  S   UNL     1      51.221   9.617  18.463  0.00  0.00    +0.000 S 
ATOM     10  C   UNL     1      50.473   8.225  19.092  0.00  0.00    +0.000 A 
ATOM     11  N   UNL     1      50.812   7.745  20.318  0.00  0.00    +0.000 NA
ATOM     12  C   UNL     1      50.201   6.658  20.653  0.00  0.00    +0.000 A 
ATOM     13  N   UNL     1      49.276   6.011  19.876  0.00  0.00    +0.000 N 
ATOM     14  C   UNL     1      48.852   6.495  18.662  0.00  0.00    +0.000 A 
ATOM     15  O   UNL     1      47.940   5.960  18.042  0.00  0.00    +0.000 OA
ATOM     16  C   UNL     1      49.537   7.696  18.220  0.00  0.00    +0.000 A 
ATOM     17  H   UNL     1      48.816   5.176  20.206  0.00  0.00    +0.000 HD
ENDBRANCH   4   7
ENDBRANCH   2   3
BRANCH   2  18
ATOM     18  C   UNL     1      47.070   5.273  14.231  0.00  0.00    +0.000 C 
BRANCH  18  19
ATOM     19  C   UNL     1      46.245   4.882  13.027  0.00  0.00    +0.000 A 
ATOM     20  C   UNL     1      45.837   5.832  12.084  0.00  0.00    +0.000 A 
ATOM     21  C   UNL     1      45.165   5.430  10.925  0.00  0.00    +0.000 A 
ATOM     22  C   UNL     1      44.892   4.080  10.700  0.00  0.00    +0.000 A 
ATOM     23  C   UNL     1      45.217   3.143  11.680  0.00  0.00    +0.000 A 
ATOM     24  C   UNL     1      45.904   3.539  12.825  0.00  0.00    +0.000 A 
BRANCH  22  25
ATOM     25  O   UNL     1      44.327   3.774   9.490  0.00  0.00    +0.000 OA
BRANCH  25  26
ATOM     26  C   UNL     1      44.516   2.417   9.078  0.00  0.00    +0.000 C 
BRANCH  26  27
ATOM     27  C   UNL     1      45.596   2.340   8.040  0.00  0.00    +0.000 A 
ATOM     28  C   UNL     1      45.847   3.406   7.172  0.00  0.00    +0.000 A 
ATOM     29  C   UNL     1      46.912   3.331   6.281  0.00  0.00    +0.000 A 
ATOM     30  C   UNL     1      47.693   2.187   6.288  0.00  0.00    +0.000 A 
ATOM     31  N   UNL     1      47.481   1.136   7.109  0.00  0.00    +0.000 NA
ATOM     32  C   UNL     1      46.440   1.237   7.966  0.00  0.00    +0.000 A 
ENDBRANCH  26  27
ENDBRANCH  25  26
ENDBRANCH  22  25
ENDBRANCH  18  19
ENDBRANCH   2  18
TORSDOF 7
ENDMDL
MODEL 8
REMARK VINA RESULT:    -6.693      3.762      8.167
REMARK INTER + INTRA:         -10.498
REMARK INTER:                  -8.633
REMARK INTRA:                  -1.865
REMARK UNBOUND:                -1.065
REMARK  Name = 
REMARK  8 active torsions:
REMARK  status: ('A' for Active; 'I' for Inactive)
REMARK    1  A    between atoms: C_1  and  C_2
REMARK    2  A    between atoms: C_2  and  C_3
REMARK    3  A    between atoms: C_2  and  N_18
REMARK    4  A    between atoms: C_3  and  C_4
REMARK    5  A    between atoms: C_7  and  O_8
REMARK    6  A    between atoms: O_8  and  C_9
REMARK    7  A    between atoms: C_9  and  C_10
REMARK    8  A    between atoms: C_19  and  C_21
REMARK                            x       y       z     vdW  Elec       q    Type
REMARK                         _______ _______ _______ _____ _____    ______ ____
ROOT
ATOM      1  C   UNL     1      48.487  10.036  12.151  0.00  0.00    +0.000 C 
ATOM      2  C   UNL     1      48.537   9.074  13.342  0.00  0.00    +0.000 C 
ENDROOT
BRANCH   2   3
ATOM      3  N   UNL     1      47.504   8.047  13.241  0.00  0.00    +0.000 N 
ATOM      4  C   UNL     1      47.753   6.734  12.928  0.00  0.00    +0.000 C 
ATOM      5  O   UNL     1      48.887   6.297  12.754  0.00  0.00    +0.000 OA
ATOM      6  H   UNL     1      46.556   8.394  13.122  0.00  0.00    +0.000 HD
BRANCH   4   7
ATOM      7  C   UNL     1      46.587   5.848  12.846  0.00  0.00    +0.000 A 
ATOM      8  C   UNL     1      46.686   4.549  13.324  0.00  0.00    +0.000 A 
ATOM      9  S   UNL     1      45.242   3.657  13.174  0.00  0.00    +0.000 S 
ATOM     10  C   UNL     1      44.451   4.961  12.420  0.00  0.00    +0.000 A 
ATOM     11  N   UNL     1      43.163   4.848  12.001  0.00  0.00    +0.000 NA
ATOM     12  C   UNL     1      42.702   5.896  11.406  0.00  0.00    +0.000 A 
ATOM     13  N   UNL     1      43.410   7.051  11.198  0.00  0.00    +0.000 N 
ATOM     14  C   UNL     1      44.689   7.237  11.665  0.00  0.00    +0.000 A 
ATOM     15  O   UNL     1      45.255   8.320  11.569  0.00  0.00    +0.000 OA
ATOM     16  C   UNL     1      45.269   6.072  12.308  0.00  0.00    +0.000 A 
ATOM     17  H   UNL     1      42.983   7.846  10.746  0.00  0.00    +0.000 HD
ENDBRANCH   4   7
ENDBRANCH   2   3
BRANCH   2  18
ATOM     18  C   UNL     1      48.508   9.853  14.670  0.00  0.00    +0.000 C 
BRANCH  18  19
ATOM     19  C   UNL     1      48.896   9.040  15.883  0.00  0.00    +0.000 A 
ATOM     20  C   UNL     1      48.175   9.126  17.079  0.00  0.00    +0.000 A 
ATOM     21  C   UNL     1      48.490   8.286  18.153  0.00  0.00    +0.000 A 
ATOM     22  C   UNL     1      49.527   7.361  18.044  0.00  0.00    +0.000 A 
ATOM     23  C   UNL     1      50.306   7.337  16.887  0.00  0.00    +0.000 A 
ATOM     24  C   UNL     1      49.981   8.158  15.810  0.00  0.00    +0.000 A 
BRANCH  22  25
ATOM     25  O   UNL     1      49.691   6.512  19.107  0.00  0.00    +0.000 OA
BRANCH  25  26
ATOM     26  C   UNL     1      48.549   5.701  19.396  0.00  0.00    +0.000 C 
BRANCH  26  27
ATOM     27  C   UNL     1      48.374   4.659  18.331  0.00  0.00    +0.000 A 
ATOM     28  C   UNL     1      49.397   3.759  18.020  0.00  0.00    +0.000 A 
ATOM     29  C   UNL     1      49.169   2.752  17.088  0.00  0.00    +0.000 A 
ATOM     30  C   UNL     1      47.919   2.681  16.495  0.00  0.00    +0.000 A 
ATOM     31  N   UNL     1      46.908   3.533  16.766  0.00  0.00    +0.000 NA
ATOM     32  C   UNL     1      47.157   4.499  17.677  0.00  0.00    +0.000 A 
ENDBRANCH  26  27
ENDBRANCH  25  26
ENDBRANCH  22  25
ENDBRANCH  18  19
ENDBRANCH   2  18
TORSDOF 7
ENDMDL
MODEL 9
REMARK VINA RESULT:    -6.475      2.087      3.074
REMARK INTER + INTRA:         -10.190
REMARK INTER:                  -9.985
REMARK INTRA:                  -0.206
REMARK UNBOUND:                -1.065
REMARK  Name = 
REMARK  8 active torsions:
REMARK  status: ('A' for Active; 'I' for Inactive)
REMARK    1  A    between atoms: C_1  and  C_2
REMARK    2  A    between atoms: C_2  and  C_3
REMARK    3  A    between atoms: C_2  and  N_18
REMARK    4  A    between atoms: C_3  and  C_4
REMARK    5  A    between atoms: C_7  and  O_8
REMARK    6  A    between atoms: O_8  and  C_9
REMARK    7  A    between atoms: C_9  and  C_10
REMARK    8  A    between atoms: C_19  and  C_21
REMARK                            x       y       z     vdW  Elec       q    Type
REMARK                         _______ _______ _______ _____ _____    ______ ____
ROOT
ATOM      1  C   UNL     1      47.854   7.088  11.824  0.00  0.00    +0.000 C 
ATOM      2  C   UNL     1      47.836   7.178  13.352  0.00  0.00    +0.000 C 
ENDROOT
BRANCH   2   3
ATOM      3  N   UNL     1      49.180   7.053  13.909  0.00  0.00    +0.000 N 
ATOM      4  C   UNL     1      49.541   7.506  15.154  0.00  0.00    +0.000 C 
ATOM      5  O   UNL     1      48.741   8.016  15.932  0.00  0.00    +0.000 OA
ATOM      6  H   UNL     1      49.918   6.881  13.231  0.00  0.00    +0.000 HD
BRANCH   4   7
ATOM      7  C   UNL     1      50.943   7.318  15.537  0.00  0.00    +0.000 A 
ATOM      8  C   UNL     1      51.906   8.187  15.042  0.00  0.00    +0.000 A 
ATOM      9  S   UNL     1      53.481   7.846  15.596  0.00  0.00    +0.000 S 
ATOM     10  C   UNL     1      52.937   6.496  16.477  0.00  0.00    +0.000 A 
ATOM     11  N   UNL     1      53.808   5.722  17.176  0.00  0.00    +0.000 NA
ATOM     12  C   UNL     1      53.269   4.706  17.760  0.00  0.00    +0.000 A 
ATOM     13  N   UNL     1      51.934   4.397  17.714  0.00  0.00    +0.000 N 
ATOM     14  C   UNL     1      51.006   5.186  17.079  0.00  0.00    +0.000 A 
ATOM     15  O   UNL     1      49.806   4.950  17.152  0.00  0.00    +0.000 OA
ATOM     16  C   UNL     1      51.568   6.322  16.372  0.00  0.00    +0.000 A 
ATOM     17  H   UNL     1      51.570   3.598  18.214  0.00  0.00    +0.000 HD
ENDBRANCH   4   7
ENDBRANCH   2   3
BRANCH   2  18
ATOM     18  C   UNL     1      46.826   6.176  13.942  0.00  0.00    +0.000 C 
BRANCH  18  19
ATOM     19  C   UNL     1      45.990   5.448  12.914  0.00  0.00    +0.000 A 
ATOM     20  C   UNL     1      45.223   6.144  11.974  0.00  0.00    +0.000 A 
ATOM     21  C   UNL     1      44.542   5.449  10.968  0.00  0.00    +0.000 A 
ATOM     22  C   UNL     1      44.618   4.058  10.896  0.00  0.00    +0.000 A 
ATOM     23  C   UNL     1      45.307   3.357  11.885  0.00  0.00    +0.000 A 
ATOM     24  C   UNL     1      46.002   4.048  12.876  0.00  0.00    +0.000 A 
BRANCH  22  25
ATOM     25  O   UNL     1      44.007   3.477   9.816  0.00  0.00    +0.000 OA
BRANCH  25  26
ATOM     26  C   UNL     1      44.550   2.208   9.444  0.00  0.00    +0.000 C 
BRANCH  26  27
ATOM     27  C   UNL     1      45.579   2.383   8.367  0.00  0.00    +0.000 A 
ATOM     28  C   UNL     1      46.452   1.349   8.021  0.00  0.00    +0.000 A 
ATOM     29  C   UNL     1      47.335   1.519   6.959  0.00  0.00    +0.000 A 
ATOM     30  C   UNL     1      47.313   2.725   6.277  0.00  0.00    +0.000 A 
ATOM     31  N   UNL     1      46.487   3.748   6.583  0.00  0.00    +0.000 NA
ATOM     32  C   UNL     1      45.639   3.553   7.618  0.00  0.00    +0.000 A 
ENDBRANCH  26  27
ENDBRANCH  25  26
ENDBRANCH  22  25
ENDBRANCH  18  19
ENDBRANCH   2  18
TORSDOF 7
ENDMDL
