MODEL 1
REMARK VINA RESULT:    -8.701      0.000      0.000
REMARK INTER + INTRA:         -12.550
REMARK INTER:                 -12.007
REMARK INTRA:                  -0.543
REMARK UNBOUND:                -0.543
REMARK  Name = 
REMARK  7 active torsions:
REMARK  status: ('A' for Active; 'I' for Inactive)
REMARK    1  A    between atoms: N_1  and  C_2
REMARK    2  A    between atoms: C_2  and  C_3
REMARK    3  A    between atoms: C_3  and  N_4
REMARK    4  A    between atoms: C_3  and  C_17
REMARK    5  A    between atoms: C_5  and  C_7
REMARK    6  A    between atoms: C_20  and  O_21
REMARK    7  A    between atoms: O_21  and  C_22
REMARK                            x       y       z     vdW  Elec       q    Type
REMARK                         _______ _______ _______ _____ _____    ______ ____
ROOT
ATOM      1  C   UNL     1      46.382   7.499  12.613  0.00  0.00    +0.000 C 
ENDROOT
BRANCH   1   2
ATOM      2  C   UNL     1      45.873   6.324  11.784  0.00  0.00    +0.000 A 
ATOM      3  C   UNL     1      46.112   6.316  10.407  0.00  0.00    +0.000 A 
ATOM      4  C   UNL     1      45.687   5.251   9.613  0.00  0.00    +0.000 A 
ATOM      5  C   UNL     1      45.063   4.144  10.189  0.00  0.00    +0.000 A 
ATOM      6  C   UNL     1      44.788   4.148  11.558  0.00  0.00    +0.000 A 
ATOM      7  C   UNL     1      45.192   5.229  12.353  0.00  0.00    +0.000 A 
BRANCH   5   8
ATOM      8  O   UNL     1      44.637   3.052   9.463  0.00  0.00    +0.000 OA
BRANCH   8   9
ATOM      9  C   UNL     1      45.476   2.568   8.463  0.00  0.00    +0.000 A 
ATOM     10  C   UNL     1      45.696   3.395   7.372  0.00  0.00    +0.000 A 
ATOM     11  C   UNL     1      46.552   2.949   6.368  0.00  0.00    +0.000 A 
ATOM     12  C   UNL     1      47.153   1.700   6.488  0.00  0.00    +0.000 A 
ATOM     13  C   UNL     1      46.856   0.935   7.602  0.00  0.00    +0.000 A 
ATOM     14  N   UNL     1      46.017   1.332   8.579  0.00  0.00    +0.000 NA
ENDBRANCH   8   9
ENDBRANCH   5   8
ENDBRANCH   1   2
BRANCH   1  15
ATOM     15  N   UNL     1      46.925   6.982  13.857  0.00  0.00    +0.000 N 
ATOM     16  C   UNL     1      48.234   6.625  14.029  0.00  0.00    +0.000 C 
ATOM     17  O   UNL     1      49.041   6.571  13.106  0.00  0.00    +0.000 OA
ATOM     18  H   UNL     1      46.351   7.136  14.675  0.00  0.00    +0.000 HD
BRANCH  16  19
ATOM     19  C   UNL     1      48.599   6.249  15.399  0.00  0.00    +0.000 A 
ATOM     20  C   UNL     1      49.502   7.008  16.128  0.00  0.00    +0.000 A 
ATOM     21  S   UNL     1      49.843   6.359  17.671  0.00  0.00    +0.000 S 
ATOM     22  C   UNL     1      48.768   5.061  17.425  0.00  0.00    +0.000 A 
ATOM     23  N   UNL     1      48.595   4.098  18.371  0.00  0.00    +0.000 NA
ATOM     24  C   UNL     1      47.741   3.183  18.053  0.00  0.00    +0.000 A 
ATOM     25  N   UNL     1      47.030   3.151  16.881  0.00  0.00    +0.000 N 
ATOM     26  C   UNL     1      47.171   4.099  15.899  0.00  0.00    +0.000 A 
ATOM     27  O   UNL     1      46.529   4.029  14.856  0.00  0.00    +0.000 OA
ATOM     28  C   UNL     1      48.146   5.132  16.194  0.00  0.00    +0.000 A 
ATOM     29  H   UNL     1      46.374   2.407  16.692  0.00  0.00    +0.000 HD
ENDBRANCH  16  19
ENDBRANCH   1  15
BRANCH   1  30
ATOM     30  C   UNL     1      45.288   8.572  12.875  0.00  0.00    +0.000 C 
BRANCH  30  31
ATOM     31  N   UNL     1      45.683   9.940  12.512  0.00  0.00    +0.000 NA
ATOM     32  H   UNL     1      46.652  10.089  12.784  0.00  0.00    +0.000 HD
ATOM     33  H   UNL     1      45.128  10.607  13.050  0.00  0.00    +0.000 HD
ENDBRANCH  30  31
ENDBRANCH   1  30
TORSDOF 7
ENDMDL
MODEL 2
REMARK VINA RESULT:    -8.155      2.598      3.893
REMARK INTER + INTRA:         -11.797
REMARK INTER:                 -10.480
REMARK INTRA:                  -1.317
REMARK UNBOUND:                -0.543
REMARK  Name = 
REMARK  7 active torsions:
REMARK  status: ('A' for Active; 'I' for Inactive)
REMARK    1  A    between atoms: N_1  and  C_2
REMARK    2  A    between atoms: C_2  and  C_3
REMARK    3  A    between atoms: C_3  and  N_4
REMARK    4  A    between atoms: C_3  and  C_17
REMARK    5  A    between atoms: C_5  and  C_7
REMARK    6  A    between atoms: C_20  and  O_21
REMARK    7  A    between atoms: O_21  and  C_22
REMARK                            x       y       z     vdW  Elec       q    Type
REMARK                         _______ _______ _______ _____ _____    ______ ____
ROOT
ATOM      1  C   UNL     1      46.392   5.657  13.692  0.00  0.00    +0.000 C 
ENDROOT
BRANCH   1   2
ATOM      2  C   UNL     1      45.873   4.996  12.419  0.00  0.00    +0.000 A 
ATOM      3  C   UNL     1      45.922   5.712  11.219  0.00  0.00    +0.000 A 
ATOM      4  C   UNL     1      45.481   5.139  10.026  0.00  0.00    +0.000 A 
ATOM      5  C   UNL     1      45.035   3.817   9.998  0.00  0.00    +0.000 A 
ATOM      6  C   UNL     1      44.951   3.097  11.192  0.00  0.00    +0.000 A 
ATOM      7  C   UNL     1      45.369   3.680  12.396  0.00  0.00    +0.000 A 
BRANCH   5   8
ATOM      8  O   UNL     1      44.605   3.188   8.849  0.00  0.00    +0.000 OA
BRANCH   8   9
ATOM      9  C   UNL     1      45.566   2.598   8.032  0.00  0.00    +0.000 A 
ATOM     10  C   UNL     1      45.958   3.310   6.908  0.00  0.00    +0.000 A 
ATOM     11  C   UNL     1      46.937   2.758   6.086  0.00  0.00    +0.000 A 
ATOM     12  C   UNL     1      47.485   1.521   6.412  0.00  0.00    +0.000 A 
ATOM     13  C   UNL     1      47.015   0.874   7.541  0.00  0.00    +0.000 A 
ATOM     14  N   UNL     1      46.056   1.374   8.344  0.00  0.00    +0.000 NA
ENDBRANCH   8   9
ENDBRANCH   5   8
ENDBRANCH   1   2
BRANCH   1  15
ATOM     15  N   UNL     1      47.503   6.524  13.339  0.00  0.00    +0.000 N 
ATOM     16  C   UNL     1      47.455   7.890  13.404  0.00  0.00    +0.000 C 
ATOM     17  O   UNL     1      46.423   8.515  13.627  0.00  0.00    +0.000 OA
ATOM     18  H   UNL     1      48.404   6.071  13.286  0.00  0.00    +0.000 HD
BRANCH  16  19
ATOM     19  C   UNL     1      48.726   8.568  13.127  0.00  0.00    +0.000 A 
ATOM     20  C   UNL     1      48.800   9.586  12.189  0.00  0.00    +0.000 A 
ATOM     21  S   UNL     1      50.382  10.191  11.968  0.00  0.00    +0.000 S 
ATOM     22  C   UNL     1      51.012   9.133  13.145  0.00  0.00    +0.000 A 
ATOM     23  N   UNL     1      52.340   9.116  13.441  0.00  0.00    +0.000 NA
ATOM     24  C   UNL     1      52.672   8.272  14.361  0.00  0.00    +0.000 A 
ATOM     25  N   UNL     1      51.794   7.455  15.026  0.00  0.00    +0.000 N 
ATOM     26  C   UNL     1      50.448   7.438  14.762  0.00  0.00    +0.000 A 
ATOM     27  O   UNL     1      49.694   6.682  15.367  0.00  0.00    +0.000 OA
ATOM     28  C   UNL     1      50.028   8.345  13.710  0.00  0.00    +0.000 A 
ATOM     29  H   UNL     1      52.117   6.817  15.738  0.00  0.00    +0.000 HD
ENDBRANCH  16  19
ENDBRANCH   1  15
BRANCH   1  30
ATOM     30  C   UNL     1      46.802   4.628  14.782  0.00  0.00    +0.000 C 
BRANCH  30  31
ATOM     31  N   UNL     1      47.333   5.231  16.014  0.00  0.00    +0.000 NA
ATOM     32  H   UNL     1      47.156   6.232  15.996  0.00  0.00    +0.000 HD
ATOM     33  H   UNL     1      48.348   5.119  16.035  0.00  0.00    +0.000 HD
ENDBRANCH  30  31
ENDBRANCH   1  30
TORSDOF 7
ENDMDL
MODEL 3
REMARK VINA RESULT:    -7.831      2.407      3.112
REMARK INTER + INTRA:         -11.350
REMARK INTER:                  -9.950
REMARK INTRA:                  -1.400
REMARK UNBOUND:                -0.543
REMARK  Name = 
REMARK  7 active torsions:
REMARK  status: ('A' for Active; 'I' for Inactive)
REMARK    1  A    between atoms: N_1  and  C_2
REMARK    2  A    between atoms: C_2  and  C_3
REMARK    3  A    between atoms: C_3  and  N_4
REMARK    4  A    between atoms: C_3  and  C_17
REMARK    5  A    between atoms: C_5  and  C_7
REMARK    6  A    between atoms: C_20  and  O_21
REMARK    7  A    between atoms: O_21  and  C_22
REMARK                            x       y       z     vdW  Elec       q    Type
REMARK                         _______ _______ _______ _____ _____    ______ ____
ROOT
ATOM      1  C   UNL     1      48.355   7.162  14.183  0.00  0.00    +0.000 C 
ENDROOT
BRANCH   1   2
ATOM      2  C   UNL     1      47.306   6.484  13.308  0.00  0.00    +0.000 A 
ATOM      3  C   UNL     1      46.770   7.190  12.227  0.00  0.00    +0.000 A 
ATOM      4  C   UNL     1      45.827   6.600  11.385  0.00  0.00    +0.000 A 
ATOM      5  C   UNL     1      45.441   5.273  11.573  0.00  0.00    +0.000 A 
ATOM      6  C   UNL     1      45.942   4.563  12.666  0.00  0.00    +0.000 A 
ATOM      7  C   UNL     1      46.871   5.161  13.528  0.00  0.00    +0.000 A 
BRANCH   5   8
ATOM      8  O   UNL     1      44.529   4.628  10.765  0.00  0.00    +0.000 OA
BRANCH   8   9
ATOM      9  C   UNL     1      45.021   3.847   9.722  0.00  0.00    +0.000 A 
ATOM     10  C   UNL     1      45.590   4.518   8.650  0.00  0.00    +0.000 A 
ATOM     11  C   UNL     1      46.115   3.762   7.604  0.00  0.00    +0.000 A 
ATOM     12  C   UNL     1      46.052   2.374   7.665  0.00  0.00    +0.000 A 
ATOM     13  C   UNL     1      45.444   1.794   8.765  0.00  0.00    +0.000 A 
ATOM     14  N   UNL     1      44.910   2.499   9.782  0.00  0.00    +0.000 NA
ENDBRANCH   8   9
ENDBRANCH   5   8
ENDBRANCH   1   2
BRANCH   1  15
ATOM     15  N   UNL     1      48.253   6.619  15.526  0.00  0.00    +0.000 N 
ATOM     16  C   UNL     1      49.332   6.318  16.311  0.00  0.00    +0.000 C 
ATOM     17  O   UNL     1      50.488   6.343  15.901  0.00  0.00    +0.000 OA
ATOM     18  H   UNL     1      47.346   6.710  15.961  0.00  0.00    +0.000 HD
BRANCH  16  19
ATOM     19  C   UNL     1      49.006   5.903  17.680  0.00  0.00    +0.000 A 
ATOM     20  C   UNL     1      49.217   4.598  18.097  0.00  0.00    +0.000 A 
ATOM     21  S   UNL     1      48.705   4.307  19.700  0.00  0.00    +0.000 S 
ATOM     22  C   UNL     1      48.214   5.926  19.898  0.00  0.00    +0.000 A 
ATOM     23  N   UNL     1      47.654   6.357  21.060  0.00  0.00    +0.000 NA
ATOM     24  C   UNL     1      47.342   7.611  21.071  0.00  0.00    +0.000 A 
ATOM     25  N   UNL     1      47.557   8.478  20.031  0.00  0.00    +0.000 N 
ATOM     26  C   UNL     1      48.119   8.089  18.841  0.00  0.00    +0.000 A 
ATOM     27  O   UNL     1      48.281   8.891  17.927  0.00  0.00    +0.000 OA
ATOM     28  C   UNL     1      48.455   6.680  18.766  0.00  0.00    +0.000 A 
ATOM     29  H   UNL     1      47.292   9.450  20.102  0.00  0.00    +0.000 HD
ENDBRANCH  16  19
ENDBRANCH   1  15
BRANCH   1  30
ATOM     30  C   UNL     1      48.227   8.711  14.187  0.00  0.00    +0.000 C 
BRANCH  30  31
ATOM     31  N   UNL     1      47.401   9.247  15.279  0.00  0.00    +0.000 NA
ATOM     32  H   UNL     1      47.928   9.199  16.148  0.00  0.00    +0.000 HD
ATOM     33  H   UNL     1      46.581   8.652  15.407  0.00  0.00    +0.000 HD
ENDBRANCH  30  31
ENDBRANCH   1  30
TORSDOF 7
ENDMDL
MODEL 4
REMARK VINA RESULT:    -7.741      1.419      2.267
REMARK INTER + INTRA:         -11.226
REMARK INTER:                 -10.655
REMARK INTRA:                  -0.571
REMARK UNBOUND:                -0.543
REMARK  Name = 
REMARK  7 active torsions:
REMARK  status: ('A' for Active; 'I' for Inactive)
REMARK    1  A    between atoms: N_1  and  C_2
REMARK    2  A    between atoms: C_2  and  C_3
REMARK    3  A    between atoms: C_3  and  N_4
REMARK    4  A    between atoms: C_3  and  C_17
REMARK    5  A    between atoms: C_5  and  C_7
REMARK    6  A    between atoms: C_20  and  O_21
REMARK    7  A    between atoms: O_21  and  C_22
REMARK                            x       y       z     vdW  Elec       q    Type
REMARK                         _______ _______ _______ _____ _____    ______ ____
ROOT
ATOM      1  C   UNL     1      46.570   7.001  12.768  0.00  0.00    +0.000 C 
ENDROOT
BRANCH   1   2
ATOM      2  C   UNL     1      46.086   5.990  11.734  0.00  0.00    +0.000 A 
ATOM      3  C   UNL     1      45.480   4.811  12.177  0.00  0.00    +0.000 A 
ATOM      4  C   UNL     1      45.000   3.869  11.267  0.00  0.00    +0.000 A 
ATOM      5  C   UNL     1      45.064   4.112   9.895  0.00  0.00    +0.000 A 
ATOM      6  C   UNL     1      45.693   5.271   9.434  0.00  0.00    +0.000 A 
ATOM      7  C   UNL     1      46.199   6.207  10.346  0.00  0.00    +0.000 A 
BRANCH   5   8
ATOM      8  O   UNL     1      44.590   3.232   8.946  0.00  0.00    +0.000 OA
BRANCH   8   9
ATOM      9  C   UNL     1      45.518   2.603   8.121  0.00  0.00    +0.000 A 
ATOM     10  C   UNL     1      45.907   3.286   6.978  0.00  0.00    +0.000 A 
ATOM     11  C   UNL     1      46.855   2.694   6.146  0.00  0.00    +0.000 A 
ATOM     12  C   UNL     1      47.375   1.448   6.482  0.00  0.00    +0.000 A 
ATOM     13  C   UNL     1      46.910   0.832   7.631  0.00  0.00    +0.000 A 
ATOM     14  N   UNL     1      45.981   1.371   8.444  0.00  0.00    +0.000 NA
ENDBRANCH   8   9
ENDBRANCH   5   8
ENDBRANCH   1   2
BRANCH   1  15
ATOM     15  N   UNL     1      46.831   6.298  14.012  0.00  0.00    +0.000 N 
ATOM     16  C   UNL     1      48.076   6.154  14.561  0.00  0.00    +0.000 C 
ATOM     17  O   UNL     1      49.106   6.480  13.981  0.00  0.00    +0.000 OA
ATOM     18  H   UNL     1      46.021   6.136  14.594  0.00  0.00    +0.000 HD
BRANCH  16  19
ATOM     19  C   UNL     1      48.100   5.521  15.884  0.00  0.00    +0.000 A 
ATOM     20  C   UNL     1      47.547   4.265  16.083  0.00  0.00    +0.000 A 
ATOM     21  S   UNL     1      47.617   3.743  17.707  0.00  0.00    +0.000 S 
ATOM     22  C   UNL     1      48.418   5.166  18.190  0.00  0.00    +0.000 A 
ATOM     23  N   UNL     1      48.760   5.377  19.490  0.00  0.00    +0.000 NA
ATOM     24  C   UNL     1      49.372   6.494  19.707  0.00  0.00    +0.000 A 
ATOM     25  N   UNL     1      49.690   7.412  18.739  0.00  0.00    +0.000 N 
ATOM     26  C   UNL     1      49.366   7.242  17.417  0.00  0.00    +0.000 A 
ATOM     27  O   UNL     1      49.653   8.092  16.581  0.00  0.00    +0.000 OA
ATOM     28  C   UNL     1      48.645   6.016  17.126  0.00  0.00    +0.000 A 
ATOM     29  H   UNL     1      50.173   8.267  18.973  0.00  0.00    +0.000 HD
ENDBRANCH  16  19
ENDBRANCH   1  15
BRANCH   1  30
ATOM     30  C   UNL     1      45.572   8.174  12.980  0.00  0.00    +0.000 C 
BRANCH  30  31
ATOM     31  N   UNL     1      45.628   9.211  11.940  0.00  0.00    +0.000 NA
ATOM     32  H   UNL     1      45.441  10.117  12.364  0.00  0.00    +0.000 HD
ATOM     33  H   UNL     1      44.880   9.052  11.263  0.00  0.00    +0.000 HD
ENDBRANCH  30  31
ENDBRANCH   1  30
TORSDOF 7
ENDMDL
MODEL 5
REMARK VINA RESULT:    -7.395      2.233      4.188
REMARK INTER + INTRA:         -10.748
REMARK INTER:                  -9.841
REMARK INTRA:                  -0.906
REMARK UNBOUND:                -0.543
REMARK  Name = 
REMARK  7 active torsions:
REMARK  status: ('A' for Active; 'I' for Inactive)
REMARK    1  A    between atoms: N_1  and  C_2
REMARK    2  A    between atoms: C_2  and  C_3
REMARK    3  A    between atoms: C_3  and  N_4
REMARK    4  A    between atoms: C_3  and  C_17
REMARK    5  A    between atoms: C_5  and  C_7
REMARK    6  A    between atoms: C_20  and  O_21
REMARK    7  A    between atoms: O_21  and  C_22
REMARK                            x       y       z     vdW  Elec       q    Type
REMARK                         _______ _______ _______ _____ _____    ______ ____
ROOT
ATOM      1  C   UNL     1      46.709   5.116  14.563  0.00  0.00    +0.000 C 
ENDROOT
BRANCH   1   2
ATOM      2  C   UNL     1      46.104   4.768  13.207  0.00  0.00    +0.000 A 
ATOM      3  C   UNL     1      46.142   5.722  12.187  0.00  0.00    +0.000 A 
ATOM      4  C   UNL     1      45.624   5.439  10.923  0.00  0.00    +0.000 A 
ATOM      5  C   UNL     1      45.108   4.175  10.636  0.00  0.00    +0.000 A 
ATOM      6  C   UNL     1      45.034   3.219  11.652  0.00  0.00    +0.000 A 
ATOM      7  C   UNL     1      45.531   3.510  12.929  0.00  0.00    +0.000 A 
BRANCH   5   8
ATOM      8  O   UNL     1      44.600   3.826   9.403  0.00  0.00    +0.000 OA
BRANCH   8   9
ATOM      9  C   UNL     1      45.428   3.121   8.533  0.00  0.00    +0.000 A 
ATOM     10  C   UNL     1      46.021   3.843   7.508  0.00  0.00    +0.000 A 
ATOM     11  C   UNL     1      46.875   3.171   6.638  0.00  0.00    +0.000 A 
ATOM     12  C   UNL     1      47.104   1.811   6.820  0.00  0.00    +0.000 A 
ATOM     13  C   UNL     1      46.450   1.169   7.857  0.00  0.00    +0.000 A 
ATOM     14  N   UNL     1      45.603   1.789   8.703  0.00  0.00    +0.000 NA
ENDBRANCH   8   9
ENDBRANCH   5   8
ENDBRANCH   1   2
BRANCH   1  15
ATOM     15  N   UNL     1      47.713   6.147  14.367  0.00  0.00    +0.000 N 
ATOM     16  C   UNL     1      48.549   6.595  15.353  0.00  0.00    +0.000 C 
ATOM     17  O   UNL     1      48.433   6.271  16.530  0.00  0.00    +0.000 OA
ATOM     18  H   UNL     1      47.947   6.345  13.405  0.00  0.00    +0.000 HD
BRANCH  16  19
ATOM     19  C   UNL     1      49.574   7.547  14.911  0.00  0.00    +0.000 A 
ATOM     20  C   UNL     1      50.912   7.345  15.214  0.00  0.00    +0.000 A 
ATOM     21  S   UNL     1      51.928   8.604  14.669  0.00  0.00    +0.000 S 
ATOM     22  C   UNL     1      50.616   9.444  13.981  0.00  0.00    +0.000 A 
ATOM     23  N   UNL     1      50.791  10.641  13.359  0.00  0.00    +0.000 NA
ATOM     24  C   UNL     1      49.709  11.156  12.875  0.00  0.00    +0.000 A 
ATOM     25  N   UNL     1      48.469  10.573  12.941  0.00  0.00    +0.000 N 
ATOM     26  C   UNL     1      48.245   9.368  13.557  0.00  0.00    +0.000 A 
ATOM     27  O   UNL     1      47.118   8.885  13.610  0.00  0.00    +0.000 OA
ATOM     28  C   UNL     1      49.425   8.765  14.149  0.00  0.00    +0.000 A 
ATOM     29  H   UNL     1      47.661  11.026  12.540  0.00  0.00    +0.000 HD
ENDBRANCH  16  19
ENDBRANCH   1  15
BRANCH   1  30
ATOM     30  C   UNL     1      47.302   3.881  15.296  0.00  0.00    +0.000 C 
BRANCH  30  31
ATOM     31  N   UNL     1      46.755   3.654  16.641  0.00  0.00    +0.000 NA
ATOM     32  H   UNL     1      46.017   2.957  16.587  0.00  0.00    +0.000 HD
ATOM     33  H   UNL     1      46.315   4.513  16.976  0.00  0.00    +0.000 HD
ENDBRANCH  30  31
ENDBRANCH   1  30
TORSDOF 7
ENDMDL
MODEL 6
REMARK VINA RESULT:    -6.991      2.740      4.567
REMARK INTER + INTRA:         -10.191
REMARK INTER:                  -8.955
REMARK INTRA:                  -1.236
REMARK UNBOUND:                -0.543
REMARK  Name = 
REMARK  7 active torsions:
REMARK  status: ('A' for Active; 'I' for Inactive)
REMARK    1  A    between atoms: N_1  and  C_2
REMARK    2  A    between atoms: C_2  and  C_3
REMARK    3  A    between atoms: C_3  and  N_4
REMARK    4  A    between atoms: C_3  and  C_17
REMARK    5  A    between atoms: C_5  and  C_7
REMARK    6  A    between atoms: C_20  and  O_21
REMARK    7  A    between atoms: O_21  and  C_22
REMARK                            x       y       z     vdW  Elec       q    Type
REMARK                         _______ _______ _______ _____ _____    ______ ____
ROOT
ATOM      1  C   UNL     1      47.310   5.612  14.951  0.00  0.00    +0.000 C 
ENDROOT
BRANCH   1   2
ATOM      2  C   UNL     1      46.599   5.218  13.661  0.00  0.00    +0.000 A 
ATOM      3  C   UNL     1      46.281   3.874  13.449  0.00  0.00    +0.000 A 
ATOM      4  C   UNL     1      45.608   3.471  12.295  0.00  0.00    +0.000 A 
ATOM      5  C   UNL     1      45.190   4.412  11.355  0.00  0.00    +0.000 A 
ATOM      6  C   UNL     1      45.526   5.756  11.534  0.00  0.00    +0.000 A 
ATOM      7  C   UNL     1      46.223   6.159  12.680  0.00  0.00    +0.000 A 
BRANCH   5   8
ATOM      8  O   UNL     1      44.506   4.081  10.205  0.00  0.00    +0.000 OA
BRANCH   8   9
ATOM      9  C   UNL     1      45.235   3.551   9.143  0.00  0.00    +0.000 A 
ATOM     10  C   UNL     1      45.360   2.171   9.095  0.00  0.00    +0.000 A 
ATOM     11  C   UNL     1      46.061   1.610   8.030  0.00  0.00    +0.000 A 
ATOM     12  C   UNL     1      46.610   2.441   7.059  0.00  0.00    +0.000 A 
ATOM     13  C   UNL     1      46.453   3.809   7.204  0.00  0.00    +0.000 A 
ATOM     14  N   UNL     1      45.798   4.381   8.233  0.00  0.00    +0.000 NA
ENDBRANCH   8   9
ENDBRANCH   5   8
ENDBRANCH   1   2
BRANCH   1  15
ATOM     15  N   UNL     1      48.582   6.223  14.606  0.00  0.00    +0.000 N 
ATOM     16  C   UNL     1      48.964   7.472  15.013  0.00  0.00    +0.000 C 
ATOM     17  O   UNL     1      48.209   8.251  15.586  0.00  0.00    +0.000 OA
ATOM     18  H   UNL     1      49.288   5.586  14.264  0.00  0.00    +0.000 HD
BRANCH  16  19
ATOM     19  C   UNL     1      50.339   7.844  14.661  0.00  0.00    +0.000 A 
ATOM     20  C   UNL     1      51.319   7.950  15.636  0.00  0.00    +0.000 A 
ATOM     21  S   UNL     1      52.829   8.464  15.026  0.00  0.00    +0.000 S 
ATOM     22  C   UNL     1      52.229   8.529  13.434  0.00  0.00    +0.000 A 
ATOM     23  N   UNL     1      53.016   8.925  12.398  0.00  0.00    +0.000 NA
ATOM     24  C   UNL     1      52.431   8.914  11.246  0.00  0.00    +0.000 A 
ATOM     25  N   UNL     1      51.133   8.527  11.033  0.00  0.00    +0.000 N 
ATOM     26  C   UNL     1      50.302   8.119  12.046  0.00  0.00    +0.000 A 
ATOM     27  O   UNL     1      49.141   7.794  11.820  0.00  0.00    +0.000 OA
ATOM     28  C   UNL     1      50.903   8.147  13.367  0.00  0.00    +0.000 A 
ATOM     29  H   UNL     1      50.733   8.538  10.107  0.00  0.00    +0.000 HD
ENDBRANCH  16  19
ENDBRANCH   1  15
BRANCH   1  30
ATOM     30  C   UNL     1      47.502   4.415  15.924  0.00  0.00    +0.000 C 
BRANCH  30  31
ATOM     31  N   UNL     1      46.818   4.570  17.216  0.00  0.00    +0.000 NA
ATOM     32  H   UNL     1      46.708   3.654  17.644  0.00  0.00    +0.000 HD
ATOM     33  H   UNL     1      45.875   4.928  17.058  0.00  0.00    +0.000 HD
ENDBRANCH  30  31
ENDBRANCH   1  30
TORSDOF 7
ENDMDL
MODEL 7
REMARK VINA RESULT:    -6.876      2.704      3.915
REMARK INTER + INTRA:         -10.032
REMARK INTER:                  -9.096
REMARK INTRA:                  -0.937
REMARK UNBOUND:                -0.543
REMARK  Name = 
REMARK  7 active torsions:
REMARK  status: ('A' for Active; 'I' for Inactive)
REMARK    1  A    between atoms: N_1  and  C_2
REMARK    2  A    between atoms: C_2  and  C_3
REMARK    3  A    between atoms: C_3  and  N_4
REMARK    4  A    between atoms: C_3  and  C_17
REMARK    5  A    between atoms: C_5  and  C_7
REMARK    6  A    between atoms: C_20  and  O_21
REMARK    7  A    between atoms: O_21  and  C_22
REMARK                            x       y       z     vdW  Elec       q    Type
REMARK                         _______ _______ _______ _____ _____    ______ ____
ROOT
ATOM      1  C   UNL     1      47.147   5.636  14.916  0.00  0.00    +0.000 C 
ENDROOT
BRANCH   1   2
ATOM      2  C   UNL     1      46.536   5.389  13.540  0.00  0.00    +0.000 A 
ATOM      3  C   UNL     1      45.546   4.411  13.408  0.00  0.00    +0.000 A 
ATOM      4  C   UNL     1      44.942   4.168  12.174  0.00  0.00    +0.000 A 
ATOM      5  C   UNL     1      45.275   4.936  11.059  0.00  0.00    +0.000 A 
ATOM      6  C   UNL     1      46.284   5.897  11.165  0.00  0.00    +0.000 A 
ATOM      7  C   UNL     1      46.910   6.126  12.398  0.00  0.00    +0.000 A 
BRANCH   5   8
ATOM      8  O   UNL     1      44.701   4.759   9.818  0.00  0.00    +0.000 OA
BRANCH   8   9
ATOM      9  C   UNL     1      45.368   3.948   8.903  0.00  0.00    +0.000 A 
ATOM     10  C   UNL     1      45.313   2.579   9.119  0.00  0.00    +0.000 A 
ATOM     11  C   UNL     1      45.948   1.741   8.206  0.00  0.00    +0.000 A 
ATOM     12  C   UNL     1      46.612   2.297   7.116  0.00  0.00    +0.000 A 
ATOM     13  C   UNL     1      46.633   3.675   6.995  0.00  0.00    +0.000 A 
ATOM     14  N   UNL     1      46.045   4.511   7.873  0.00  0.00    +0.000 NA
ENDBRANCH   8   9
ENDBRANCH   5   8
ENDBRANCH   1   2
BRANCH   1  15
ATOM     15  N   UNL     1      48.488   6.163  14.735  0.00  0.00    +0.000 N 
ATOM     16  C   UNL     1      48.851   7.447  15.038  0.00  0.00    +0.000 C 
ATOM     17  O   UNL     1      48.044   8.315  15.356  0.00  0.00    +0.000 OA
ATOM     18  H   UNL     1      49.212   5.469  14.614  0.00  0.00    +0.000 HD
BRANCH  16  19
ATOM     19  C   UNL     1      50.283   7.735  14.901  0.00  0.00    +0.000 A 
ATOM     20  C   UNL     1      50.733   8.695  14.007  0.00  0.00    +0.000 A 
ATOM     21  S   UNL     1      52.435   8.823  13.952  0.00  0.00    +0.000 S 
ATOM     22  C   UNL     1      52.623   7.622  15.144  0.00  0.00    +0.000 A 
ATOM     23  N   UNL     1      53.856   7.225  15.559  0.00  0.00    +0.000 NA
ATOM     24  C   UNL     1      53.844   6.315  16.476  0.00  0.00    +0.000 A 
ATOM     25  N   UNL     1      52.710   5.779  17.031  0.00  0.00    +0.000 N 
ATOM     26  C   UNL     1      51.447   6.150  16.646  0.00  0.00    +0.000 A 
ATOM     27  O   UNL     1      50.455   5.637  17.155  0.00  0.00    +0.000 OA
ATOM     28  C   UNL     1      51.406   7.145  15.591  0.00  0.00    +0.000 A 
ATOM     29  H   UNL     1      52.768   5.071  17.749  0.00  0.00    +0.000 HD
ENDBRANCH  16  19
ENDBRANCH   1  15
BRANCH   1  30
ATOM     30  C   UNL     1      47.154   4.365  15.810  0.00  0.00    +0.000 C 
BRANCH  30  31
ATOM     31  N   UNL     1      47.878   3.223  15.234  0.00  0.00    +0.000 NA
ATOM     32  H   UNL     1      47.307   2.387  15.329  0.00  0.00    +0.000 HD
ATOM     33  H   UNL     1      48.728   3.053  15.774  0.00  0.00    +0.000 HD
ENDBRANCH  30  31
ENDBRANCH   1  30
TORSDOF 7
ENDMDL
MODEL 8
REMARK VINA RESULT:    -6.594      4.025      5.358
REMARK INTER + INTRA:          -9.643
REMARK INTER:                  -8.223
REMARK INTRA:                  -1.421
REMARK UNBOUND:                -0.543
REMARK  Name = 
REMARK  7 active torsions:
REMARK  status: ('A' for Active; 'I' for Inactive)
REMARK    1  A    between atoms: N_1  and  C_2
REMARK    2  A    between atoms: C_2  and  C_3
REMARK    3  A    between atoms: C_3  and  N_4
REMARK    4  A    between atoms: C_3  and  C_17
REMARK    5  A    between atoms: C_5  and  C_7
REMARK    6  A    between atoms: C_20  and  O_21
REMARK    7  A    between atoms: O_21  and  C_22
REMARK                            x       y       z     vdW  Elec       q    Type
REMARK                         _______ _______ _______ _____ _____    ______ ____
ROOT
ATOM      1  C   UNL     1      48.605   7.408  14.194  0.00  0.00    +0.000 C 
ENDROOT
BRANCH   1   2
ATOM      2  C   UNL     1      47.503   6.796  13.335  0.00  0.00    +0.000 A 
ATOM      3  C   UNL     1      46.941   7.565  12.312  0.00  0.00    +0.000 A 
ATOM      4  C   UNL     1      45.948   7.038  11.486  0.00  0.00    +0.000 A 
ATOM      5  C   UNL     1      45.536   5.713  11.629  0.00  0.00    +0.000 A 
ATOM      6  C   UNL     1      46.065   4.940  12.666  0.00  0.00    +0.000 A 
ATOM      7  C   UNL     1      47.044   5.475  13.513  0.00  0.00    +0.000 A 
BRANCH   5   8
ATOM      8  O   UNL     1      44.574   5.129  10.833  0.00  0.00    +0.000 OA
BRANCH   8   9
ATOM      9  C   UNL     1      45.000   4.269   9.823  0.00  0.00    +0.000 A 
ATOM     10  C   UNL     1      44.738   2.918   9.997  0.00  0.00    +0.000 A 
ATOM     11  C   UNL     1      45.128   2.037   8.991  0.00  0.00    +0.000 A 
ATOM     12  C   UNL     1      45.762   2.533   7.857  0.00  0.00    +0.000 A 
ATOM     13  C   UNL     1      46.002   3.894   7.782  0.00  0.00    +0.000 A 
ATOM     14  N   UNL     1      45.654   4.767   8.747  0.00  0.00    +0.000 NA
ENDBRANCH   8   9
ENDBRANCH   5   8
ENDBRANCH   1   2
BRANCH   1  15
ATOM     15  N   UNL     1      49.816   7.492  13.396  0.00  0.00    +0.000 N 
ATOM     16  C   UNL     1      50.315   8.660  12.889  0.00  0.00    +0.000 C 
ATOM     17  O   UNL     1      49.711   9.726  12.939  0.00  0.00    +0.000 OA
ATOM     18  H   UNL     1      50.420   6.684  13.442  0.00  0.00    +0.000 HD
BRANCH  16  19
ATOM     19  C   UNL     1      51.616   8.540  12.221  0.00  0.00    +0.000 A 
ATOM     20  C   UNL     1      51.726   8.676  10.846  0.00  0.00    +0.000 A 
ATOM     21  S   UNL     1      53.312   8.429  10.265  0.00  0.00    +0.000 S 
ATOM     22  C   UNL     1      53.910   8.165  11.837  0.00  0.00    +0.000 A 
ATOM     23  N   UNL     1      55.220   7.874  12.056  0.00  0.00    +0.000 NA
ATOM     24  C   UNL     1      55.532   7.711  13.299  0.00  0.00    +0.000 A 
ATOM     25  N   UNL     1      54.656   7.831  14.347  0.00  0.00    +0.000 N 
ATOM     26  C   UNL     1      53.327   8.125  14.175  0.00  0.00    +0.000 A 
ATOM     27  O   UNL     1      52.568   8.209  15.136  0.00  0.00    +0.000 OA
ATOM     28  C   UNL     1      52.918   8.283  12.792  0.00  0.00    +0.000 A 
ATOM     29  H   UNL     1      54.963   7.694  15.299  0.00  0.00    +0.000 HD
ENDBRANCH  16  19
ENDBRANCH   1  15
BRANCH   1  30
ATOM     30  C   UNL     1      48.850   6.621  15.512  0.00  0.00    +0.000 C 
BRANCH  30  31
ATOM     31  N   UNL     1      50.268   6.463  15.868  0.00  0.00    +0.000 NA
ATOM     32  H   UNL     1      50.404   5.548  16.289  0.00  0.00    +0.000 HD
ATOM     33  H   UNL     1      50.515   7.148  16.585  0.00  0.00    +0.000 HD
ENDBRANCH  30  31
ENDBRANCH   1  30
TORSDOF 7
ENDMDL
MODEL 9
REMARK VINA RESULT:    -6.469      2.218      3.072
REMARK INTER + INTRA:          -9.470
REMARK INTER:                  -9.326
REMARK INTRA:                  -0.144
REMARK UNBOUND:                -0.543
REMARK  Name = 
REMARK  7 active torsions:
REMARK  status: ('A' for Active; 'I' for Inactive)
REMARK    1  A    between atoms: N_1  and  C_2
REMARK    2  A    between atoms: C_2  and  C_3
REMARK    3  A    between atoms: C_3  and  N_4
REMARK    4  A    between atoms: C_3  and  C_17
REMARK    5  A    between atoms: C_5  and  C_7
REMARK    6  A    between atoms: C_20  and  O_21
REMARK    7  A    between atoms: O_21  and  C_22
REMARK                            x       y       z     vdW  Elec       q    Type
REMARK                         _______ _______ _______ _____ _____    ______ ____
ROOT
ATOM      1  C   UNL     1      48.003   7.611  13.931  0.00  0.00    +0.000 C 
ENDROOT
BRANCH   1   2
ATOM      2  C   UNL     1      47.070   6.822  13.018  0.00  0.00    +0.000 A 
ATOM      3  C   UNL     1      46.873   5.461  13.268  0.00  0.00    +0.000 A 
ATOM      4  C   UNL     1      46.009   4.706  12.474  0.00  0.00    +0.000 A 
ATOM      5  C   UNL     1      45.282   5.308  11.448  0.00  0.00    +0.000 A 
ATOM      6  C   UNL     1      45.490   6.660  11.163  0.00  0.00    +0.000 A 
ATOM      7  C   UNL     1      46.376   7.415  11.944  0.00  0.00    +0.000 A 
BRANCH   5   8
ATOM      8  O   UNL     1      44.400   4.622  10.641  0.00  0.00    +0.000 OA
BRANCH   8   9
ATOM      9  C   UNL     1      44.929   3.806   9.645  0.00  0.00    +0.000 A 
ATOM     10  C   UNL     1      45.541   4.438   8.573  0.00  0.00    +0.000 A 
ATOM     11  C   UNL     1      46.103   3.647   7.574  0.00  0.00    +0.000 A 
ATOM     12  C   UNL     1      46.034   2.262   7.679  0.00  0.00    +0.000 A 
ATOM     13  C   UNL     1      45.383   1.720   8.774  0.00  0.00    +0.000 A 
ATOM     14  N   UNL     1      44.813   2.460   9.745  0.00  0.00    +0.000 NA
ENDBRANCH   8   9
ENDBRANCH   5   8
ENDBRANCH   1   2
BRANCH   1  15
ATOM     15  N   UNL     1      48.238   6.829  15.133  0.00  0.00    +0.000 N 
ATOM     16  C   UNL     1      49.477   6.613  15.672  0.00  0.00    +0.000 C 
ATOM     17  O   UNL     1      50.518   6.939  15.112  0.00  0.00    +0.000 OA
ATOM     18  H   UNL     1      47.423   6.659  15.704  0.00  0.00    +0.000 HD
BRANCH  16  19
ATOM     19  C   UNL     1      49.478   5.905  16.957  0.00  0.00    +0.000 A 
ATOM     20  C   UNL     1      48.289   5.534  17.567  0.00  0.00    +0.000 A 
ATOM     21  S   UNL     1      48.511   4.786  19.086  0.00  0.00    +0.000 S 
ATOM     22  C   UNL     1      50.205   4.905  18.961  0.00  0.00    +0.000 A 
ATOM     23  N   UNL     1      51.020   4.460  19.957  0.00  0.00    +0.000 NA
ATOM     24  C   UNL     1      52.282   4.605  19.720  0.00  0.00    +0.000 A 
ATOM     25  N   UNL     1      52.805   5.136  18.569  0.00  0.00    +0.000 N 
ATOM     26  C   UNL     1      52.024   5.596  17.539  0.00  0.00    +0.000 A 
ATOM     27  O   UNL     1      52.528   6.079  16.530  0.00  0.00    +0.000 OA
ATOM     28  C   UNL     1      50.595   5.488  17.772  0.00  0.00    +0.000 A 
ATOM     29  H   UNL     1      53.803   5.219  18.443  0.00  0.00    +0.000 HD
ENDBRANCH  16  19
ENDBRANCH   1  15
BRANCH   1  30
ATOM     30  C   UNL     1      47.458   9.025  14.275  0.00  0.00    +0.000 C 
BRANCH  30  31
ATOM     31  N   UNL     1      47.502   9.360  15.705  0.00  0.00    +0.000 NA
ATOM     32  H   UNL     1      47.383  10.364  15.815  0.00  0.00    +0.000 HD
ATOM     33  H   UNL     1      48.428   9.139  16.076  0.00  0.00    +0.000 HD
ENDBRANCH  30  31
ENDBRANCH   1  30
TORSDOF 7
ENDMDL
