MODEL 1
REMARK VINA RESULT:    -7.916      0.000      0.000
REMARK INTER + INTRA:         -13.136
REMARK INTER:                 -12.081
REMARK INTRA:                  -1.055
REMARK UNBOUND:                -1.055
REMARK  Name = 
REMARK  10 active torsions:
REMARK  status: ('A' for Active; 'I' for Inactive)
REMARK    1  A    between atoms: C_1  and  O_2
REMARK    2  A    between atoms: O_2  and  C_3
REMARK    3  A    between atoms: C_10  and  C_11
REMARK    4  A    between atoms: N_13  and  C_14
REMARK    5  A    between atoms: C_14  and  C_15
REMARK    6  A    between atoms: C_18  and  C_19
REMARK    7  A    between atoms: C_19  and  O_20
REMARK    8  A    between atoms: O_20  and  C_21
REMARK    9  A    between atoms: C_21  and  C_22
REMARK   10  A    between atoms: C_24  and  C_25
REMARK                            x       y       z     vdW  Elec       q    Type
REMARK                         _______ _______ _______ _____ _____    ______ ____
ROOT
ATOM      1  C   UNL     1      46.752   6.024  13.238  0.00  0.00    +0.000 A 
ATOM      2  C   UNL     1      45.613   6.703  12.786  0.00  0.00    +0.000 A 
ATOM      3  C   UNL     1      44.476   5.996  12.366  0.00  0.00    +0.000 A 
ATOM      4  C   UNL     1      44.457   4.594  12.387  0.00  0.00    +0.000 A 
ATOM      5  C   UNL     1      45.573   3.923  12.898  0.00  0.00    +0.000 A 
ATOM      6  C   UNL     1      46.700   4.628  13.339  0.00  0.00    +0.000 A 
ENDROOT
BRANCH   1   7
ATOM      7  C   UNL     1      48.018   6.770  13.587  0.00  0.00    +0.000 C 
BRANCH   7  10
ATOM      8  C   UNL     1      49.499   7.132  15.517  0.00  0.00    +0.000 C 
ATOM      9  O   UNL     1      50.411   7.500  14.791  0.00  0.00    +0.000 OA
ATOM     10  N   UNL     1      48.288   6.749  15.005  0.00  0.00    +0.000 N 
ATOM     11  H   UNL     1      47.606   6.300  15.601  0.00  0.00    +0.000 HD
BRANCH   8  19
ATOM     12  C   UNL     1      48.882   4.704  17.893  0.00  0.00    +0.000 A 
ATOM     13  N   UNL     1      48.678   3.983  19.016  0.00  0.00    +0.000 NA
ATOM     14  C   UNL     1      48.968   4.533  20.183  0.00  0.00    +0.000 A 
ATOM     15  N   UNL     1      49.456   5.752  20.392  0.00  0.00    +0.000 NA
ATOM     16  C   UNL     1      49.630   6.448  19.254  0.00  0.00    +0.000 A 
ATOM     17  S   UNL     1      50.250   8.026  19.330  0.00  0.00    +0.000 S 
ATOM     18  C   UNL     1      50.164   8.193  17.642  0.00  0.00    +0.000 A 
ATOM     19  C   UNL     1      49.664   7.073  16.985  0.00  0.00    +0.000 A 
ATOM     20  C   UNL     1      49.366   6.019  17.955  0.00  0.00    +0.000 A 
BRANCH  12  22
ATOM     21  C   UNL     1      47.917   2.862  16.840  0.00  0.00    +0.000 C 
ATOM     22  O   UNL     1      48.644   4.082  16.684  0.00  0.00    +0.000 OA
ENDBRANCH  12  22
ENDBRANCH   8  19
ENDBRANCH   7  10
ENDBRANCH   1   7
BRANCH   4  23
ATOM     23  C   UNL     1      43.273   3.806  11.876  0.00  0.00    +0.000 C 
BRANCH  23  24
ATOM     24  O   UNL     1      43.611   3.200  10.633  0.00  0.00    +0.000 OA
BRANCH  24  25
ATOM     25  C   UNL     1      43.971   4.168   9.641  0.00  0.00    +0.000 C 
BRANCH  25  26
ATOM     26  C   UNL     1      45.068   3.627   8.748  0.00  0.00    +0.000 A 
ATOM     27  C   UNL     1      45.327   2.260   8.680  0.00  0.00    +0.000 A 
ATOM     28  C   UNL     1      46.352   1.810   7.849  0.00  0.00    +0.000 A 
ATOM     29  C   UNL     1      47.105   2.729   7.124  0.00  0.00    +0.000 A 
ATOM     30  C   UNL     1      46.797   4.070   7.265  0.00  0.00    +0.000 A 
ATOM     31  N   UNL     1      45.807   4.534   8.058  0.00  0.00    +0.000 NA
BRANCH  28  32
ATOM     32  C   UNL     1      46.624   0.408   7.741  0.00  0.00    +0.000 C 
ATOM     33  N   UNL     1      46.840  -0.729   7.656  0.00  0.00    +0.000 NA
ENDBRANCH  28  32
ENDBRANCH  25  26
ENDBRANCH  24  25
ENDBRANCH  23  24
ENDBRANCH   4  23
TORSDOF 9
ENDMDL
MODEL 2
REMARK VINA RESULT:    -7.179      1.974      2.404
REMARK INTER + INTRA:         -12.010
REMARK INTER:                 -11.000
REMARK INTRA:                  -1.010
REMARK UNBOUND:                -1.055
REMARK  Name = 
REMARK  10 active torsions:
REMARK  status: ('A' for Active; 'I' for Inactive)
REMARK    1  A    between atoms: C_1  and  O_2
REMARK    2  A    between atoms: O_2  and  C_3
REMARK    3  A    between atoms: C_10  and  C_11
REMARK    4  A    between atoms: N_13  and  C_14
REMARK    5  A    between atoms: C_14  and  C_15
REMARK    6  A    between atoms: C_18  and  C_19
REMARK    7  A    between atoms: C_19  and  O_20
REMARK    8  A    between atoms: O_20  and  C_21
REMARK    9  A    between atoms: C_21  and  C_22
REMARK   10  A    between atoms: C_24  and  C_25
REMARK                            x       y       z     vdW  Elec       q    Type
REMARK                         _______ _______ _______ _____ _____    ______ ____
ROOT
ATOM      1  C   UNL     1      47.043   8.086  13.374  0.00  0.00    +0.000 A 
ATOM      2  C   UNL     1      47.228   6.714  13.161  0.00  0.00    +0.000 A 
ATOM      3  C   UNL     1      46.255   5.954  12.494  0.00  0.00    +0.000 A 
ATOM      4  C   UNL     1      45.075   6.551  12.028  0.00  0.00    +0.000 A 
ATOM      5  C   UNL     1      44.924   7.933  12.187  0.00  0.00    +0.000 A 
ATOM      6  C   UNL     1      45.904   8.696  12.832  0.00  0.00    +0.000 A 
ENDROOT
BRANCH   1   7
ATOM      7  C   UNL     1      48.030   8.890  14.185  0.00  0.00    +0.000 C 
BRANCH   7  10
ATOM      8  C   UNL     1      48.291   9.695  16.495  0.00  0.00    +0.000 C 
ATOM      9  O   UNL     1      48.998  10.623  16.128  0.00  0.00    +0.000 OA
ATOM     10  N   UNL     1      47.777   8.792  15.603  0.00  0.00    +0.000 N 
ATOM     11  H   UNL     1      47.331   7.948  15.937  0.00  0.00    +0.000 HD
BRANCH   8  19
ATOM     12  C   UNL     1      48.142   6.924  18.551  0.00  0.00    +0.000 A 
ATOM     13  N   UNL     1      47.942   6.031  19.542  0.00  0.00    +0.000 NA
ATOM     14  C   UNL     1      47.531   6.472  20.719  0.00  0.00    +0.000 A 
ATOM     15  N   UNL     1      47.285   7.734  21.057  0.00  0.00    +0.000 NA
ATOM     16  C   UNL     1      47.478   8.594  20.042  0.00  0.00    +0.000 A 
ATOM     17  S   UNL     1      47.214  10.251  20.294  0.00  0.00    +0.000 S 
ATOM     18  C   UNL     1      47.627  10.612  18.686  0.00  0.00    +0.000 A 
ATOM     19  C   UNL     1      47.965   9.499  17.923  0.00  0.00    +0.000 A 
ATOM     20  C   UNL     1      47.896   8.292  18.748  0.00  0.00    +0.000 A 
BRANCH  12  22
ATOM     21  C   UNL     1      49.405   5.254  17.529  0.00  0.00    +0.000 C 
ATOM     22  O   UNL     1      48.643   6.449  17.355  0.00  0.00    +0.000 OA
ENDBRANCH  12  22
ENDBRANCH   8  19
ENDBRANCH   7  10
ENDBRANCH   1   7
BRANCH   4  23
ATOM     23  C   UNL     1      43.981   5.745  11.369  0.00  0.00    +0.000 C 
BRANCH  23  24
ATOM     24  O   UNL     1      44.526   4.529  10.868  0.00  0.00    +0.000 OA
BRANCH  24  25
ATOM     25  C   UNL     1      44.011   4.199   9.574  0.00  0.00    +0.000 C 
BRANCH  25  26
ATOM     26  C   UNL     1      45.110   3.642   8.694  0.00  0.00    +0.000 A 
ATOM     27  C   UNL     1      45.354   2.273   8.632  0.00  0.00    +0.000 A 
ATOM     28  C   UNL     1      46.381   1.808   7.812  0.00  0.00    +0.000 A 
ATOM     29  C   UNL     1      47.151   2.716   7.092  0.00  0.00    +0.000 A 
ATOM     30  C   UNL     1      46.858   4.060   7.225  0.00  0.00    +0.000 A 
ATOM     31  N   UNL     1      45.866   4.538   8.008  0.00  0.00    +0.000 NA
BRANCH  28  32
ATOM     32  C   UNL     1      46.637   0.402   7.711  0.00  0.00    +0.000 C 
ATOM     33  N   UNL     1      46.844  -0.737   7.625  0.00  0.00    +0.000 NA
ENDBRANCH  28  32
ENDBRANCH  25  26
ENDBRANCH  24  25
ENDBRANCH  23  24
ENDBRANCH   4  23
TORSDOF 9
ENDMDL
MODEL 3
REMARK VINA RESULT:    -6.790      2.013      2.670
REMARK INTER + INTRA:         -11.418
REMARK INTER:                 -10.192
REMARK INTRA:                  -1.225
REMARK UNBOUND:                -1.055
REMARK  Name = 
REMARK  10 active torsions:
REMARK  status: ('A' for Active; 'I' for Inactive)
REMARK    1  A    between atoms: C_1  and  O_2
REMARK    2  A    between atoms: O_2  and  C_3
REMARK    3  A    between atoms: C_10  and  C_11
REMARK    4  A    between atoms: N_13  and  C_14
REMARK    5  A    between atoms: C_14  and  C_15
REMARK    6  A    between atoms: C_18  and  C_19
REMARK    7  A    between atoms: C_19  and  O_20
REMARK    8  A    between atoms: O_20  and  C_21
REMARK    9  A    between atoms: C_21  and  C_22
REMARK   10  A    between atoms: C_24  and  C_25
REMARK                            x       y       z     vdW  Elec       q    Type
REMARK                         _______ _______ _______ _____ _____    ______ ____
ROOT
ATOM      1  C   UNL     1      47.928   6.560  13.953  0.00  0.00    +0.000 A 
ATOM      2  C   UNL     1      47.463   5.331  14.439  0.00  0.00    +0.000 A 
ATOM      3  C   UNL     1      46.480   4.610  13.745  0.00  0.00    +0.000 A 
ATOM      4  C   UNL     1      45.940   5.106  12.550  0.00  0.00    +0.000 A 
ATOM      5  C   UNL     1      46.452   6.302  12.036  0.00  0.00    +0.000 A 
ATOM      6  C   UNL     1      47.449   7.011  12.716  0.00  0.00    +0.000 A 
ENDROOT
BRANCH   1   7
ATOM      7  C   UNL     1      48.903   7.395  14.747  0.00  0.00    +0.000 C 
BRANCH   7  10
ATOM      8  C   UNL     1      49.501   7.209  17.126  0.00  0.00    +0.000 C 
ATOM      9  O   UNL     1      49.086   8.337  17.353  0.00  0.00    +0.000 OA
ATOM     10  N   UNL     1      49.454   6.671  15.868  0.00  0.00    +0.000 N 
ATOM     11  H   UNL     1      49.942   5.808  15.667  0.00  0.00    +0.000 HD
BRANCH   8  19
ATOM     12  C   UNL     1      52.474   5.485  17.461  0.00  0.00    +0.000 A 
ATOM     13  N   UNL     1      53.496   4.684  17.827  0.00  0.00    +0.000 NA
ATOM     14  C   UNL     1      53.431   4.068  18.996  0.00  0.00    +0.000 A 
ATOM     15  N   UNL     1      52.446   4.147  19.885  0.00  0.00    +0.000 NA
ATOM     16  C   UNL     1      51.438   4.939  19.480  0.00  0.00    +0.000 A 
ATOM     17  S   UNL     1      50.094   5.159  20.494  0.00  0.00    +0.000 S 
ATOM     18  C   UNL     1      49.347   6.183  19.362  0.00  0.00    +0.000 A 
ATOM     19  C   UNL     1      50.084   6.377  18.199  0.00  0.00    +0.000 A 
ATOM     20  C   UNL     1      51.349   5.646  18.284  0.00  0.00    +0.000 A 
BRANCH  12  22
ATOM     21  C   UNL     1      53.145   7.483  16.465  0.00  0.00    +0.000 C 
ATOM     22  O   UNL     1      52.600   6.176  16.272  0.00  0.00    +0.000 OA
ENDBRANCH  12  22
ENDBRANCH   8  19
ENDBRANCH   7  10
ENDBRANCH   1   7
BRANCH   4  23
ATOM     23  C   UNL     1      44.831   4.385  11.818  0.00  0.00    +0.000 C 
BRANCH  23  24
ATOM     24  O   UNL     1      44.522   5.088  10.619  0.00  0.00    +0.000 OA
BRANCH  24  25
ATOM     25  C   UNL     1      43.980   4.225   9.613  0.00  0.00    +0.000 C 
BRANCH  25  26
ATOM     26  C   UNL     1      45.086   3.671   8.741  0.00  0.00    +0.000 A 
ATOM     27  C   UNL     1      45.329   2.301   8.676  0.00  0.00    +0.000 A 
ATOM     28  C   UNL     1      46.363   1.838   7.863  0.00  0.00    +0.000 A 
ATOM     29  C   UNL     1      47.140   2.748   7.153  0.00  0.00    +0.000 A 
ATOM     30  C   UNL     1      46.847   4.092   7.289  0.00  0.00    +0.000 A 
ATOM     31  N   UNL     1      45.848   4.568   8.064  0.00  0.00    +0.000 NA
BRANCH  28  32
ATOM     32  C   UNL     1      46.620   0.433   7.760  0.00  0.00    +0.000 C 
ATOM     33  N   UNL     1      46.832  -0.705   7.674  0.00  0.00    +0.000 NA
ENDBRANCH  28  32
ENDBRANCH  25  26
ENDBRANCH  24  25
ENDBRANCH  23  24
ENDBRANCH   4  23
TORSDOF 9
ENDMDL
MODEL 4
REMARK VINA RESULT:    -6.684      3.664      8.519
REMARK INTER + INTRA:         -11.256
REMARK INTER:                  -9.449
REMARK INTRA:                  -1.807
REMARK UNBOUND:                -1.055
REMARK  Name = 
REMARK  10 active torsions:
REMARK  status: ('A' for Active; 'I' for Inactive)
REMARK    1  A    between atoms: C_1  and  O_2
REMARK    2  A    between atoms: O_2  and  C_3
REMARK    3  A    between atoms: C_10  and  C_11
REMARK    4  A    between atoms: N_13  and  C_14
REMARK    5  A    between atoms: C_14  and  C_15
REMARK    6  A    between atoms: C_18  and  C_19
REMARK    7  A    between atoms: C_19  and  O_20
REMARK    8  A    between atoms: O_20  and  C_21
REMARK    9  A    between atoms: C_21  and  C_22
REMARK   10  A    between atoms: C_24  and  C_25
REMARK                            x       y       z     vdW  Elec       q    Type
REMARK                         _______ _______ _______ _____ _____    ______ ____
ROOT
ATOM      1  C   UNL     1      48.671   8.644  15.874  0.00  0.00    +0.000 A 
ATOM      2  C   UNL     1      47.905   9.197  16.909  0.00  0.00    +0.000 A 
ATOM      3  C   UNL     1      48.232   8.954  18.252  0.00  0.00    +0.000 A 
ATOM      4  C   UNL     1      49.331   8.151  18.587  0.00  0.00    +0.000 A 
ATOM      5  C   UNL     1      50.130   7.654  17.551  0.00  0.00    +0.000 A 
ATOM      6  C   UNL     1      49.817   7.914  16.211  0.00  0.00    +0.000 A 
ENDROOT
BRANCH   1   7
ATOM      7  C   UNL     1      48.264   8.808  14.429  0.00  0.00    +0.000 C 
BRANCH   7  10
ATOM      8  C   UNL     1      47.712   6.638  13.411  0.00  0.00    +0.000 C 
ATOM      9  O   UNL     1      48.891   6.404  13.188  0.00  0.00    +0.000 OA
ATOM     10  N   UNL     1      47.315   7.802  14.013  0.00  0.00    +0.000 N 
ATOM     11  H   UNL     1      46.335   8.048  14.045  0.00  0.00    +0.000 HD
BRANCH   8  19
ATOM     12  C   UNL     1      44.623   6.963  11.901  0.00  0.00    +0.000 A 
ATOM     13  N   UNL     1      43.378   6.806  11.405  0.00  0.00    +0.000 NA
ATOM     14  C   UNL     1      42.856   5.591  11.379  0.00  0.00    +0.000 A 
ATOM     15  N   UNL     1      43.429   4.467  11.795  0.00  0.00    +0.000 NA
ATOM     16  C   UNL     1      44.661   4.662  12.298  0.00  0.00    +0.000 A 
ATOM     17  S   UNL     1      45.545   3.334  12.875  0.00  0.00    +0.000 S 
ATOM     18  C   UNL     1      46.854   4.329  13.303  0.00  0.00    +0.000 A 
ATOM     19  C   UNL     1      46.655   5.678  13.029  0.00  0.00    +0.000 A 
ATOM     20  C   UNL     1      45.345   5.871  12.405  0.00  0.00    +0.000 A 
BRANCH  12  22
ATOM     21  C   UNL     1      44.342   9.150  11.145  0.00  0.00    +0.000 C 
ATOM     22  O   UNL     1      45.176   8.227  11.847  0.00  0.00    +0.000 OA
ENDBRANCH  12  22
ENDBRANCH   8  19
ENDBRANCH   7  10
ENDBRANCH   1   7
BRANCH   4  23
ATOM     23  C   UNL     1      49.664   7.816  20.022  0.00  0.00    +0.000 C 
BRANCH  23  24
ATOM     24  O   UNL     1      49.729   6.402  20.174  0.00  0.00    +0.000 OA
BRANCH  24  25
ATOM     25  C   UNL     1      48.433   5.795  20.131  0.00  0.00    +0.000 C 
BRANCH  25  26
ATOM     26  C   UNL     1      48.319   4.879  18.931  0.00  0.00    +0.000 A 
ATOM     27  C   UNL     1      49.320   3.956  18.636  0.00  0.00    +0.000 A 
ATOM     28  C   UNL     1      49.173   3.138  17.517  0.00  0.00    +0.000 A 
ATOM     29  C   UNL     1      48.048   3.271  16.710  0.00  0.00    +0.000 A 
ATOM     30  C   UNL     1      47.111   4.225  17.060  0.00  0.00    +0.000 A 
ATOM     31  N   UNL     1      47.225   5.028  18.141  0.00  0.00    +0.000 NA
BRANCH  28  32
ATOM     32  C   UNL     1      50.177   2.165  17.205  0.00  0.00    +0.000 C 
ATOM     33  N   UNL     1      50.989   1.374  16.956  0.00  0.00    +0.000 NA
ENDBRANCH  28  32
ENDBRANCH  25  26
ENDBRANCH  24  25
ENDBRANCH  23  24
ENDBRANCH   4  23
TORSDOF 9
ENDMDL
MODEL 5
REMARK VINA RESULT:    -6.596      4.031      9.235
REMARK INTER + INTRA:         -11.121
REMARK INTER:                  -9.541
REMARK INTRA:                  -1.580
REMARK UNBOUND:                -1.055
REMARK  Name = 
REMARK  10 active torsions:
REMARK  status: ('A' for Active; 'I' for Inactive)
REMARK    1  A    between atoms: C_1  and  O_2
REMARK    2  A    between atoms: O_2  and  C_3
REMARK    3  A    between atoms: C_10  and  C_11
REMARK    4  A    between atoms: N_13  and  C_14
REMARK    5  A    between atoms: C_14  and  C_15
REMARK    6  A    between atoms: C_18  and  C_19
REMARK    7  A    between atoms: C_19  and  O_20
REMARK    8  A    between atoms: O_20  and  C_21
REMARK    9  A    between atoms: C_21  and  C_22
REMARK   10  A    between atoms: C_24  and  C_25
REMARK                            x       y       z     vdW  Elec       q    Type
REMARK                         _______ _______ _______ _____ _____    ______ ____
ROOT
ATOM      1  C   UNL     1      47.886   4.845  16.786  0.00  0.00    +0.000 A 
ATOM      2  C   UNL     1      47.700   4.685  18.165  0.00  0.00    +0.000 A 
ATOM      3  C   UNL     1      48.457   5.431  19.082  0.00  0.00    +0.000 A 
ATOM      4  C   UNL     1      49.417   6.350  18.637  0.00  0.00    +0.000 A 
ATOM      5  C   UNL     1      49.554   6.552  17.259  0.00  0.00    +0.000 A 
ATOM      6  C   UNL     1      48.783   5.825  16.344  0.00  0.00    +0.000 A 
ENDROOT
BRANCH   1   7
ATOM      7  C   UNL     1      47.157   3.971  15.794  0.00  0.00    +0.000 C 
BRANCH   7  10
ATOM      8  C   UNL     1      45.993   4.247  13.645  0.00  0.00    +0.000 C 
ATOM      9  O   UNL     1      46.323   3.126  13.283  0.00  0.00    +0.000 OA
ATOM     10  N   UNL     1      46.367   4.743  14.864  0.00  0.00    +0.000 N 
ATOM     11  H   UNL     1      46.223   5.721  15.079  0.00  0.00    +0.000 HD
BRANCH   8  19
ATOM     12  C   UNL     1      46.162   7.593  12.807  0.00  0.00    +0.000 A 
ATOM     13  N   UNL     1      45.951   8.852  12.371  0.00  0.00    +0.000 NA
ATOM     14  C   UNL     1      44.908   9.086  11.591  0.00  0.00    +0.000 A 
ATOM     15  N   UNL     1      44.014   8.199  11.168  0.00  0.00    +0.000 NA
ATOM     16  C   UNL     1      44.245   6.959  11.635  0.00  0.00    +0.000 A 
ATOM     17  S   UNL     1      43.202   5.695  11.193  0.00  0.00    +0.000 S 
ATOM     18  C   UNL     1      44.090   4.576  12.112  0.00  0.00    +0.000 A 
ATOM     19  C   UNL     1      45.183   5.125  12.774  0.00  0.00    +0.000 A 
ATOM     20  C   UNL     1      45.285   6.552  12.467  0.00  0.00    +0.000 A 
BRANCH  12  22
ATOM     21  C   UNL     1      48.417   7.008  12.741  0.00  0.00    +0.000 C 
ATOM     22  O   UNL     1      47.298   7.359  13.556  0.00  0.00    +0.000 OA
ENDBRANCH  12  22
ENDBRANCH   8  19
ENDBRANCH   7  10
ENDBRANCH   1   7
BRANCH   4  23
ATOM     23  C   UNL     1      50.294   7.115  19.601  0.00  0.00    +0.000 C 
BRANCH  23  24
ATOM     24  O   UNL     1      51.648   6.708  19.433  0.00  0.00    +0.000 OA
BRANCH  24  25
ATOM     25  C   UNL     1      51.994   5.619  20.296  0.00  0.00    +0.000 C 
BRANCH  25  26
ATOM     26  C   UNL     1      52.327   4.386  19.482  0.00  0.00    +0.000 A 
ATOM     27  C   UNL     1      51.388   3.818  18.625  0.00  0.00    +0.000 A 
ATOM     28  C   UNL     1      51.739   2.679  17.901  0.00  0.00    +0.000 A 
ATOM     29  C   UNL     1      53.004   2.123  18.063  0.00  0.00    +0.000 A 
ATOM     30  C   UNL     1      53.870   2.735  18.950  0.00  0.00    +0.000 A 
ATOM     31  N   UNL     1      53.559   3.842  19.660  0.00  0.00    +0.000 NA
BRANCH  28  32
ATOM     32  C   UNL     1      50.801   2.089  16.994  0.00  0.00    +0.000 C 
ATOM     33  N   UNL     1      50.041   1.607  16.261  0.00  0.00    +0.000 NA
ENDBRANCH  28  32
ENDBRANCH  25  26
ENDBRANCH  24  25
ENDBRANCH  23  24
ENDBRANCH   4  23
TORSDOF 9
ENDMDL
MODEL 6
REMARK VINA RESULT:    -6.201      2.856      4.354
REMARK INTER + INTRA:         -10.518
REMARK INTER:                  -9.371
REMARK INTRA:                  -1.147
REMARK UNBOUND:                -1.055
REMARK  Name = 
REMARK  10 active torsions:
REMARK  status: ('A' for Active; 'I' for Inactive)
REMARK    1  A    between atoms: C_1  and  O_2
REMARK    2  A    between atoms: O_2  and  C_3
REMARK    3  A    between atoms: C_10  and  C_11
REMARK    4  A    between atoms: N_13  and  C_14
REMARK    5  A    between atoms: C_14  and  C_15
REMARK    6  A    between atoms: C_18  and  C_19
REMARK    7  A    between atoms: C_19  and  O_20
REMARK    8  A    between atoms: O_20  and  C_21
REMARK    9  A    between atoms: C_21  and  C_22
REMARK   10  A    between atoms: C_24  and  C_25
REMARK                            x       y       z     vdW  Elec       q    Type
REMARK                         _______ _______ _______ _____ _____    ______ ____
ROOT
ATOM      1  C   UNL     1      49.455   7.936  15.940  0.00  0.00    +0.000 A 
ATOM      2  C   UNL     1      50.131   7.356  14.859  0.00  0.00    +0.000 A 
ATOM      3  C   UNL     1      49.609   7.437  13.559  0.00  0.00    +0.000 A 
ATOM      4  C   UNL     1      48.397   8.099  13.315  0.00  0.00    +0.000 A 
ATOM      5  C   UNL     1      47.758   8.730  14.387  0.00  0.00    +0.000 A 
ATOM      6  C   UNL     1      48.290   8.669  15.681  0.00  0.00    +0.000 A 
ENDROOT
BRANCH   1   7
ATOM      7  C   UNL     1      49.950   7.760  17.355  0.00  0.00    +0.000 C 
BRANCH   7  10
ATOM      8  C   UNL     1      51.287   6.206  18.714  0.00  0.00    +0.000 C 
ATOM      9  O   UNL     1      51.178   6.921  19.700  0.00  0.00    +0.000 OA
ATOM     10  N   UNL     1      50.717   6.548  17.517  0.00  0.00    +0.000 N 
ATOM     11  H   UNL     1      50.948   6.030  16.680  0.00  0.00    +0.000 HD
BRANCH   8  19
ATOM     12  C   UNL     1      50.775   3.055  17.396  0.00  0.00    +0.000 A 
ATOM     13  N   UNL     1      50.795   1.746  17.072  0.00  0.00    +0.000 NA
ATOM     14  C   UNL     1      51.796   1.000  17.509  0.00  0.00    +0.000 A 
ATOM     15  N   UNL     1      52.822   1.399  18.255  0.00  0.00    +0.000 NA
ATOM     16  C   UNL     1      52.761   2.704  18.574  0.00  0.00    +0.000 A 
ATOM     17  S   UNL     1      53.992   3.388  19.520  0.00  0.00    +0.000 S 
ATOM     18  C   UNL     1      53.240   4.912  19.483  0.00  0.00    +0.000 A 
ATOM     19  C   UNL     1      52.049   4.940  18.766  0.00  0.00    +0.000 A 
ATOM     20  C   UNL     1      51.776   3.617  18.203  0.00  0.00    +0.000 A 
BRANCH  12  22
ATOM     21  C   UNL     1      48.501   3.559  17.478  0.00  0.00    +0.000 C 
ATOM     22  O   UNL     1      49.762   3.828  16.864  0.00  0.00    +0.000 OA
ENDBRANCH  12  22
ENDBRANCH   8  19
ENDBRANCH   7  10
ENDBRANCH   1   7
BRANCH   4  23
ATOM     23  C   UNL     1      47.777   8.141  11.938  0.00  0.00    +0.000 C 
BRANCH  23  24
ATOM     24  O   UNL     1      47.270   6.852  11.608  0.00  0.00    +0.000 OA
BRANCH  24  25
ATOM     25  C   UNL     1      45.839   6.827  11.578  0.00  0.00    +0.000 C 
BRANCH  25  26
ATOM     26  C   UNL     1      45.348   5.622  10.803  0.00  0.00    +0.000 A 
ATOM     27  C   UNL     1      45.869   5.317   9.548  0.00  0.00    +0.000 A 
ATOM     28  C   UNL     1      45.381   4.201   8.869  0.00  0.00    +0.000 A 
ATOM     29  C   UNL     1      44.377   3.430   9.445  0.00  0.00    +0.000 A 
ATOM     30  C   UNL     1      43.899   3.813  10.685  0.00  0.00    +0.000 A 
ATOM     31  N   UNL     1      44.357   4.886  11.367  0.00  0.00    +0.000 NA
BRANCH  28  32
ATOM     32  C   UNL     1      45.917   3.851   7.588  0.00  0.00    +0.000 C 
ATOM     33  N   UNL     1      46.351   3.562   6.550  0.00  0.00    +0.000 NA
ENDBRANCH  28  32
ENDBRANCH  25  26
ENDBRANCH  24  25
ENDBRANCH  23  24
ENDBRANCH   4  23
TORSDOF 9
ENDMDL
MODEL 7
REMARK VINA RESULT:    -6.146      3.653      8.497
REMARK INTER + INTRA:         -10.434
REMARK INTER:                  -8.413
REMARK INTRA:                  -2.021
REMARK UNBOUND:                -1.055
REMARK  Name = 
REMARK  10 active torsions:
REMARK  status: ('A' for Active; 'I' for Inactive)
REMARK    1  A    between atoms: C_1  and  O_2
REMARK    2  A    between atoms: O_2  and  C_3
REMARK    3  A    between atoms: C_10  and  C_11
REMARK    4  A    between atoms: N_13  and  C_14
REMARK    5  A    between atoms: C_14  and  C_15
REMARK    6  A    between atoms: C_18  and  C_19
REMARK    7  A    between atoms: C_19  and  O_20
REMARK    8  A    between atoms: O_20  and  C_21
REMARK    9  A    between atoms: C_21  and  C_22
REMARK   10  A    between atoms: C_24  and  C_25
REMARK                            x       y       z     vdW  Elec       q    Type
REMARK                         _______ _______ _______ _____ _____    ______ ____
ROOT
ATOM      1  C   UNL     1      49.423   8.457  14.009  0.00  0.00    +0.000 A 
ATOM      2  C   UNL     1      49.051   9.397  14.978  0.00  0.00    +0.000 A 
ATOM      3  C   UNL     1      49.457   9.251  16.313  0.00  0.00    +0.000 A 
ATOM      4  C   UNL     1      50.243   8.159  16.706  0.00  0.00    +0.000 A 
ATOM      5  C   UNL     1      50.664   7.257  15.723  0.00  0.00    +0.000 A 
ATOM      6  C   UNL     1      50.278   7.414  14.387  0.00  0.00    +0.000 A 
ENDROOT
BRANCH   1   7
ATOM      7  C   UNL     1      48.901   8.545  12.595  0.00  0.00    +0.000 C 
BRANCH   7  10
ATOM      8  C   UNL     1      46.510   7.974  12.512  0.00  0.00    +0.000 C 
ATOM      9  O   UNL     1      46.194   9.098  12.875  0.00  0.00    +0.000 OA
ATOM     10  N   UNL     1      47.822   7.616  12.354  0.00  0.00    +0.000 N 
ATOM     11  H   UNL     1      48.069   6.646  12.209  0.00  0.00    +0.000 HD
BRANCH   8  19
ATOM     12  C   UNL     1      46.366   4.560  13.013  0.00  0.00    +0.000 A 
ATOM     13  N   UNL     1      46.070   3.244  13.026  0.00  0.00    +0.000 NA
ATOM     14  C   UNL     1      44.915   2.849  12.516  0.00  0.00    +0.000 A 
ATOM     15  N   UNL     1      43.976   3.619  11.977  0.00  0.00    +0.000 NA
ATOM     16  C   UNL     1      44.310   4.922  11.965  0.00  0.00    +0.000 A 
ATOM     17  S   UNL     1      43.226   6.053  11.315  0.00  0.00    +0.000 S 
ATOM     18  C   UNL     1      44.294   7.335  11.639  0.00  0.00    +0.000 A 
ATOM     19  C   UNL     1      45.488   6.942  12.235  0.00  0.00    +0.000 A 
ATOM     20  C   UNL     1      45.484   5.495  12.450  0.00  0.00    +0.000 A 
BRANCH  12  22
ATOM     21  C   UNL     1      47.398   5.096  15.033  0.00  0.00    +0.000 C 
ATOM     22  O   UNL     1      47.542   4.956  13.618  0.00  0.00    +0.000 OA
ENDBRANCH  12  22
ENDBRANCH   8  19
ENDBRANCH   7  10
ENDBRANCH   1   7
BRANCH   4  23
ATOM     23  C   UNL     1      50.636   7.939  18.148  0.00  0.00    +0.000 C 
BRANCH  23  24
ATOM     24  O   UNL     1      51.717   7.014  18.208  0.00  0.00    +0.000 OA
BRANCH  24  25
ATOM     25  C   UNL     1      51.607   6.128  19.327  0.00  0.00    +0.000 C 
BRANCH  25  26
ATOM     26  C   UNL     1      50.492   5.128  19.101  0.00  0.00    +0.000 A 
ATOM     27  C   UNL     1      50.530   4.243  18.027  0.00  0.00    +0.000 A 
ATOM     28  C   UNL     1      49.477   3.345  17.857  0.00  0.00    +0.000 A 
ATOM     29  C   UNL     1      48.406   3.364  18.744  0.00  0.00    +0.000 A 
ATOM     30  C   UNL     1      48.435   4.289  19.772  0.00  0.00    +0.000 A 
ATOM     31  N   UNL     1      49.444   5.167  19.964  0.00  0.00    +0.000 NA
BRANCH  28  32
ATOM     32  C   UNL     1      49.503   2.407  16.775  0.00  0.00    +0.000 C 
ATOM     33  N   UNL     1      49.528   1.647  15.898  0.00  0.00    +0.000 NA
ENDBRANCH  28  32
ENDBRANCH  25  26
ENDBRANCH  24  25
ENDBRANCH  23  24
ENDBRANCH   4  23
TORSDOF 9
ENDMDL
MODEL 8
REMARK VINA RESULT:    -5.973      1.694      2.123
REMARK INTER + INTRA:         -10.170
REMARK INTER:                  -9.477
REMARK INTRA:                  -0.693
REMARK UNBOUND:                -1.055
REMARK  Name = 
REMARK  10 active torsions:
REMARK  status: ('A' for Active; 'I' for Inactive)
REMARK    1  A    between atoms: C_1  and  O_2
REMARK    2  A    between atoms: O_2  and  C_3
REMARK    3  A    between atoms: C_10  and  C_11
REMARK    4  A    between atoms: N_13  and  C_14
REMARK    5  A    between atoms: C_14  and  C_15
REMARK    6  A    between atoms: C_18  and  C_19
REMARK    7  A    between atoms: C_19  and  O_20
REMARK    8  A    between atoms: O_20  and  C_21
REMARK    9  A    between atoms: C_21  and  C_22
REMARK   10  A    between atoms: C_24  and  C_25
REMARK                            x       y       z     vdW  Elec       q    Type
REMARK                         _______ _______ _______ _____ _____    ______ ____
ROOT
ATOM      1  C   UNL     1      45.350   7.062  12.441  0.00  0.00    +0.000 A 
ATOM      2  C   UNL     1      45.894   6.235  11.450  0.00  0.00    +0.000 A 
ATOM      3  C   UNL     1      45.475   4.902  11.319  0.00  0.00    +0.000 A 
ATOM      4  C   UNL     1      44.504   4.369  12.178  0.00  0.00    +0.000 A 
ATOM      5  C   UNL     1      43.919   5.217  13.125  0.00  0.00    +0.000 A 
ATOM      6  C   UNL     1      44.320   6.553  13.242  0.00  0.00    +0.000 A 
ENDROOT
BRANCH   1   7
ATOM      7  C   UNL     1      45.871   8.462  12.663  0.00  0.00    +0.000 C 
BRANCH   7  10
ATOM      8  C   UNL     1      47.947   8.278  13.969  0.00  0.00    +0.000 C 
ATOM      9  O   UNL     1      48.568   7.887  12.991  0.00  0.00    +0.000 OA
ATOM     10  N   UNL     1      46.613   8.578  13.896  0.00  0.00    +0.000 N 
ATOM     11  H   UNL     1      46.084   8.745  14.741  0.00  0.00    +0.000 HD
BRANCH   8  19
ATOM     12  C   UNL     1      48.760   6.085  16.510  0.00  0.00    +0.000 A 
ATOM     13  N   UNL     1      49.123   5.482  17.661  0.00  0.00    +0.000 NA
ATOM     14  C   UNL     1      49.652   6.219  18.624  0.00  0.00    +0.000 A 
ATOM     15  N   UNL     1      49.878   7.528  18.593  0.00  0.00    +0.000 NA
ATOM     16  C   UNL     1      49.489   8.100  17.439  0.00  0.00    +0.000 A 
ATOM     17  S   UNL     1      49.706   9.769  17.223  0.00  0.00    +0.000 S 
ATOM     18  C   UNL     1      49.019   9.706  15.670  0.00  0.00    +0.000 A 
ATOM     19  C   UNL     1      48.606   8.435  15.283  0.00  0.00    +0.000 A 
ATOM     20  C   UNL     1      48.912   7.470  16.339  0.00  0.00    +0.000 A 
BRANCH  12  22
ATOM     21  C   UNL     1      47.349   4.312  15.967  0.00  0.00    +0.000 C 
ATOM     22  O   UNL     1      48.283   5.284  15.493  0.00  0.00    +0.000 OA
ENDBRANCH  12  22
ENDBRANCH   8  19
ENDBRANCH   7  10
ENDBRANCH   1   7
BRANCH   4  23
ATOM     23  C   UNL     1      44.086   2.919  12.105  0.00  0.00    +0.000 C 
BRANCH  23  24
ATOM     24  O   UNL     1      43.411   2.684  10.873  0.00  0.00    +0.000 OA
BRANCH  24  25
ATOM     25  C   UNL     1      44.114   1.753  10.043  0.00  0.00    +0.000 C 
BRANCH  25  26
ATOM     26  C   UNL     1      44.885   2.483   8.964  0.00  0.00    +0.000 A 
ATOM     27  C   UNL     1      45.935   1.865   8.291  0.00  0.00    +0.000 A 
ATOM     28  C   UNL     1      46.620   2.580   7.310  0.00  0.00    +0.000 A 
ATOM     29  C   UNL     1      46.258   3.895   7.037  0.00  0.00    +0.000 A 
ATOM     30  C   UNL     1      45.217   4.442   7.765  0.00  0.00    +0.000 A 
ATOM     31  N   UNL     1      44.533   3.771   8.717  0.00  0.00    +0.000 NA
BRANCH  28  32
ATOM     32  C   UNL     1      47.689   1.960   6.585  0.00  0.00    +0.000 C 
ATOM     33  N   UNL     1      48.559   1.459   6.001  0.00  0.00    +0.000 NA
ENDBRANCH  28  32
ENDBRANCH  25  26
ENDBRANCH  24  25
ENDBRANCH  23  24
ENDBRANCH   4  23
TORSDOF 9
ENDMDL
MODEL 9
REMARK VINA RESULT:    -5.511      4.055      9.343
REMARK INTER + INTRA:          -9.466
REMARK INTER:                  -7.851
REMARK INTRA:                  -1.615
REMARK UNBOUND:                -1.055
REMARK  Name = 
REMARK  10 active torsions:
REMARK  status: ('A' for Active; 'I' for Inactive)
REMARK    1  A    between atoms: C_1  and  O_2
REMARK    2  A    between atoms: O_2  and  C_3
REMARK    3  A    between atoms: C_10  and  C_11
REMARK    4  A    between atoms: N_13  and  C_14
REMARK    5  A    between atoms: C_14  and  C_15
REMARK    6  A    between atoms: C_18  and  C_19
REMARK    7  A    between atoms: C_19  and  O_20
REMARK    8  A    between atoms: O_20  and  C_21
REMARK    9  A    between atoms: C_21  and  C_22
REMARK   10  A    between atoms: C_24  and  C_25
REMARK                            x       y       z     vdW  Elec       q    Type
REMARK                         _______ _______ _______ _____ _____    ______ ____
ROOT
ATOM      1  C   UNL     1      48.017   4.352  17.683  0.00  0.00    +0.000 A 
ATOM      2  C   UNL     1      48.503   3.704  18.826  0.00  0.00    +0.000 A 
ATOM      3  C   UNL     1      49.027   4.439  19.900  0.00  0.00    +0.000 A 
ATOM      4  C   UNL     1      49.077   5.839  19.852  0.00  0.00    +0.000 A 
ATOM      5  C   UNL     1      48.533   6.485  18.736  0.00  0.00    +0.000 A 
ATOM      6  C   UNL     1      47.990   5.752  17.673  0.00  0.00    +0.000 A 
ENDROOT
BRANCH   1   7
ATOM      7  C   UNL     1      47.554   3.568  16.478  0.00  0.00    +0.000 C 
BRANCH   7  10
ATOM      8  C   UNL     1      46.806   4.154  14.210  0.00  0.00    +0.000 C 
ATOM      9  O   UNL     1      47.474   3.254  13.721  0.00  0.00    +0.000 OA
ATOM     10  N   UNL     1      46.793   4.382  15.560  0.00  0.00    +0.000 N 
ATOM     11  H   UNL     1      46.366   5.221  15.928  0.00  0.00    +0.000 HD
BRANCH   8  19
ATOM     12  C   UNL     1      47.071   7.469  13.281  0.00  0.00    +0.000 A 
ATOM     13  N   UNL     1      46.891   8.726  12.826  0.00  0.00    +0.000 NA
ATOM     14  C   UNL     1      45.817   8.988  12.098  0.00  0.00    +0.000 A 
ATOM     15  N   UNL     1      44.863   8.132  11.747  0.00  0.00    +0.000 NA
ATOM     16  C   UNL     1      45.066   6.895  12.231  0.00  0.00    +0.000 A 
ATOM     17  S   UNL     1      43.947   5.669  11.879  0.00  0.00    +0.000 S 
ATOM     18  C   UNL     1      44.836   4.532  12.776  0.00  0.00    +0.000 A 
ATOM     19  C   UNL     1      45.986   5.047  13.363  0.00  0.00    +0.000 A 
ATOM     20  C   UNL     1      46.133   6.460  13.015  0.00  0.00    +0.000 A 
BRANCH  12  22
ATOM     21  C   UNL     1      49.292   8.094  13.611  0.00  0.00    +0.000 C 
ATOM     22  O   UNL     1      48.236   7.202  13.972  0.00  0.00    +0.000 OA
ENDBRANCH  12  22
ENDBRANCH   8  19
ENDBRANCH   7  10
ENDBRANCH   1   7
BRANCH   4  23
ATOM     23  C   UNL     1      49.699   6.652  20.963  0.00  0.00    +0.000 C 
BRANCH  23  24
ATOM     24  O   UNL     1      50.438   7.732  20.402  0.00  0.00    +0.000 OA
BRANCH  24  25
ATOM     25  C   UNL     1      51.851   7.517  20.481  0.00  0.00    +0.000 C 
BRANCH  25  26
ATOM     26  C   UNL     1      52.353   6.841  19.222  0.00  0.00    +0.000 A 
ATOM     27  C   UNL     1      52.321   7.498  17.995  0.00  0.00    +0.000 A 
ATOM     28  C   UNL     1      52.788   6.832  16.862  0.00  0.00    +0.000 A 
ATOM     29  C   UNL     1      53.256   5.527  16.975  0.00  0.00    +0.000 A 
ATOM     30  C   UNL     1      53.234   4.939  18.226  0.00  0.00    +0.000 A 
ATOM     31  N   UNL     1      52.792   5.562  19.341  0.00  0.00    +0.000 NA
BRANCH  28  32
ATOM     32  C   UNL     1      52.789   7.493  15.591  0.00  0.00    +0.000 C 
ATOM     33  N   UNL     1      52.786   8.027  14.560  0.00  0.00    +0.000 NA
ENDBRANCH  28  32
ENDBRANCH  25  26
ENDBRANCH  24  25
ENDBRANCH  23  24
ENDBRANCH   4  23
TORSDOF 9
ENDMDL
