MODEL 1
REMARK VINA RESULT:    -8.317      0.000      0.000
REMARK INTER + INTRA:         -10.320
REMARK INTER:                 -10.019
REMARK INTRA:                  -0.301
REMARK UNBOUND:                -0.301
REMARK  Name = 
REMARK  4 active torsions:
REMARK  status: ('A' for Active; 'I' for Inactive)
REMARK    1  A    between atoms: N_1  and  C_2
REMARK    2  A    between atoms: C_2  and  C_3
REMARK    3  A    between atoms: C_7  and  C_8
REMARK    4  A    between atoms: C_8  and  N_9
REMARK                            x       y       z     vdW  Elec       q    Type
REMARK                         _______ _______ _______ _____ _____    ______ ____
ROOT
ATOM      1  C   UNL     1      44.160   4.261   9.061  0.00  0.00    +0.000 C 
ENDROOT
BRANCH   1   2
ATOM      2  N   UNL     1      44.204   4.253  10.520  0.00  0.00    +0.000 N 
ATOM      3  C   UNL     1      43.434   3.429  11.306  0.00  0.00    +0.000 A 
ATOM      4  C   UNL     1      43.864   3.554  12.609  0.00  0.00    +0.000 A 
ATOM      5  C   UNL     1      44.933   4.490  12.621  0.00  0.00    +0.000 A 
ATOM      6  C   UNL     1      45.772   4.988  13.637  0.00  0.00    +0.000 A 
ATOM      7  C   UNL     1      46.759   5.928  13.319  0.00  0.00    +0.000 A 
ATOM      8  C   UNL     1      46.900   6.379  12.012  0.00  0.00    +0.000 A 
ATOM      9 CL   UNL     1      48.116   7.545  11.644  0.00  0.00    +0.000 Cl
ATOM     10  C   UNL     1      46.084   5.900  10.983  0.00  0.00    +0.000 A 
ATOM     11  C   UNL     1      45.111   4.940  11.307  0.00  0.00    +0.000 A 
ENDBRANCH   1   2
BRANCH   1  16
ATOM     12  C   UNL     1      46.674   2.520   6.781  0.00  0.00    +0.000 A 
ATOM     13  C   UNL     1      46.699   1.286   7.418  0.00  0.00    +0.000 A 
ATOM     14  N   UNL     1      45.968   0.981   8.515  0.00  0.00    +0.000 NA
ATOM     15  C   UNL     1      45.166   1.955   8.999  0.00  0.00    +0.000 A 
ATOM     16  C   UNL     1      45.061   3.228   8.452  0.00  0.00    +0.000 A 
ATOM     17  C   UNL     1      45.835   3.502   7.320  0.00  0.00    +0.000 A 
BRANCH  12  18
ATOM     18  C   UNL     1      47.495   2.781   5.551  0.00  0.00    +0.000 C 
BRANCH  18  19
ATOM     19  N   UNL     1      48.547   1.785   5.384  0.00  0.00    +0.000 NA
ATOM     20  H   UNL     1      48.123   0.860   5.325  0.00  0.00    +0.000 HD
ATOM     21  H   UNL     1      49.133   1.775   6.219  0.00  0.00    +0.000 HD
ENDBRANCH  18  19
ENDBRANCH  12  18
ENDBRANCH   1  16
TORSDOF 4
ENDMDL
MODEL 2
REMARK VINA RESULT:    -7.592      1.736      2.322
REMARK INTER + INTRA:          -9.446
REMARK INTER:                  -8.993
REMARK INTRA:                  -0.453
REMARK UNBOUND:                -0.301
REMARK  Name = 
REMARK  4 active torsions:
REMARK  status: ('A' for Active; 'I' for Inactive)
REMARK    1  A    between atoms: N_1  and  C_2
REMARK    2  A    between atoms: C_2  and  C_3
REMARK    3  A    between atoms: C_7  and  C_8
REMARK    4  A    between atoms: C_8  and  N_9
REMARK                            x       y       z     vdW  Elec       q    Type
REMARK                         _______ _______ _______ _____ _____    ______ ____
ROOT
ATOM      1  C   UNL     1      44.277   3.369  10.314  0.00  0.00    +0.000 C 
ENDROOT
BRANCH   1   2
ATOM      2  N   UNL     1      44.945   3.904  11.497  0.00  0.00    +0.000 N 
ATOM      3  C   UNL     1      45.658   3.137  12.387  0.00  0.00    +0.000 A 
ATOM      4  C   UNL     1      46.301   3.984  13.263  0.00  0.00    +0.000 A 
ATOM      5  C   UNL     1      45.966   5.315  12.898  0.00  0.00    +0.000 A 
ATOM      6  C   UNL     1      46.339   6.579  13.398  0.00  0.00    +0.000 A 
ATOM      7  C   UNL     1      45.824   7.736  12.803  0.00  0.00    +0.000 A 
ATOM      8  C   UNL     1      44.937   7.640  11.737  0.00  0.00    +0.000 A 
ATOM      9 CL   UNL     1      44.305   9.078  11.026  0.00  0.00    +0.000 Cl
ATOM     10  C   UNL     1      44.551   6.400  11.219  0.00  0.00    +0.000 A 
ATOM     11  C   UNL     1      45.091   5.244  11.808  0.00  0.00    +0.000 A 
ENDBRANCH   1   2
BRANCH   1  16
ATOM     12  C   UNL     1      46.538   1.984   7.572  0.00  0.00    +0.000 A 
ATOM     13  C   UNL     1      46.842   3.184   6.940  0.00  0.00    +0.000 A 
ATOM     14  N   UNL     1      46.376   4.391   7.335  0.00  0.00    +0.000 NA
ATOM     15  C   UNL     1      45.570   4.404   8.420  0.00  0.00    +0.000 A 
ATOM     16  C   UNL     1      45.192   3.271   9.130  0.00  0.00    +0.000 A 
ATOM     17  C   UNL     1      45.695   2.043   8.687  0.00  0.00    +0.000 A 
BRANCH  12  18
ATOM     18  C   UNL     1      47.112   0.682   7.093  0.00  0.00    +0.000 C 
BRANCH  18  19
ATOM     19  N   UNL     1      46.683  -0.435   7.927  0.00  0.00    +0.000 NA
ATOM     20  H   UNL     1      45.882  -0.888   7.488  0.00  0.00    +0.000 HD
ATOM     21  H   UNL     1      46.350  -0.076   8.820  0.00  0.00    +0.000 HD
ENDBRANCH  18  19
ENDBRANCH  12  18
ENDBRANCH   1  16
TORSDOF 4
ENDMDL
MODEL 3
REMARK VINA RESULT:    -6.834      1.885      2.246
REMARK INTER + INTRA:          -8.533
REMARK INTER:                  -8.121
REMARK INTRA:                  -0.412
REMARK UNBOUND:                -0.301
REMARK  Name = 
REMARK  4 active torsions:
REMARK  status: ('A' for Active; 'I' for Inactive)
REMARK    1  A    between atoms: N_1  and  C_2
REMARK    2  A    between atoms: C_2  and  C_3
REMARK    3  A    between atoms: C_7  and  C_8
REMARK    4  A    between atoms: C_8  and  N_9
REMARK                            x       y       z     vdW  Elec       q    Type
REMARK                         _______ _______ _______ _____ _____    ______ ____
ROOT
ATOM      1  C   UNL     1      43.913   4.658  10.401  0.00  0.00    +0.000 C 
ENDROOT
BRANCH   1   2
ATOM      2  N   UNL     1      44.728   5.154  11.506  0.00  0.00    +0.000 N 
ATOM      3  C   UNL     1      45.485   4.348  12.322  0.00  0.00    +0.000 A 
ATOM      4  C   UNL     1      46.261   5.156  13.123  0.00  0.00    +0.000 A 
ATOM      5  C   UNL     1      45.964   6.504  12.788  0.00  0.00    +0.000 A 
ATOM      6  C   UNL     1      46.457   7.745  13.241  0.00  0.00    +0.000 A 
ATOM      7  C   UNL     1      45.948   8.930  12.698  0.00  0.00    +0.000 A 
ATOM      8  C   UNL     1      44.952   8.884  11.729  0.00  0.00    +0.000 A 
ATOM      9 CL   UNL     1      44.331  10.356  11.081  0.00  0.00    +0.000 Cl
ATOM     10  C   UNL     1      44.447   7.668  11.259  0.00  0.00    +0.000 A 
ATOM     11  C   UNL     1      44.979   6.483  11.795  0.00  0.00    +0.000 A 
ENDBRANCH   1   2
BRANCH   1  16
ATOM     12  C   UNL     1      46.173   3.224   7.684  0.00  0.00    +0.000 A 
ATOM     13  C   UNL     1      45.999   1.876   7.972  0.00  0.00    +0.000 A 
ATOM     14  N   UNL     1      45.212   1.406   8.966  0.00  0.00    +0.000 NA
ATOM     15  C   UNL     1      44.558   2.327   9.709  0.00  0.00    +0.000 A 
ATOM     16  C   UNL     1      44.657   3.700   9.520  0.00  0.00    +0.000 A 
ATOM     17  C   UNL     1      45.483   4.143   8.482  0.00  0.00    +0.000 A 
BRANCH  12  18
ATOM     18  C   UNL     1      47.044   3.674   6.547  0.00  0.00    +0.000 C 
BRANCH  18  19
ATOM     19  N   UNL     1      48.263   2.879   6.455  0.00  0.00    +0.000 NA
ATOM     20  H   UNL     1      48.350   2.307   7.294  0.00  0.00    +0.000 HD
ATOM     21  H   UNL     1      49.069   3.503   6.451  0.00  0.00    +0.000 HD
ENDBRANCH  18  19
ENDBRANCH  12  18
ENDBRANCH   1  16
TORSDOF 4
ENDMDL
MODEL 4
REMARK VINA RESULT:    -6.732      2.960      5.840
REMARK INTER + INTRA:          -8.410
REMARK INTER:                  -7.941
REMARK INTRA:                  -0.469
REMARK UNBOUND:                -0.301
REMARK  Name = 
REMARK  4 active torsions:
REMARK  status: ('A' for Active; 'I' for Inactive)
REMARK    1  A    between atoms: N_1  and  C_2
REMARK    2  A    between atoms: C_2  and  C_3
REMARK    3  A    between atoms: C_7  and  C_8
REMARK    4  A    between atoms: C_8  and  N_9
REMARK                            x       y       z     vdW  Elec       q    Type
REMARK                         _______ _______ _______ _____ _____    ______ ____
ROOT
ATOM      1  C   UNL     1      43.714   6.429  11.004  0.00  0.00    +0.000 C 
ENDROOT
BRANCH   1   2
ATOM      2  N   UNL     1      43.833   4.974  11.006  0.00  0.00    +0.000 N 
ATOM      3  C   UNL     1      43.179   4.153  11.893  0.00  0.00    +0.000 A 
ATOM      4  C   UNL     1      43.369   2.849  11.491  0.00  0.00    +0.000 A 
ATOM      5  C   UNL     1      44.171   2.873  10.319  0.00  0.00    +0.000 A 
ATOM      6  C   UNL     1      44.657   1.869   9.458  0.00  0.00    +0.000 A 
ATOM      7  C   UNL     1      45.443   2.226   8.356  0.00  0.00    +0.000 A 
ATOM      8  C   UNL     1      45.754   3.560   8.122  0.00  0.00    +0.000 A 
ATOM      9 CL   UNL     1      46.733   3.977   6.764  0.00  0.00    +0.000 Cl
ATOM     10  C   UNL     1      45.283   4.577   8.957  0.00  0.00    +0.000 A 
ATOM     11  C   UNL     1      44.477   4.212  10.048  0.00  0.00    +0.000 A 
ENDBRANCH   1   2
BRANCH   1  16
ATOM     12  C   UNL     1      46.969   7.029  12.900  0.00  0.00    +0.000 A 
ATOM     13  C   UNL     1      46.924   8.417  12.936  0.00  0.00    +0.000 A 
ATOM     14  N   UNL     1      45.929   9.161  12.401  0.00  0.00    +0.000 NA
ATOM     15  C   UNL     1      44.922   8.486  11.803  0.00  0.00    +0.000 A 
ATOM     16  C   UNL     1      44.859   7.102  11.700  0.00  0.00    +0.000 A 
ATOM     17  C   UNL     1      45.909   6.371  12.266  0.00  0.00    +0.000 A 
BRANCH  12  18
ATOM     18  C   UNL     1      48.094   6.267  13.538  0.00  0.00    +0.000 C 
BRANCH  18  19
ATOM     19  N   UNL     1      49.376   6.575  12.914  0.00  0.00    +0.000 NA
ATOM     20  H   UNL     1      50.093   6.625  13.637  0.00  0.00    +0.000 HD
ATOM     21  H   UNL     1      49.329   7.504  12.497  0.00  0.00    +0.000 HD
ENDBRANCH  18  19
ENDBRANCH  12  18
ENDBRANCH   1  16
TORSDOF 4
ENDMDL
MODEL 5
REMARK VINA RESULT:    -6.676      1.649      2.189
REMARK INTER + INTRA:          -8.343
REMARK INTER:                  -8.145
REMARK INTRA:                  -0.197
REMARK UNBOUND:                -0.301
REMARK  Name = 
REMARK  4 active torsions:
REMARK  status: ('A' for Active; 'I' for Inactive)
REMARK    1  A    between atoms: N_1  and  C_2
REMARK    2  A    between atoms: C_2  and  C_3
REMARK    3  A    between atoms: C_7  and  C_8
REMARK    4  A    between atoms: C_8  and  N_9
REMARK                            x       y       z     vdW  Elec       q    Type
REMARK                         _______ _______ _______ _____ _____    ______ ____
ROOT
ATOM      1  C   UNL     1      44.737   3.356  10.584  0.00  0.00    +0.000 C 
ENDROOT
BRANCH   1   2
ATOM      2  N   UNL     1      44.385   4.726  10.945  0.00  0.00    +0.000 N 
ATOM      3  C   UNL     1      43.109   5.232  10.880  0.00  0.00    +0.000 A 
ATOM      4  C   UNL     1      43.113   6.479  11.466  0.00  0.00    +0.000 A 
ATOM      5  C   UNL     1      44.438   6.746  11.900  0.00  0.00    +0.000 A 
ATOM      6  C   UNL     1      45.035   7.827  12.580  0.00  0.00    +0.000 A 
ATOM      7  C   UNL     1      46.403   7.789  12.871  0.00  0.00    +0.000 A 
ATOM      8  C   UNL     1      47.172   6.699  12.479  0.00  0.00    +0.000 A 
ATOM      9 CL   UNL     1      48.858   6.677  12.839  0.00  0.00    +0.000 Cl
ATOM     10  C   UNL     1      46.606   5.612  11.806  0.00  0.00    +0.000 A 
ATOM     11  C   UNL     1      45.228   5.649  11.537  0.00  0.00    +0.000 A 
ENDBRANCH   1   2
BRANCH   1  16
ATOM     12  C   UNL     1      46.494   2.000   7.482  0.00  0.00    +0.000 A 
ATOM     13  C   UNL     1      46.736   3.210   6.846  0.00  0.00    +0.000 A 
ATOM     14  N   UNL     1      46.380   4.416   7.344  0.00  0.00    +0.000 NA
ATOM     15  C   UNL     1      45.753   4.417   8.542  0.00  0.00    +0.000 A 
ATOM     16  C   UNL     1      45.452   3.271   9.269  0.00  0.00    +0.000 A 
ATOM     17  C   UNL     1      45.837   2.045   8.717  0.00  0.00    +0.000 A 
BRANCH  12  18
ATOM     18  C   UNL     1      46.941   0.698   6.881  0.00  0.00    +0.000 C 
BRANCH  18  19
ATOM     19  N   UNL     1      47.081  -0.343   7.894  0.00  0.00    +0.000 NA
ATOM     20  H   UNL     1      46.583  -0.056   8.735  0.00  0.00    +0.000 HD
ATOM     21  H   UNL     1      48.062  -0.420   8.158  0.00  0.00    +0.000 HD
ENDBRANCH  18  19
ENDBRANCH  12  18
ENDBRANCH   1  16
TORSDOF 4
ENDMDL
MODEL 6
REMARK VINA RESULT:    -6.576      1.766      2.885
REMARK INTER + INTRA:          -8.223
REMARK INTER:                  -7.886
REMARK INTRA:                  -0.337
REMARK UNBOUND:                -0.301
REMARK  Name = 
REMARK  4 active torsions:
REMARK  status: ('A' for Active; 'I' for Inactive)
REMARK    1  A    between atoms: N_1  and  C_2
REMARK    2  A    between atoms: C_2  and  C_3
REMARK    3  A    between atoms: C_7  and  C_8
REMARK    4  A    between atoms: C_8  and  N_9
REMARK                            x       y       z     vdW  Elec       q    Type
REMARK                         _______ _______ _______ _____ _____    ______ ____
ROOT
ATOM      1  C   UNL     1      44.698   5.958  11.309  0.00  0.00    +0.000 C 
ENDROOT
BRANCH   1   2
ATOM      2  N   UNL     1      45.643   5.875  12.418  0.00  0.00    +0.000 N 
ATOM      3  C   UNL     1      45.610   4.896  13.382  0.00  0.00    +0.000 A 
ATOM      4  C   UNL     1      46.746   5.014  14.153  0.00  0.00    +0.000 A 
ATOM      5  C   UNL     1      47.498   6.106  13.644  0.00  0.00    +0.000 A 
ATOM      6  C   UNL     1      48.739   6.674  13.996  0.00  0.00    +0.000 A 
ATOM      7  C   UNL     1      49.222   7.776  13.281  0.00  0.00    +0.000 A 
ATOM      8  C   UNL     1      48.475   8.317  12.240  0.00  0.00    +0.000 A 
ATOM      9 CL   UNL     1      49.084   9.681  11.379  0.00  0.00    +0.000 Cl
ATOM     10  C   UNL     1      47.243   7.772  11.867  0.00  0.00    +0.000 A 
ATOM     11  C   UNL     1      46.776   6.653  12.577  0.00  0.00    +0.000 A 
ENDBRANCH   1   2
BRANCH   1  16
ATOM     12  C   UNL     1      45.341   3.362   8.590  0.00  0.00    +0.000 A 
ATOM     13  C   UNL     1      44.523   2.352   9.082  0.00  0.00    +0.000 A 
ATOM     14  N   UNL     1      43.788   2.452  10.213  0.00  0.00    +0.000 NA
ATOM     15  C   UNL     1      43.866   3.622  10.886  0.00  0.00    +0.000 A 
ATOM     16  C   UNL     1      44.652   4.699  10.495  0.00  0.00    +0.000 A 
ATOM     17  C   UNL     1      45.397   4.553   9.321  0.00  0.00    +0.000 A 
BRANCH  12  18
ATOM     18  C   UNL     1      46.110   3.190   7.312  0.00  0.00    +0.000 C 
BRANCH  18  19
ATOM     19  N   UNL     1      46.878   4.385   6.981  0.00  0.00    +0.000 NA
ATOM     20  H   UNL     1      46.854   5.025   7.774  0.00  0.00    +0.000 HD
ATOM     21  H   UNL     1      46.423   4.872   6.210  0.00  0.00    +0.000 HD
ENDBRANCH  18  19
ENDBRANCH  12  18
ENDBRANCH   1  16
TORSDOF 4
ENDMDL
MODEL 7
REMARK VINA RESULT:    -6.495      2.184      3.336
REMARK INTER + INTRA:          -8.125
REMARK INTER:                  -7.545
REMARK INTRA:                  -0.579
REMARK UNBOUND:                -0.301
REMARK  Name = 
REMARK  4 active torsions:
REMARK  status: ('A' for Active; 'I' for Inactive)
REMARK    1  A    between atoms: N_1  and  C_2
REMARK    2  A    between atoms: C_2  and  C_3
REMARK    3  A    between atoms: C_7  and  C_8
REMARK    4  A    between atoms: C_8  and  N_9
REMARK                            x       y       z     vdW  Elec       q    Type
REMARK                         _______ _______ _______ _____ _____    ______ ____
ROOT
ATOM      1  C   UNL     1      43.655   5.684  11.574  0.00  0.00    +0.000 C 
ENDROOT
BRANCH   1   2
ATOM      2  N   UNL     1      44.837   6.485  11.881  0.00  0.00    +0.000 N 
ATOM      3  C   UNL     1      45.041   7.761  11.415  0.00  0.00    +0.000 A 
ATOM      4  C   UNL     1      46.152   8.276  12.046  0.00  0.00    +0.000 A 
ATOM      5  C   UNL     1      46.647   7.278  12.928  0.00  0.00    +0.000 A 
ATOM      6  C   UNL     1      47.719   7.239  13.842  0.00  0.00    +0.000 A 
ATOM      7  C   UNL     1      47.951   6.075  14.583  0.00  0.00    +0.000 A 
ATOM      8  C   UNL     1      47.139   4.960  14.409  0.00  0.00    +0.000 A 
ATOM      9 CL   UNL     1      47.450   3.534  15.326  0.00  0.00    +0.000 Cl
ATOM     10  C   UNL     1      46.067   4.972  13.513  0.00  0.00    +0.000 A 
ATOM     11  C   UNL     1      45.828   6.152  12.788  0.00  0.00    +0.000 A 
ENDBRANCH   1   2
BRANCH   1  16
ATOM     12  C   UNL     1      45.029   3.407   8.841  0.00  0.00    +0.000 A 
ATOM     13  C   UNL     1      44.537   2.200   9.322  0.00  0.00    +0.000 A 
ATOM     14  N   UNL     1      43.801   2.074  10.449  0.00  0.00    +0.000 NA
ATOM     15  C   UNL     1      43.535   3.211  11.131  0.00  0.00    +0.000 A 
ATOM     16  C   UNL     1      43.977   4.473  10.752  0.00  0.00    +0.000 A 
ATOM     17  C   UNL     1      44.737   4.558   9.581  0.00  0.00    +0.000 A 
BRANCH  12  18
ATOM     18  C   UNL     1      45.820   3.476   7.566  0.00  0.00    +0.000 C 
BRANCH  18  19
ATOM     19  N   UNL     1      46.693   4.643   7.536  0.00  0.00    +0.000 NA
ATOM     20  H   UNL     1      47.088   4.738   6.601  0.00  0.00    +0.000 HD
ATOM     21  H   UNL     1      47.482   4.487   8.162  0.00  0.00    +0.000 HD
ENDBRANCH  18  19
ENDBRANCH  12  18
ENDBRANCH   1  16
TORSDOF 4
ENDMDL
MODEL 8
REMARK VINA RESULT:    -6.462      2.965      5.588
REMARK INTER + INTRA:          -8.085
REMARK INTER:                  -7.569
REMARK INTRA:                  -0.516
REMARK UNBOUND:                -0.301
REMARK  Name = 
REMARK  4 active torsions:
REMARK  status: ('A' for Active; 'I' for Inactive)
REMARK    1  A    between atoms: N_1  and  C_2
REMARK    2  A    between atoms: C_2  and  C_3
REMARK    3  A    between atoms: C_7  and  C_8
REMARK    4  A    between atoms: C_8  and  N_9
REMARK                            x       y       z     vdW  Elec       q    Type
REMARK                         _______ _______ _______ _____ _____    ______ ____
ROOT
ATOM      1  C   UNL     1      45.024   6.433  11.868  0.00  0.00    +0.000 C 
ENDROOT
BRANCH   1   2
ATOM      2  N   UNL     1      44.638   5.044  11.635  0.00  0.00    +0.000 N 
ATOM      3  C   UNL     1      43.833   4.320  12.480  0.00  0.00    +0.000 A 
ATOM      4  C   UNL     1      43.527   3.127  11.863  0.00  0.00    +0.000 A 
ATOM      5  C   UNL     1      44.171   3.120  10.597  0.00  0.00    +0.000 A 
ATOM      6  C   UNL     1      44.199   2.199   9.530  0.00  0.00    +0.000 A 
ATOM      7  C   UNL     1      44.948   2.492   8.385  0.00  0.00    +0.000 A 
ATOM      8  C   UNL     1      45.672   3.677   8.307  0.00  0.00    +0.000 A 
ATOM      9 CL   UNL     1      46.596   4.013   6.891  0.00  0.00    +0.000 Cl
ATOM     10  C   UNL     1      45.659   4.609   9.348  0.00  0.00    +0.000 A 
ATOM     11  C   UNL     1      44.887   4.317  10.485  0.00  0.00    +0.000 A 
ENDBRANCH   1   2
BRANCH   1  16
ATOM     12  C   UNL     1      48.686   7.436  12.228  0.00  0.00    +0.000 A 
ATOM     13  C   UNL     1      48.960   6.764  13.413  0.00  0.00    +0.000 A 
ATOM     14  N   UNL     1      48.058   6.019  14.091  0.00  0.00    +0.000 NA
ATOM     15  C   UNL     1      46.819   5.933  13.558  0.00  0.00    +0.000 A 
ATOM     16  C   UNL     1      46.425   6.563  12.384  0.00  0.00    +0.000 A 
ATOM     17  C   UNL     1      47.389   7.325  11.715  0.00  0.00    +0.000 A 
BRANCH  12  18
ATOM     18  C   UNL     1      49.745   8.225  11.514  0.00  0.00    +0.000 C 
BRANCH  18  19
ATOM     19  N   UNL     1      50.932   7.420  11.251  0.00  0.00    +0.000 NA
ATOM     20  H   UNL     1      50.920   7.120  10.277  0.00  0.00    +0.000 HD
ATOM     21  H   UNL     1      50.889   6.569  11.810  0.00  0.00    +0.000 HD
ENDBRANCH  18  19
ENDBRANCH  12  18
ENDBRANCH   1  16
TORSDOF 4
ENDMDL
MODEL 9
REMARK VINA RESULT:    -6.116      3.141      6.373
REMARK INTER + INTRA:          -7.669
REMARK INTER:                  -7.374
REMARK INTRA:                  -0.295
REMARK UNBOUND:                -0.301
REMARK  Name = 
REMARK  4 active torsions:
REMARK  status: ('A' for Active; 'I' for Inactive)
REMARK    1  A    between atoms: N_1  and  C_2
REMARK    2  A    between atoms: C_2  and  C_3
REMARK    3  A    between atoms: C_7  and  C_8
REMARK    4  A    between atoms: C_8  and  N_9
REMARK                            x       y       z     vdW  Elec       q    Type
REMARK                         _______ _______ _______ _____ _____    ______ ____
ROOT
ATOM      1  C   UNL     1      45.010   6.798  11.600  0.00  0.00    +0.000 C 
ENDROOT
BRANCH   1   2
ATOM      2  N   UNL     1      44.629   5.392  11.502  0.00  0.00    +0.000 N 
ATOM      3  C   UNL     1      43.832   4.749  12.418  0.00  0.00    +0.000 A 
ATOM      4  C   UNL     1      43.527   3.501  11.919  0.00  0.00    +0.000 A 
ATOM      5  C   UNL     1      44.164   3.376  10.656  0.00  0.00    +0.000 A 
ATOM      6  C   UNL     1      44.190   2.358   9.681  0.00  0.00    +0.000 A 
ATOM      7  C   UNL     1      44.931   2.543   8.509  0.00  0.00    +0.000 A 
ATOM      8  C   UNL     1      45.649   3.717   8.313  0.00  0.00    +0.000 A 
ATOM      9 CL   UNL     1      46.564   3.921   6.866  0.00  0.00    +0.000 Cl
ATOM     10  C   UNL     1      45.639   4.745   9.261  0.00  0.00    +0.000 A 
ATOM     11  C   UNL     1      44.875   4.559  10.425  0.00  0.00    +0.000 A 
ENDBRANCH   1   2
BRANCH   1  16
ATOM     12  C   UNL     1      47.912   8.414  13.473  0.00  0.00    +0.000 A 
ATOM     13  C   UNL     1      48.650   7.265  13.726  0.00  0.00    +0.000 A 
ATOM     14  N   UNL     1      48.281   6.023  13.337  0.00  0.00    +0.000 NA
ATOM     15  C   UNL     1      47.119   5.922  12.654  0.00  0.00    +0.000 A 
ATOM     16  C   UNL     1      46.295   6.997  12.346  0.00  0.00    +0.000 A 
ATOM     17  C   UNL     1      46.713   8.263  12.769  0.00  0.00    +0.000 A 
BRANCH  12  18
ATOM     18  C   UNL     1      48.396   9.766  13.914  0.00  0.00    +0.000 C 
BRANCH  18  19
ATOM     19  N   UNL     1      48.225   9.957  15.350  0.00  0.00    +0.000 NA
ATOM     20  H   UNL     1      47.943   9.073  15.771  0.00  0.00    +0.000 HD
ATOM     21  H   UNL     1      47.456  10.606  15.510  0.00  0.00    +0.000 HD
ENDBRANCH  18  19
ENDBRANCH  12  18
ENDBRANCH   1  16
TORSDOF 4
ENDMDL
