MODEL 1
REMARK VINA RESULT:    -7.237      0.000      0.000
REMARK INTER + INTRA:          -9.940
REMARK INTER:                  -9.141
REMARK INTRA:                  -0.799
REMARK UNBOUND:                -0.799
REMARK  Name = 
REMARK  5 active torsions:
REMARK  status: ('A' for Active; 'I' for Inactive)
REMARK    1  A    between atoms: N_1  and  C_2
REMARK    2  A    between atoms: C_2  and  C_3
REMARK    3  A    between atoms: C_6  and  C_7
REMARK    4  A    between atoms: C_7  and  N_8
REMARK    5  A    between atoms: C_13  and  C_14
REMARK                            x       y       z     vdW  Elec       q    Type
REMARK                         _______ _______ _______ _____ _____    ______ ____
ROOT
ATOM      1  N   UNL     1      44.377   4.704  10.483  0.00  0.00    +0.000 N 
ATOM      2  C   UNL     1      43.649   3.687  11.052  0.00  0.00    +0.000 A 
ATOM      3  C   UNL     1      44.076   2.503  10.498  0.00  0.00    +0.000 A 
ATOM      4  C   UNL     1      44.996   2.822   9.463  0.00  0.00    +0.000 A 
ATOM      5  C   UNL     1      45.698   2.040   8.524  0.00  0.00    +0.000 A 
ATOM      6  C   UNL     1      46.496   2.679   7.565  0.00  0.00    +0.000 A 
ATOM      7  C   UNL     1      46.655   4.064   7.584  0.00  0.00    +0.000 A 
ATOM      8  C   UNL     1      45.995   4.856   8.536  0.00  0.00    +0.000 A 
ATOM      9  C   UNL     1      45.157   4.210   9.456  0.00  0.00    +0.000 A 
ENDROOT
BRANCH   6  10
ATOM     10  C   UNL     1      47.185   1.910   6.501  0.00  0.00    +0.000 C 
ATOM     11  N   UNL     1      47.914   2.619   5.584  0.00  0.00    +0.000 N 
ATOM     12  O   UNL     1      47.151   0.685   6.463  0.00  0.00    +0.000 OA
ATOM     13  H   UNL     1      48.139   3.597   5.699  0.00  0.00    +0.000 HD
ATOM     14  H   UNL     1      48.467   2.078   4.933  0.00  0.00    +0.000 HD
ENDBRANCH   6  10
BRANCH   1  15
ATOM     15  C   UNL     1      44.319   6.095  10.915  0.00  0.00    +0.000 C 
BRANCH  15  19
ATOM     16  C   UNL     1      47.385   8.182  12.218  0.00  0.00    +0.000 C 
ATOM     17  C   UNL     1      47.435   6.746  11.678  0.00  0.00    +0.000 C 
ATOM     18  C   UNL     1      46.423   5.835  12.367  0.00  0.00    +0.000 C 
ATOM     19  C   UNL     1      44.975   6.354  12.288  0.00  0.00    +0.000 C 
ATOM     20  C   UNL     1      44.868   7.846  12.656  0.00  0.00    +0.000 C 
ATOM     21  C   UNL     1      45.958   8.732  12.051  0.00  0.00    +0.000 C 
BRANCH  16  22
ATOM     22  C   UNL     1      47.884   8.305  13.675  0.00  0.00    +0.000 C 
BRANCH  22  23
ATOM     23  N   UNL     1      47.820   9.681  14.161  0.00  0.00    +0.000 NA
ATOM     24  H   UNL     1      47.257  10.243  13.521  0.00  0.00    +0.000 HD
ATOM     25  H   UNL     1      48.752  10.095  14.163  0.00  0.00    +0.000 HD
ENDBRANCH  22  23
ENDBRANCH  16  22
ENDBRANCH  15  19
ENDBRANCH   1  15
TORSDOF 5
ENDMDL
MODEL 2
REMARK VINA RESULT:    -5.644      4.240      6.093
REMARK INTER + INTRA:          -7.927
REMARK INTER:                  -7.293
REMARK INTRA:                  -0.634
REMARK UNBOUND:                -0.799
REMARK  Name = 
REMARK  5 active torsions:
REMARK  status: ('A' for Active; 'I' for Inactive)
REMARK    1  A    between atoms: N_1  and  C_2
REMARK    2  A    between atoms: C_2  and  C_3
REMARK    3  A    between atoms: C_6  and  C_7
REMARK    4  A    between atoms: C_7  and  N_8
REMARK    5  A    between atoms: C_13  and  C_14
REMARK                            x       y       z     vdW  Elec       q    Type
REMARK                         _______ _______ _______ _____ _____    ______ ____
ROOT
ATOM      1  N   UNL     1      47.744   6.319  13.991  0.00  0.00    +0.000 N 
ATOM      2  C   UNL     1      47.700   7.608  13.517  0.00  0.00    +0.000 A 
ATOM      3  C   UNL     1      46.648   7.698  12.637  0.00  0.00    +0.000 A 
ATOM      4  C   UNL     1      46.120   6.390  12.467  0.00  0.00    +0.000 A 
ATOM      5  C   UNL     1      45.095   5.863  11.655  0.00  0.00    +0.000 A 
ATOM      6  C   UNL     1      44.857   4.482  11.667  0.00  0.00    +0.000 A 
ATOM      7  C   UNL     1      45.571   3.647  12.526  0.00  0.00    +0.000 A 
ATOM      8  C   UNL     1      46.568   4.159  13.371  0.00  0.00    +0.000 A 
ATOM      9  C   UNL     1      46.834   5.535  13.310  0.00  0.00    +0.000 A 
ENDROOT
BRANCH   6  10
ATOM     10  C   UNL     1      43.852   3.866  10.768  0.00  0.00    +0.000 C 
ATOM     11  N   UNL     1      43.738   4.383   9.505  0.00  0.00    +0.000 N 
ATOM     12  O   UNL     1      43.178   2.902  11.114  0.00  0.00    +0.000 OA
ATOM     13  H   UNL     1      44.408   5.029   9.114  0.00  0.00    +0.000 HD
ATOM     14  H   UNL     1      43.130   3.885   8.869  0.00  0.00    +0.000 HD
ENDBRANCH   6  10
BRANCH   1  15
ATOM     15  C   UNL     1      48.631   5.865  15.055  0.00  0.00    +0.000 C 
BRANCH  15  19
ATOM     16  C   UNL     1      49.618   4.488  18.602  0.00  0.00    +0.000 C 
ATOM     17  C   UNL     1      48.927   3.693  17.486  0.00  0.00    +0.000 C 
ATOM     18  C   UNL     1      47.689   4.407  16.949  0.00  0.00    +0.000 C 
ATOM     19  C   UNL     1      47.972   5.836  16.450  0.00  0.00    +0.000 C 
ATOM     20  C   UNL     1      48.812   6.648  17.453  0.00  0.00    +0.000 C 
ATOM     21  C   UNL     1      49.984   5.884  18.072  0.00  0.00    +0.000 C 
BRANCH  16  22
ATOM     22  C   UNL     1      48.786   4.564  19.902  0.00  0.00    +0.000 C 
BRANCH  22  23
ATOM     23  N   UNL     1      48.355   3.244  20.353  0.00  0.00    +0.000 NA
ATOM     24  H   UNL     1      47.502   2.974  19.858  0.00  0.00    +0.000 HD
ATOM     25  H   UNL     1      48.114   3.272  21.343  0.00  0.00    +0.000 HD
ENDBRANCH  22  23
ENDBRANCH  16  22
ENDBRANCH  15  19
ENDBRANCH   1  15
TORSDOF 5
ENDMDL
MODEL 3
REMARK VINA RESULT:    -5.635      5.013      8.571
REMARK INTER + INTRA:          -7.916
REMARK INTER:                  -7.369
REMARK INTRA:                  -0.547
REMARK UNBOUND:                -0.799
REMARK  Name = 
REMARK  5 active torsions:
REMARK  status: ('A' for Active; 'I' for Inactive)
REMARK    1  A    between atoms: N_1  and  C_2
REMARK    2  A    between atoms: C_2  and  C_3
REMARK    3  A    between atoms: C_6  and  C_7
REMARK    4  A    between atoms: C_7  and  N_8
REMARK    5  A    between atoms: C_13  and  C_14
REMARK                            x       y       z     vdW  Elec       q    Type
REMARK                         _______ _______ _______ _____ _____    ______ ____
ROOT
ATOM      1  N   UNL     1      48.240   6.390  14.484  0.00  0.00    +0.000 N 
ATOM      2  C   UNL     1      48.871   7.610  14.545  0.00  0.00    +0.000 A 
ATOM      3  C   UNL     1      49.388   7.754  15.811  0.00  0.00    +0.000 A 
ATOM      4  C   UNL     1      48.942   6.648  16.583  0.00  0.00    +0.000 A 
ATOM      5  C   UNL     1      49.098   6.295  17.939  0.00  0.00    +0.000 A 
ATOM      6  C   UNL     1      48.460   5.144  18.422  0.00  0.00    +0.000 A 
ATOM      7  C   UNL     1      47.743   4.316  17.559  0.00  0.00    +0.000 A 
ATOM      8  C   UNL     1      47.609   4.630  16.198  0.00  0.00    +0.000 A 
ATOM      9  C   UNL     1      48.207   5.813  15.738  0.00  0.00    +0.000 A 
ENDROOT
BRANCH   6  10
ATOM     10  C   UNL     1      48.519   4.775  19.857  0.00  0.00    +0.000 C 
ATOM     11  N   UNL     1      48.538   3.440  20.163  0.00  0.00    +0.000 N 
ATOM     12  O   UNL     1      48.598   5.623  20.740  0.00  0.00    +0.000 OA
ATOM     13  H   UNL     1      48.685   2.720  19.471  0.00  0.00    +0.000 HD
ATOM     14  H   UNL     1      48.689   3.205  21.134  0.00  0.00    +0.000 HD
ENDBRANCH   6  10
BRANCH   1  15
ATOM     15  C   UNL     1      47.693   5.810  13.264  0.00  0.00    +0.000 C 
BRANCH  15  19
ATOM     16  C   UNL     1      44.933   4.396  10.848  0.00  0.00    +0.000 C 
ATOM     17  C   UNL     1      45.777   5.657  10.615  0.00  0.00    +0.000 C 
ATOM     18  C   UNL     1      45.734   6.609  11.807  0.00  0.00    +0.000 C 
ATOM     19  C   UNL     1      46.162   5.953  13.133  0.00  0.00    +0.000 C 
ATOM     20  C   UNL     1      45.478   4.592  13.358  0.00  0.00    +0.000 C 
ATOM     21  C   UNL     1      45.425   3.691  12.123  0.00  0.00    +0.000 C 
BRANCH  16  22
ATOM     22  C   UNL     1      43.414   4.677  10.893  0.00  0.00    +0.000 C 
BRANCH  22  23
ATOM     23  N   UNL     1      42.668   3.559  11.463  0.00  0.00    +0.000 NA
ATOM     24  H   UNL     1      43.145   3.221  12.301  0.00  0.00    +0.000 HD
ATOM     25  H   UNL     1      42.652   2.778  10.808  0.00  0.00    +0.000 HD
ENDBRANCH  22  23
ENDBRANCH  16  22
ENDBRANCH  15  19
ENDBRANCH   1  15
TORSDOF 5
ENDMDL
MODEL 4
REMARK VINA RESULT:    -5.421      3.043      4.801
REMARK INTER + INTRA:          -7.646
REMARK INTER:                  -7.039
REMARK INTRA:                  -0.607
REMARK UNBOUND:                -0.799
REMARK  Name = 
REMARK  5 active torsions:
REMARK  status: ('A' for Active; 'I' for Inactive)
REMARK    1  A    between atoms: N_1  and  C_2
REMARK    2  A    between atoms: C_2  and  C_3
REMARK    3  A    between atoms: C_6  and  C_7
REMARK    4  A    between atoms: C_7  and  N_8
REMARK    5  A    between atoms: C_13  and  C_14
REMARK                            x       y       z     vdW  Elec       q    Type
REMARK                         _______ _______ _______ _____ _____    ______ ____
ROOT
ATOM      1  N   UNL     1      47.134   6.714  13.400  0.00  0.00    +0.000 N 
ATOM      2  C   UNL     1      47.586   6.032  14.504  0.00  0.00    +0.000 A 
ATOM      3  C   UNL     1      47.199   4.719  14.376  0.00  0.00    +0.000 A 
ATOM      4  C   UNL     1      46.369   4.628  13.226  0.00  0.00    +0.000 A 
ATOM      5  C   UNL     1      45.644   3.570  12.643  0.00  0.00    +0.000 A 
ATOM      6  C   UNL     1      44.846   3.827  11.520  0.00  0.00    +0.000 A 
ATOM      7  C   UNL     1      44.825   5.095  10.939  0.00  0.00    +0.000 A 
ATOM      8  C   UNL     1      45.572   6.152  11.483  0.00  0.00    +0.000 A 
ATOM      9  C   UNL     1      46.324   5.895  12.638  0.00  0.00    +0.000 A 
ENDROOT
BRANCH   6  10
ATOM     10  C   UNL     1      43.995   2.770  10.921  0.00  0.00    +0.000 C 
ATOM     11  N   UNL     1      44.441   2.184   9.766  0.00  0.00    +0.000 N 
ATOM     12  O   UNL     1      42.958   2.394  11.456  0.00  0.00    +0.000 OA
ATOM     13  H   UNL     1      45.377   2.313   9.410  0.00  0.00    +0.000 HD
ATOM     14  H   UNL     1      43.909   1.392   9.430  0.00  0.00    +0.000 HD
ENDBRANCH   6  10
BRANCH   1  15
ATOM     15  C   UNL     1      47.469   8.099  13.097  0.00  0.00    +0.000 C 
BRANCH  15  19
ATOM     16  C   UNL     1      50.977   9.672  12.276  0.00  0.00    +0.000 C 
ATOM     17  C   UNL     1      49.640  10.424  12.321  0.00  0.00    +0.000 C 
ATOM     18  C   UNL     1      48.570   9.751  11.465  0.00  0.00    +0.000 C 
ATOM     19  C   UNL     1      48.332   8.273  11.829  0.00  0.00    +0.000 C 
ATOM     20  C   UNL     1      49.648   7.487  11.968  0.00  0.00    +0.000 C 
ATOM     21  C   UNL     1      50.753   8.220  12.730  0.00  0.00    +0.000 C 
BRANCH  16  22
ATOM     22  C   UNL     1      51.673   9.746  10.897  0.00  0.00    +0.000 C 
BRANCH  22  23
ATOM     23  N   UNL     1      52.831   8.860  10.822  0.00  0.00    +0.000 NA
ATOM     24  H   UNL     1      53.508   9.120  11.542  0.00  0.00    +0.000 HD
ATOM     25  H   UNL     1      53.305   8.978   9.927  0.00  0.00    +0.000 HD
ENDBRANCH  22  23
ENDBRANCH  16  22
ENDBRANCH  15  19
ENDBRANCH   1  15
TORSDOF 5
ENDMDL
MODEL 5
REMARK VINA RESULT:    -5.389      3.151      4.825
REMARK INTER + INTRA:          -7.605
REMARK INTER:                  -7.038
REMARK INTRA:                  -0.567
REMARK UNBOUND:                -0.799
REMARK  Name = 
REMARK  5 active torsions:
REMARK  status: ('A' for Active; 'I' for Inactive)
REMARK    1  A    between atoms: N_1  and  C_2
REMARK    2  A    between atoms: C_2  and  C_3
REMARK    3  A    between atoms: C_6  and  C_7
REMARK    4  A    between atoms: C_7  and  N_8
REMARK    5  A    between atoms: C_13  and  C_14
REMARK                            x       y       z     vdW  Elec       q    Type
REMARK                         _______ _______ _______ _____ _____    ______ ____
ROOT
ATOM      1  N   UNL     1      46.496   7.389  12.877  0.00  0.00    +0.000 N 
ATOM      2  C   UNL     1      45.864   8.353  12.128  0.00  0.00    +0.000 A 
ATOM      3  C   UNL     1      44.824   7.751  11.459  0.00  0.00    +0.000 A 
ATOM      4  C   UNL     1      44.909   6.354  11.703  0.00  0.00    +0.000 A 
ATOM      5  C   UNL     1      44.168   5.249  11.239  0.00  0.00    +0.000 A 
ATOM      6  C   UNL     1      44.558   3.958  11.621  0.00  0.00    +0.000 A 
ATOM      7  C   UNL     1      45.618   3.770  12.508  0.00  0.00    +0.000 A 
ATOM      8  C   UNL     1      46.343   4.861  13.011  0.00  0.00    +0.000 A 
ATOM      9  C   UNL     1      45.978   6.144  12.579  0.00  0.00    +0.000 A 
ENDROOT
BRANCH   6  10
ATOM     10  C   UNL     1      43.867   2.757  11.092  0.00  0.00    +0.000 C 
ATOM     11  N   UNL     1      44.370   2.195   9.949  0.00  0.00    +0.000 N 
ATOM     12  O   UNL     1      42.913   2.251  11.673  0.00  0.00    +0.000 OA
ATOM     13  H   UNL     1      45.267   2.450   9.560  0.00  0.00    +0.000 HD
ATOM     14  H   UNL     1      43.960   1.317   9.662  0.00  0.00    +0.000 HD
ENDBRANCH   6  10
BRANCH   1  15
ATOM     15  C   UNL     1      47.557   7.662  13.838  0.00  0.00    +0.000 C 
BRANCH  15  19
ATOM     16  C   UNL     1      50.906   9.234  12.509  0.00  0.00    +0.000 C 
ATOM     17  C   UNL     1      49.702   8.820  11.653  0.00  0.00    +0.000 C 
ATOM     18  C   UNL     1      49.260   7.387  11.933  0.00  0.00    +0.000 C 
ATOM     19  C   UNL     1      48.939   7.121  13.416  0.00  0.00    +0.000 C 
ATOM     20  C   UNL     1      50.033   7.663  14.355  0.00  0.00    +0.000 C 
ATOM     21  C   UNL     1      50.551   9.057  13.995  0.00  0.00    +0.000 C 
BRANCH  16  22
ATOM     22  C   UNL     1      52.208   8.490  12.134  0.00  0.00    +0.000 C 
BRANCH  22  23
ATOM     23  N   UNL     1      52.490   8.570  10.703  0.00  0.00    +0.000 NA
ATOM     24  H   UNL     1      51.849   9.235  10.265  0.00  0.00    +0.000 HD
ATOM     25  H   UNL     1      52.315   7.669  10.260  0.00  0.00    +0.000 HD
ENDBRANCH  22  23
ENDBRANCH  16  22
ENDBRANCH  15  19
ENDBRANCH   1  15
TORSDOF 5
ENDMDL
MODEL 6
REMARK VINA RESULT:    -5.202      4.531      7.997
REMARK INTER + INTRA:          -7.369
REMARK INTER:                  -6.765
REMARK INTRA:                  -0.604
REMARK UNBOUND:                -0.799
REMARK  Name = 
REMARK  5 active torsions:
REMARK  status: ('A' for Active; 'I' for Inactive)
REMARK    1  A    between atoms: N_1  and  C_2
REMARK    2  A    between atoms: C_2  and  C_3
REMARK    3  A    between atoms: C_6  and  C_7
REMARK    4  A    between atoms: C_7  and  N_8
REMARK    5  A    between atoms: C_13  and  C_14
REMARK                            x       y       z     vdW  Elec       q    Type
REMARK                         _______ _______ _______ _____ _____    ______ ____
ROOT
ATOM      1  N   UNL     1      46.972   6.205  14.024  0.00  0.00    +0.000 N 
ATOM      2  C   UNL     1      47.747   7.320  13.813  0.00  0.00    +0.000 A 
ATOM      3  C   UNL     1      48.809   7.266  14.684  0.00  0.00    +0.000 A 
ATOM      4  C   UNL     1      48.602   6.154  15.543  0.00  0.00    +0.000 A 
ATOM      5  C   UNL     1      49.311   5.648  16.651  0.00  0.00    +0.000 A 
ATOM      6  C   UNL     1      48.794   4.546  17.346  0.00  0.00    +0.000 A 
ATOM      7  C   UNL     1      47.634   3.910  16.906  0.00  0.00    +0.000 A 
ATOM      8  C   UNL     1      46.935   4.376  15.782  0.00  0.00    +0.000 A 
ATOM      9  C   UNL     1      47.432   5.512  15.127  0.00  0.00    +0.000 A 
ENDROOT
BRANCH   6  10
ATOM     10  C   UNL     1      49.454   4.029  18.569  0.00  0.00    +0.000 C 
ATOM     11  N   UNL     1      48.673   3.347  19.465  0.00  0.00    +0.000 N 
ATOM     12  O   UNL     1      50.658   4.159  18.759  0.00  0.00    +0.000 OA
ATOM     13  H   UNL     1      47.735   3.040  19.252  0.00  0.00    +0.000 HD
ATOM     14  H   UNL     1      49.155   2.907  20.237  0.00  0.00    +0.000 HD
ENDBRANCH   6  10
BRANCH   1  15
ATOM     15  C   UNL     1      45.834   5.828  13.196  0.00  0.00    +0.000 C 
BRANCH  15  19
ATOM     16  C   UNL     1      43.783   3.540  10.744  0.00  0.00    +0.000 C 
ATOM     17  C   UNL     1      44.213   3.175  12.171  0.00  0.00    +0.000 C 
ATOM     18  C   UNL     1      45.707   3.389  12.396  0.00  0.00    +0.000 C 
ATOM     19  C   UNL     1      46.178   4.821  12.078  0.00  0.00    +0.000 C 
ATOM     20  C   UNL     1      45.642   5.324  10.725  0.00  0.00    +0.000 C 
ATOM     21  C   UNL     1      44.170   5.001  10.461  0.00  0.00    +0.000 C 
BRANCH  16  22
ATOM     22  C   UNL     1      44.342   2.577   9.672  0.00  0.00    +0.000 C 
BRANCH  22  23
ATOM     23  N   UNL     1      44.308   3.166   8.336  0.00  0.00    +0.000 NA
ATOM     24  H   UNL     1      44.336   2.424   7.634  0.00  0.00    +0.000 HD
ATOM     25  H   UNL     1      45.138   3.737   8.183  0.00  0.00    +0.000 HD
ENDBRANCH  22  23
ENDBRANCH  16  22
ENDBRANCH  15  19
ENDBRANCH   1  15
TORSDOF 5
ENDMDL
MODEL 7
REMARK VINA RESULT:    -5.160      3.594      5.804
REMARK INTER + INTRA:          -7.316
REMARK INTER:                  -6.835
REMARK INTRA:                  -0.481
REMARK UNBOUND:                -0.799
REMARK  Name = 
REMARK  5 active torsions:
REMARK  status: ('A' for Active; 'I' for Inactive)
REMARK    1  A    between atoms: N_1  and  C_2
REMARK    2  A    between atoms: C_2  and  C_3
REMARK    3  A    between atoms: C_6  and  C_7
REMARK    4  A    between atoms: C_7  and  N_8
REMARK    5  A    between atoms: C_13  and  C_14
REMARK                            x       y       z     vdW  Elec       q    Type
REMARK                         _______ _______ _______ _____ _____    ______ ____
ROOT
ATOM      1  N   UNL     1      47.873   6.403  13.778  0.00  0.00    +0.000 N 
ATOM      2  C   UNL     1      48.321   7.428  12.980  0.00  0.00    +0.000 A 
ATOM      3  C   UNL     1      47.543   7.451  11.847  0.00  0.00    +0.000 A 
ATOM      4  C   UNL     1      46.683   6.320  11.896  0.00  0.00    +0.000 A 
ATOM      5  C   UNL     1      45.729   5.797  11.001  0.00  0.00    +0.000 A 
ATOM      6  C   UNL     1      45.081   4.596  11.320  0.00  0.00    +0.000 A 
ATOM      7  C   UNL     1      45.320   3.963  12.539  0.00  0.00    +0.000 A 
ATOM      8  C   UNL     1      46.238   4.490  13.460  0.00  0.00    +0.000 A 
ATOM      9  C   UNL     1      46.920   5.664  13.106  0.00  0.00    +0.000 A 
ENDROOT
BRANCH   6  10
ATOM     10  C   UNL     1      44.133   3.957  10.374  0.00  0.00    +0.000 C 
ATOM     11  N   UNL     1      44.076   4.465   9.103  0.00  0.00    +0.000 N 
ATOM     12  O   UNL     1      43.459   2.984  10.692  0.00  0.00    +0.000 OA
ATOM     13  H   UNL     1      44.754   5.120   8.743  0.00  0.00    +0.000 HD
ATOM     14  H   UNL     1      43.510   3.953   8.440  0.00  0.00    +0.000 HD
ENDBRANCH   6  10
BRANCH   1  15
ATOM     15  C   UNL     1      48.349   6.149  15.132  0.00  0.00    +0.000 C 
BRANCH  15  19
ATOM     16  C   UNL     1      49.823   7.098  18.650  0.00  0.00    +0.000 C 
ATOM     17  C   UNL     1      48.485   7.580  18.072  0.00  0.00    +0.000 C 
ATOM     18  C   UNL     1      48.642   8.180  16.678  0.00  0.00    +0.000 C 
ATOM     19  C   UNL     1      49.313   7.227  15.671  0.00  0.00    +0.000 C 
ATOM     20  C   UNL     1      50.581   6.570  16.246  0.00  0.00    +0.000 C 
ATOM     21  C   UNL     1      50.447   6.075  17.687  0.00  0.00    +0.000 C 
BRANCH  16  22
ATOM     22  C   UNL     1      50.798   8.252  18.979  0.00  0.00    +0.000 C 
BRANCH  22  23
ATOM     23  N   UNL     1      52.109   7.758  19.391  0.00  0.00    +0.000 NA
ATOM     24  H   UNL     1      52.066   6.747  19.528  0.00  0.00    +0.000 HD
ATOM     25  H   UNL     1      52.366   8.159  20.293  0.00  0.00    +0.000 HD
ENDBRANCH  22  23
ENDBRANCH  16  22
ENDBRANCH  15  19
ENDBRANCH   1  15
TORSDOF 5
ENDMDL
MODEL 8
REMARK VINA RESULT:    -4.921      4.578      6.764
REMARK INTER + INTRA:          -7.014
REMARK INTER:                  -6.457
REMARK INTRA:                  -0.557
REMARK UNBOUND:                -0.799
REMARK  Name = 
REMARK  5 active torsions:
REMARK  status: ('A' for Active; 'I' for Inactive)
REMARK    1  A    between atoms: N_1  and  C_2
REMARK    2  A    between atoms: C_2  and  C_3
REMARK    3  A    between atoms: C_6  and  C_7
REMARK    4  A    between atoms: C_7  and  N_8
REMARK    5  A    between atoms: C_13  and  C_14
REMARK                            x       y       z     vdW  Elec       q    Type
REMARK                         _______ _______ _______ _____ _____    ______ ____
ROOT
ATOM      1  N   UNL     1      46.570   4.999  13.636  0.00  0.00    +0.000 N 
ATOM      2  C   UNL     1      45.690   4.115  13.059  0.00  0.00    +0.000 A 
ATOM      3  C   UNL     1      44.927   4.813  12.153  0.00  0.00    +0.000 A 
ATOM      4  C   UNL     1      45.260   6.188  12.281  0.00  0.00    +0.000 A 
ATOM      5  C   UNL     1      44.768   7.360  11.672  0.00  0.00    +0.000 A 
ATOM      6  C   UNL     1      45.273   8.603  12.076  0.00  0.00    +0.000 A 
ATOM      7  C   UNL     1      46.301   8.680  13.016  0.00  0.00    +0.000 A 
ATOM      8  C   UNL     1      46.830   7.522  13.606  0.00  0.00    +0.000 A 
ATOM      9  C   UNL     1      46.280   6.287  13.232  0.00  0.00    +0.000 A 
ENDROOT
BRANCH   6  10
ATOM     10  C   UNL     1      44.728   9.869  11.530  0.00  0.00    +0.000 C 
ATOM     11  N   UNL     1      45.120  11.035  12.135  0.00  0.00    +0.000 N 
ATOM     12  O   UNL     1      43.995   9.888  10.548  0.00  0.00    +0.000 OA
ATOM     13  H   UNL     1      45.875  11.079  12.803  0.00  0.00    +0.000 HD
ATOM     14  H   UNL     1      44.831  11.893  11.685  0.00  0.00    +0.000 HD
ENDBRANCH   6  10
BRANCH   1  15
ATOM     15  C   UNL     1      47.645   4.613  14.542  0.00  0.00    +0.000 C 
BRANCH  15  19
ATOM     16  C   UNL     1      49.400   3.822  17.969  0.00  0.00    +0.000 C 
ATOM     17  C   UNL     1      48.412   2.910  17.230  0.00  0.00    +0.000 C 
ATOM     18  C   UNL     1      47.122   3.637  16.861  0.00  0.00    +0.000 C 
ATOM     19  C   UNL     1      47.351   4.911  16.027  0.00  0.00    +0.000 C 
ATOM     20  C   UNL     1      48.457   5.804  16.620  0.00  0.00    +0.000 C 
ATOM     21  C   UNL     1      49.701   5.050  17.094  0.00  0.00    +0.000 C 
BRANCH  16  22
ATOM     22  C   UNL     1      48.921   4.224  19.383  0.00  0.00    +0.000 C 
BRANCH  22  23
ATOM     23  N   UNL     1      50.039   4.505  20.279  0.00  0.00    +0.000 NA
ATOM     24  H   UNL     1      50.834   4.849  19.737  0.00  0.00    +0.000 HD
ATOM     25  H   UNL     1      50.351   3.646  20.731  0.00  0.00    +0.000 HD
ENDBRANCH  22  23
ENDBRANCH  16  22
ENDBRANCH  15  19
ENDBRANCH   1  15
TORSDOF 5
ENDMDL
MODEL 9
REMARK VINA RESULT:    -4.869      3.099      5.104
REMARK INTER + INTRA:          -6.948
REMARK INTER:                  -6.473
REMARK INTRA:                  -0.476
REMARK UNBOUND:                -0.799
REMARK  Name = 
REMARK  5 active torsions:
REMARK  status: ('A' for Active; 'I' for Inactive)
REMARK    1  A    between atoms: N_1  and  C_2
REMARK    2  A    between atoms: C_2  and  C_3
REMARK    3  A    between atoms: C_6  and  C_7
REMARK    4  A    between atoms: C_7  and  N_8
REMARK    5  A    between atoms: C_13  and  C_14
REMARK                            x       y       z     vdW  Elec       q    Type
REMARK                         _______ _______ _______ _____ _____    ______ ____
ROOT
ATOM      1  N   UNL     1      47.733   6.039  14.091  0.00  0.00    +0.000 N 
ATOM      2  C   UNL     1      47.631   5.128  15.115  0.00  0.00    +0.000 A 
ATOM      3  C   UNL     1      46.838   4.093  14.681  0.00  0.00    +0.000 A 
ATOM      4  C   UNL     1      46.331   4.449  13.403  0.00  0.00    +0.000 A 
ATOM      5  C   UNL     1      45.433   3.825  12.514  0.00  0.00    +0.000 A 
ATOM      6  C   UNL     1      45.074   4.485  11.330  0.00  0.00    +0.000 A 
ATOM      7  C   UNL     1      45.652   5.709  10.998  0.00  0.00    +0.000 A 
ATOM      8  C   UNL     1      46.578   6.328  11.852  0.00  0.00    +0.000 A 
ATOM      9  C   UNL     1      46.888   5.684  13.058  0.00  0.00    +0.000 A 
ENDROOT
BRANCH   6  10
ATOM     10  C   UNL     1      44.067   3.911  10.405  0.00  0.00    +0.000 C 
ATOM     11  N   UNL     1      43.856   4.568   9.221  0.00  0.00    +0.000 N 
ATOM     12  O   UNL     1      43.477   2.867  10.657  0.00  0.00    +0.000 OA
ATOM     13  H   UNL     1      44.462   5.303   8.885  0.00  0.00    +0.000 HD
ATOM     14  H   UNL     1      43.252   4.108   8.554  0.00  0.00    +0.000 HD
ENDBRANCH   6  10
BRANCH   1  15
ATOM     15  C   UNL     1      48.609   7.203  14.113  0.00  0.00    +0.000 C 
BRANCH  15  19
ATOM     16  C   UNL     1      50.703  10.107  15.737  0.00  0.00    +0.000 C 
ATOM     17  C   UNL     1      51.253   8.992  14.838  0.00  0.00    +0.000 C 
ATOM     18  C   UNL     1      50.841   7.604  15.321  0.00  0.00    +0.000 C 
ATOM     19  C   UNL     1      49.317   7.431  15.465  0.00  0.00    +0.000 C 
ATOM     20  C   UNL     1      48.665   8.605  16.217  0.00  0.00    +0.000 C 
ATOM     21  C   UNL     1      49.171   9.988  15.804  0.00  0.00    +0.000 C 
BRANCH  16  22
ATOM     22  C   UNL     1      51.342  10.128  17.144  0.00  0.00    +0.000 C 
BRANCH  22  23
ATOM     23  N   UNL     1      50.839  11.233  17.956  0.00  0.00    +0.000 NA
ATOM     24  H   UNL     1      51.587  11.912  18.110  0.00  0.00    +0.000 HD
ATOM     25  H   UNL     1      50.566  10.894  18.878  0.00  0.00    +0.000 HD
ENDBRANCH  22  23
ENDBRANCH  16  22
ENDBRANCH  15  19
ENDBRANCH   1  15
TORSDOF 5
ENDMDL
