MODEL 1
REMARK VINA RESULT:    -8.138      0.000      0.000
REMARK INTER + INTRA:         -11.733
REMARK INTER:                 -10.992
REMARK INTRA:                  -0.741
REMARK UNBOUND:                -0.741
REMARK  Name = 
REMARK  7 active torsions:
REMARK  status: ('A' for Active; 'I' for Inactive)
REMARK    1  A    between atoms: C_1  and  C_2
REMARK    2  A    between atoms: C_2  and  C_3
REMARK    3  A    between atoms: C_8  and  C_9
REMARK    4  A    between atoms: N_11  and  C_12
REMARK    5  A    between atoms: C_12  and  C_13
REMARK    6  A    between atoms: C_16  and  C_17
REMARK    7  A    between atoms: C_17  and  C_18
REMARK                            x       y       z     vdW  Elec       q    Type
REMARK                         _______ _______ _______ _____ _____    ______ ____
ROOT
ATOM      1  C   UNL     1      47.249   7.967  13.177  0.00  0.00    +0.000 C 
ATOM      2  O   UNL     1      47.611   8.640  12.221  0.00  0.00    +0.000 OA
ATOM      3  N   UNL     1      45.964   7.480  13.281  0.00  0.00    +0.000 N 
ATOM      4  H   UNL     1      45.754   6.792  13.996  0.00  0.00    +0.000 HD
ENDROOT
BRANCH   1  10
ATOM      5  C   UNL     1      48.818   4.600  17.052  0.00  0.00    +0.000 A 
ATOM      6  N   UNL     1      49.506   5.696  17.121  0.00  0.00    +0.000 NA
ATOM      7  C   UNL     1      49.216   6.623  16.152  0.00  0.00    +0.000 A 
ATOM      8  S   UNL     1      50.018   8.122  16.073  0.00  0.00    +0.000 S 
ATOM      9  C   UNL     1      49.099   8.613  14.717  0.00  0.00    +0.000 A 
ATOM     10  C   UNL     1      48.168   7.666  14.294  0.00  0.00    +0.000 A 
ATOM     11  C   UNL     1      48.308   6.484  15.124  0.00  0.00    +0.000 A 
ATOM     12  C   UNL     1      47.633   5.209  15.056  0.00  0.00    +0.000 A 
ATOM     13  O   UNL     1      46.914   4.871  14.126  0.00  0.00    +0.000 OA
ATOM     14  N   UNL     1      47.890   4.350  16.071  0.00  0.00    +0.000 N 
ATOM     15  H   UNL     1      47.419   3.455  16.009  0.00  0.00    +0.000 HD
BRANCH   5  17
ATOM     16  C   UNL     1      49.788   2.326  17.412  0.00  0.00    +0.000 C 
ATOM     17  C   UNL     1      49.003   3.469  18.032  0.00  0.00    +0.000 C 
ENDBRANCH   5  17
ENDBRANCH   1  10
BRANCH   3  18
ATOM     18  C   UNL     1      44.919   7.690  12.307  0.00  0.00    +0.000 C 
BRANCH  18  19
ATOM     19  C   UNL     1      44.747   6.515  11.361  0.00  0.00    +0.000 A 
ATOM     20  C   UNL     1      45.780   6.166  10.483  0.00  0.00    +0.000 A 
ATOM     21  C   UNL     1      45.673   5.043   9.649  0.00  0.00    +0.000 A 
ATOM     22  C   UNL     1      44.558   4.194   9.727  0.00  0.00    +0.000 A 
ATOM     23  C   UNL     1      43.525   4.539  10.601  0.00  0.00    +0.000 A 
ATOM     24  C   UNL     1      43.594   5.710  11.367  0.00  0.00    +0.000 A 
BRANCH  22  25
ATOM     25  C   UNL     1      44.423   2.943   8.885  0.00  0.00    +0.000 C 
BRANCH  25  26
ATOM     26  C   UNL     1      45.633   2.560   8.061  0.00  0.00    +0.000 A 
ATOM     27  C   UNL     1      46.022   3.358   6.989  0.00  0.00    +0.000 A 
ATOM     28  C   UNL     1      46.991   2.886   6.111  0.00  0.00    +0.000 A 
ATOM     29  C   UNL     1      47.571   1.645   6.341  0.00  0.00    +0.000 A 
ATOM     30  C   UNL     1      47.166   0.931   7.455  0.00  0.00    +0.000 A 
ATOM     31  N   UNL     1      46.209   1.354   8.312  0.00  0.00    +0.000 NA
ENDBRANCH  25  26
ENDBRANCH  22  25
ENDBRANCH  18  19
ENDBRANCH   3  18
TORSDOF 6
ENDMDL
MODEL 2
REMARK VINA RESULT:    -7.798      2.041      3.819
REMARK INTER + INTRA:         -11.274
REMARK INTER:                 -10.332
REMARK INTRA:                  -0.942
REMARK UNBOUND:                -0.741
REMARK  Name = 
REMARK  7 active torsions:
REMARK  status: ('A' for Active; 'I' for Inactive)
REMARK    1  A    between atoms: C_1  and  C_2
REMARK    2  A    between atoms: C_2  and  C_3
REMARK    3  A    between atoms: C_8  and  C_9
REMARK    4  A    between atoms: N_11  and  C_12
REMARK    5  A    between atoms: C_12  and  C_13
REMARK    6  A    between atoms: C_16  and  C_17
REMARK    7  A    between atoms: C_17  and  C_18
REMARK                            x       y       z     vdW  Elec       q    Type
REMARK                         _______ _______ _______ _____ _____    ______ ____
ROOT
ATOM      1  C   UNL     1      47.162   5.078  14.177  0.00  0.00    +0.000 C 
ATOM      2  O   UNL     1      47.422   3.882  14.132  0.00  0.00    +0.000 OA
ATOM      3  N   UNL     1      45.894   5.557  13.927  0.00  0.00    +0.000 N 
ATOM      4  H   UNL     1      45.684   6.526  14.139  0.00  0.00    +0.000 HD
ENDROOT
BRANCH   1  10
ATOM      5  C   UNL     1      50.403   8.981  12.425  0.00  0.00    +0.000 A 
ATOM      6  N   UNL     1      50.654   8.732  13.672  0.00  0.00    +0.000 NA
ATOM      7  C   UNL     1      49.858   7.771  14.241  0.00  0.00    +0.000 A 
ATOM      8  S   UNL     1      50.030   7.310  15.870  0.00  0.00    +0.000 S 
ATOM      9  C   UNL     1      48.781   6.149  15.739  0.00  0.00    +0.000 A 
ATOM     10  C   UNL     1      48.207   6.078  14.471  0.00  0.00    +0.000 A 
ATOM     11  C   UNL     1      48.825   7.090  13.632  0.00  0.00    +0.000 A 
ATOM     12  C   UNL     1      48.545   7.471  12.268  0.00  0.00    +0.000 A 
ATOM     13  O   UNL     1      47.574   7.073  11.638  0.00  0.00    +0.000 OA
ATOM     14  N   UNL     1      49.398   8.367  11.718  0.00  0.00    +0.000 N 
ATOM     15  H   UNL     1      49.188   8.634  10.763  0.00  0.00    +0.000 HD
BRANCH   5  17
ATOM     16  C   UNL     1      50.300  10.672  10.589  0.00  0.00    +0.000 C 
ATOM     17  C   UNL     1      51.177  10.008  11.636  0.00  0.00    +0.000 C 
ENDBRANCH   5  17
ENDBRANCH   1  10
BRANCH   3  18
ATOM     18  C   UNL     1      44.751   4.740  13.598  0.00  0.00    +0.000 C 
BRANCH  18  19
ATOM     19  C   UNL     1      44.636   4.453  12.112  0.00  0.00    +0.000 A 
ATOM     20  C   UNL     1      45.128   5.376  11.181  0.00  0.00    +0.000 A 
ATOM     21  C   UNL     1      45.098   5.103   9.806  0.00  0.00    +0.000 A 
ATOM     22  C   UNL     1      44.642   3.864   9.328  0.00  0.00    +0.000 A 
ATOM     23  C   UNL     1      44.149   2.941  10.253  0.00  0.00    +0.000 A 
ATOM     24  C   UNL     1      44.098   3.252  11.619  0.00  0.00    +0.000 A 
BRANCH  22  25
ATOM     25  C   UNL     1      44.639   3.505   7.858  0.00  0.00    +0.000 C 
BRANCH  25  26
ATOM     26  C   UNL     1      45.925   2.924   7.312  0.00  0.00    +0.000 A 
ATOM     27  C   UNL     1      46.478   3.440   6.143  0.00  0.00    +0.000 A 
ATOM     28  C   UNL     1      47.528   2.762   5.534  0.00  0.00    +0.000 A 
ATOM     29  C   UNL     1      48.022   1.604   6.121  0.00  0.00    +0.000 A 
ATOM     30  C   UNL     1      47.451   1.180   7.309  0.00  0.00    +0.000 A 
ATOM     31  N   UNL     1      46.414   1.804   7.910  0.00  0.00    +0.000 NA
ENDBRANCH  25  26
ENDBRANCH  22  25
ENDBRANCH  18  19
ENDBRANCH   3  18
TORSDOF 6
ENDMDL
MODEL 3
REMARK VINA RESULT:    -7.465      2.706      3.543
REMARK INTER + INTRA:         -10.824
REMARK INTER:                 -10.137
REMARK INTRA:                  -0.687
REMARK UNBOUND:                -0.741
REMARK  Name = 
REMARK  7 active torsions:
REMARK  status: ('A' for Active; 'I' for Inactive)
REMARK    1  A    between atoms: C_1  and  C_2
REMARK    2  A    between atoms: C_2  and  C_3
REMARK    3  A    between atoms: C_8  and  C_9
REMARK    4  A    between atoms: N_11  and  C_12
REMARK    5  A    between atoms: C_12  and  C_13
REMARK    6  A    between atoms: C_16  and  C_17
REMARK    7  A    between atoms: C_17  and  C_18
REMARK                            x       y       z     vdW  Elec       q    Type
REMARK                         _______ _______ _______ _____ _____    ______ ____
ROOT
ATOM      1  C   UNL     1      48.634   6.666  15.963  0.00  0.00    +0.000 C 
ATOM      2  O   UNL     1      48.742   7.860  16.208  0.00  0.00    +0.000 OA
ATOM      3  N   UNL     1      47.989   6.210  14.834  0.00  0.00    +0.000 N 
ATOM      4  H   UNL     1      48.068   5.231  14.583  0.00  0.00    +0.000 HD
ENDROOT
BRANCH   1  10
ATOM      5  C   UNL     1      52.872   4.092  18.019  0.00  0.00    +0.000 A 
ATOM      6  N   UNL     1      51.778   3.575  18.484  0.00  0.00    +0.000 NA
ATOM      7  C   UNL     1      50.624   4.179  18.054  0.00  0.00    +0.000 A 
ATOM      8  S   UNL     1      49.089   3.646  18.560  0.00  0.00    +0.000 S 
ATOM      9  C   UNL     1      48.296   4.825  17.608  0.00  0.00    +0.000 A 
ATOM     10  C   UNL     1      49.164   5.643  16.887  0.00  0.00    +0.000 A 
ATOM     11  C   UNL     1      50.527   5.273  17.221  0.00  0.00    +0.000 A 
ATOM     12  C   UNL     1      51.782   5.851  16.803  0.00  0.00    +0.000 A 
ATOM     13  O   UNL     1      51.873   6.906  16.190  0.00  0.00    +0.000 OA
ATOM     14  N   UNL     1      52.897   5.184  17.186  0.00  0.00    +0.000 N 
ATOM     15  H   UNL     1      53.772   5.603  16.894  0.00  0.00    +0.000 HD
BRANCH   5  17
ATOM     16  C   UNL     1      54.660   2.445  17.444  0.00  0.00    +0.000 C 
ATOM     17  C   UNL     1      54.235   3.560  18.383  0.00  0.00    +0.000 C 
ENDBRANCH   5  17
ENDBRANCH   1  10
BRANCH   3  18
ATOM     18  C   UNL     1      47.384   7.052  13.829  0.00  0.00    +0.000 C 
BRANCH  18  19
ATOM     19  C   UNL     1      46.676   6.263  12.743  0.00  0.00    +0.000 A 
ATOM     20  C   UNL     1      45.928   5.127  13.077  0.00  0.00    +0.000 A 
ATOM     21  C   UNL     1      45.208   4.422  12.102  0.00  0.00    +0.000 A 
ATOM     22  C   UNL     1      45.156   4.879  10.776  0.00  0.00    +0.000 A 
ATOM     23  C   UNL     1      45.902   6.011  10.438  0.00  0.00    +0.000 A 
ATOM     24  C   UNL     1      46.692   6.661  11.395  0.00  0.00    +0.000 A 
BRANCH  22  25
ATOM     25  C   UNL     1      44.351   4.181   9.701  0.00  0.00    +0.000 C 
BRANCH  25  26
ATOM     26  C   UNL     1      45.145   3.403   8.673  0.00  0.00    +0.000 A 
ATOM     27  C   UNL     1      45.395   2.048   8.870  0.00  0.00    +0.000 A 
ATOM     28  C   UNL     1      46.303   1.400   8.040  0.00  0.00    +0.000 A 
ATOM     29  C   UNL     1      46.915   2.110   7.015  0.00  0.00    +0.000 A 
ATOM     30  C   UNL     1      46.578   3.443   6.853  0.00  0.00    +0.000 A 
ATOM     31  N   UNL     1      45.719   4.105   7.659  0.00  0.00    +0.000 NA
ENDBRANCH  25  26
ENDBRANCH  22  25
ENDBRANCH  18  19
ENDBRANCH   3  18
TORSDOF 6
ENDMDL
MODEL 4
REMARK VINA RESULT:    -7.147      1.932      2.738
REMARK INTER + INTRA:         -10.394
REMARK INTER:                  -9.618
REMARK INTRA:                  -0.776
REMARK UNBOUND:                -0.741
REMARK  Name = 
REMARK  7 active torsions:
REMARK  status: ('A' for Active; 'I' for Inactive)
REMARK    1  A    between atoms: C_1  and  C_2
REMARK    2  A    between atoms: C_2  and  C_3
REMARK    3  A    between atoms: C_8  and  C_9
REMARK    4  A    between atoms: N_11  and  C_12
REMARK    5  A    between atoms: C_12  and  C_13
REMARK    6  A    between atoms: C_16  and  C_17
REMARK    7  A    between atoms: C_17  and  C_18
REMARK                            x       y       z     vdW  Elec       q    Type
REMARK                         _______ _______ _______ _____ _____    ______ ____
ROOT
ATOM      1  C   UNL     1      47.026   4.825  14.363  0.00  0.00    +0.000 C 
ATOM      2  O   UNL     1      47.225   3.618  14.397  0.00  0.00    +0.000 OA
ATOM      3  N   UNL     1      45.822   5.354  13.951  0.00  0.00    +0.000 N 
ATOM      4  H   UNL     1      45.641   6.341  14.097  0.00  0.00    +0.000 HD
ENDROOT
BRANCH   1  10
ATOM      5  C   UNL     1      50.004   7.126  18.191  0.00  0.00    +0.000 A 
ATOM      6  N   UNL     1      50.266   7.673  17.046  0.00  0.00    +0.000 NA
ATOM      7  C   UNL     1      49.586   7.138  15.981  0.00  0.00    +0.000 A 
ATOM      8  S   UNL     1      49.801   7.719  14.395  0.00  0.00    +0.000 S 
ATOM      9  C   UNL     1      48.656   6.614  13.768  0.00  0.00    +0.000 A 
ATOM     10  C   UNL     1      48.084   5.787  14.733  0.00  0.00    +0.000 A 
ATOM     11  C   UNL     1      48.701   6.082  16.013  0.00  0.00    +0.000 A 
ATOM     12  C   UNL     1      48.514   5.466  17.306  0.00  0.00    +0.000 A 
ATOM     13  O   UNL     1      47.882   4.432  17.480  0.00  0.00    +0.000 OA
ATOM     14  N   UNL     1      49.142   6.067  18.344  0.00  0.00    +0.000 N 
ATOM     15  H   UNL     1      49.011   5.622  19.245  0.00  0.00    +0.000 HD
BRANCH   5  17
ATOM     16  C   UNL     1      52.109   7.963  19.243  0.00  0.00    +0.000 C 
ATOM     17  C   UNL     1      50.657   7.582  19.471  0.00  0.00    +0.000 C 
ENDBRANCH   5  17
ENDBRANCH   1  10
BRANCH   3  18
ATOM     18  C   UNL     1      44.680   4.578  13.526  0.00  0.00    +0.000 C 
BRANCH  18  19
ATOM     19  C   UNL     1      44.601   4.418  12.019  0.00  0.00    +0.000 A 
ATOM     20  C   UNL     1      45.234   5.345  11.182  0.00  0.00    +0.000 A 
ATOM     21  C   UNL     1      45.235   5.181   9.789  0.00  0.00    +0.000 A 
ATOM     22  C   UNL     1      44.665   4.042   9.199  0.00  0.00    +0.000 A 
ATOM     23  C   UNL     1      44.031   3.115  10.030  0.00  0.00    +0.000 A 
ATOM     24  C   UNL     1      43.954   3.327  11.414  0.00  0.00    +0.000 A 
BRANCH  22  25
ATOM     25  C   UNL     1      44.687   3.796   7.706  0.00  0.00    +0.000 C 
BRANCH  25  26
ATOM     26  C   UNL     1      45.822   2.937   7.189  0.00  0.00    +0.000 A 
ATOM     27  C   UNL     1      46.179   1.777   7.870  0.00  0.00    +0.000 A 
ATOM     28  C   UNL     1      47.352   1.119   7.518  0.00  0.00    +0.000 A 
ATOM     29  C   UNL     1      48.123   1.615   6.476  0.00  0.00    +0.000 A 
ATOM     30  C   UNL     1      47.677   2.747   5.815  0.00  0.00    +0.000 A 
ATOM     31  N   UNL     1      46.555   3.421   6.151  0.00  0.00    +0.000 NA
ENDBRANCH  25  26
ENDBRANCH  22  25
ENDBRANCH  18  19
ENDBRANCH   3  18
TORSDOF 6
ENDMDL
MODEL 5
REMARK VINA RESULT:    -6.830      4.029      7.873
REMARK INTER + INTRA:          -9.967
REMARK INTER:                  -8.893
REMARK INTRA:                  -1.074
REMARK UNBOUND:                -0.741
REMARK  Name = 
REMARK  7 active torsions:
REMARK  status: ('A' for Active; 'I' for Inactive)
REMARK    1  A    between atoms: C_1  and  C_2
REMARK    2  A    between atoms: C_2  and  C_3
REMARK    3  A    between atoms: C_8  and  C_9
REMARK    4  A    between atoms: N_11  and  C_12
REMARK    5  A    between atoms: C_12  and  C_13
REMARK    6  A    between atoms: C_16  and  C_17
REMARK    7  A    between atoms: C_17  and  C_18
REMARK                            x       y       z     vdW  Elec       q    Type
REMARK                         _______ _______ _______ _____ _____    ______ ____
ROOT
ATOM      1  C   UNL     1      43.968   6.436  11.453  0.00  0.00    +0.000 C 
ATOM      2  O   UNL     1      42.935   7.072  11.289  0.00  0.00    +0.000 OA
ATOM      3  N   UNL     1      45.138   7.040  11.859  0.00  0.00    +0.000 N 
ATOM      4  H   UNL     1      45.919   6.459  12.145  0.00  0.00    +0.000 HD
ENDROOT
BRANCH   1  10
ATOM      5  C   UNL     1      45.694   2.388   8.379  0.00  0.00    +0.000 A 
ATOM      6  N   UNL     1      44.919   1.929   9.312  0.00  0.00    +0.000 NA
ATOM      7  C   UNL     1      44.444   2.874  10.185  0.00  0.00    +0.000 A 
ATOM      8  S   UNL     1      43.418   2.465  11.480  0.00  0.00    +0.000 S 
ATOM      9  C   UNL     1      43.299   4.095  11.983  0.00  0.00    +0.000 A 
ATOM     10  C   UNL     1      44.023   4.984  11.191  0.00  0.00    +0.000 A 
ATOM     11  C   UNL     1      44.733   4.222  10.180  0.00  0.00    +0.000 A 
ATOM     12  C   UNL     1      45.664   4.655   9.165  0.00  0.00    +0.000 A 
ATOM     13  O   UNL     1      46.139   5.783   9.116  0.00  0.00    +0.000 OA
ATOM     14  N   UNL     1      46.053   3.710   8.277  0.00  0.00    +0.000 N 
ATOM     15  H   UNL     1      46.713   4.022   7.574  0.00  0.00    +0.000 HD
BRANCH   5  17
ATOM     16  C   UNL     1      47.701   1.973   6.952  0.00  0.00    +0.000 C 
ATOM     17  C   UNL     1      46.310   1.496   7.331  0.00  0.00    +0.000 C 
ENDBRANCH   5  17
ENDBRANCH   1  10
BRANCH   3  18
ATOM     18  C   UNL     1      45.288   8.449  12.138  0.00  0.00    +0.000 C 
BRANCH  18  19
ATOM     19  C   UNL     1      46.723   8.928  12.009  0.00  0.00    +0.000 A 
ATOM     20  C   UNL     1      47.776   8.007  12.064  0.00  0.00    +0.000 A 
ATOM     21  C   UNL     1      49.105   8.415  11.877  0.00  0.00    +0.000 A 
ATOM     22  C   UNL     1      49.410   9.747  11.555  0.00  0.00    +0.000 A 
ATOM     23  C   UNL     1      48.362  10.669  11.501  0.00  0.00    +0.000 A 
ATOM     24  C   UNL     1      47.045  10.276  11.777  0.00  0.00    +0.000 A 
BRANCH  22  25
ATOM     25  C   UNL     1      50.822  10.222  11.294  0.00  0.00    +0.000 C 
BRANCH  25  26
ATOM     26  C   UNL     1      51.894   9.154  11.286  0.00  0.00    +0.000 A 
ATOM     27  C   UNL     1      52.680   8.952  12.417  0.00  0.00    +0.000 A 
ATOM     28  C   UNL     1      53.797   8.129  12.327  0.00  0.00    +0.000 A 
ATOM     29  C   UNL     1      54.086   7.503  11.122  0.00  0.00    +0.000 A 
ATOM     30  C   UNL     1      53.230   7.715  10.055  0.00  0.00    +0.000 A 
ATOM     31  N   UNL     1      52.151   8.529  10.106  0.00  0.00    +0.000 NA
ENDBRANCH  25  26
ENDBRANCH  22  25
ENDBRANCH  18  19
ENDBRANCH   3  18
TORSDOF 6
ENDMDL
MODEL 6
REMARK VINA RESULT:    -6.678      3.950      8.808
REMARK INTER + INTRA:          -9.761
REMARK INTER:                  -9.000
REMARK INTRA:                  -0.761
REMARK UNBOUND:                -0.741
REMARK  Name = 
REMARK  7 active torsions:
REMARK  status: ('A' for Active; 'I' for Inactive)
REMARK    1  A    between atoms: C_1  and  C_2
REMARK    2  A    between atoms: C_2  and  C_3
REMARK    3  A    between atoms: C_8  and  C_9
REMARK    4  A    between atoms: N_11  and  C_12
REMARK    5  A    between atoms: C_12  and  C_13
REMARK    6  A    between atoms: C_16  and  C_17
REMARK    7  A    between atoms: C_17  and  C_18
REMARK                            x       y       z     vdW  Elec       q    Type
REMARK                         _______ _______ _______ _____ _____    ______ ____
ROOT
ATOM      1  C   UNL     1      47.056   3.981  14.652  0.00  0.00    +0.000 C 
ATOM      2  O   UNL     1      47.397   2.876  14.253  0.00  0.00    +0.000 OA
ATOM      3  N   UNL     1      47.039   4.299  15.993  0.00  0.00    +0.000 N 
ATOM      4  H   UNL     1      46.916   5.267  16.268  0.00  0.00    +0.000 HD
ENDROOT
BRANCH   1  10
ATOM      5  C   UNL     1      47.642   8.949  12.705  0.00  0.00    +0.000 A 
ATOM      6  N   UNL     1      46.609   8.386  12.162  0.00  0.00    +0.000 NA
ATOM      7  C   UNL     1      46.379   7.093  12.559  0.00  0.00    +0.000 A 
ATOM      8  S   UNL     1      45.074   6.185  11.952  0.00  0.00    +0.000 S 
ATOM      9  C   UNL     1      45.487   4.832  12.913  0.00  0.00    +0.000 A 
ATOM     10  C   UNL     1      46.611   5.031  13.713  0.00  0.00    +0.000 A 
ATOM     11  C   UNL     1      47.145   6.351  13.432  0.00  0.00    +0.000 A 
ATOM     12  C   UNL     1      48.326   7.008  13.940  0.00  0.00    +0.000 A 
ATOM     13  O   UNL     1      49.186   6.443  14.602  0.00  0.00    +0.000 OA
ATOM     14  N   UNL     1      48.478   8.307  13.585  0.00  0.00    +0.000 N 
ATOM     15  H   UNL     1      49.314   8.756  13.940  0.00  0.00    +0.000 HD
BRANCH   5  17
ATOM     16  C   UNL     1      49.080  10.407  11.274  0.00  0.00    +0.000 C 
ATOM     17  C   UNL     1      48.049  10.366  12.388  0.00  0.00    +0.000 C 
ENDBRANCH   5  17
ENDBRANCH   1  10
BRANCH   3  18
ATOM     18  C   UNL     1      47.412   3.401  17.060  0.00  0.00    +0.000 C 
BRANCH  18  19
ATOM     19  C   UNL     1      48.914   3.320  17.267  0.00  0.00    +0.000 A 
ATOM     20  C   UNL     1      49.601   4.398  17.840  0.00  0.00    +0.000 A 
ATOM     21  C   UNL     1      50.976   4.321  18.106  0.00  0.00    +0.000 A 
ATOM     22  C   UNL     1      51.687   3.133  17.875  0.00  0.00    +0.000 A 
ATOM     23  C   UNL     1      51.006   2.056  17.302  0.00  0.00    +0.000 A 
ATOM     24  C   UNL     1      49.653   2.167  16.955  0.00  0.00    +0.000 A 
BRANCH  22  25
ATOM     25  C   UNL     1      53.159   2.986  18.194  0.00  0.00    +0.000 C 
BRANCH  25  26
ATOM     26  C   UNL     1      53.855   1.784  17.593  0.00  0.00    +0.000 A 
ATOM     27  C   UNL     1      53.603   0.512  18.099  0.00  0.00    +0.000 A 
ATOM     28  C   UNL     1      54.404  -0.549  17.693  0.00  0.00    +0.000 A 
ATOM     29  C   UNL     1      55.415  -0.323  16.769  0.00  0.00    +0.000 A 
ATOM     30  C   UNL     1      55.573   0.960  16.275  0.00  0.00    +0.000 A 
ATOM     31  N   UNL     1      54.827   2.016  16.670  0.00  0.00    +0.000 NA
ENDBRANCH  25  26
ENDBRANCH  22  25
ENDBRANCH  18  19
ENDBRANCH   3  18
TORSDOF 6
ENDMDL
MODEL 7
REMARK VINA RESULT:    -6.671      4.063      9.179
REMARK INTER + INTRA:          -9.752
REMARK INTER:                  -8.791
REMARK INTRA:                  -0.961
REMARK UNBOUND:                -0.741
REMARK  Name = 
REMARK  7 active torsions:
REMARK  status: ('A' for Active; 'I' for Inactive)
REMARK    1  A    between atoms: C_1  and  C_2
REMARK    2  A    between atoms: C_2  and  C_3
REMARK    3  A    between atoms: C_8  and  C_9
REMARK    4  A    between atoms: N_11  and  C_12
REMARK    5  A    between atoms: C_12  and  C_13
REMARK    6  A    between atoms: C_16  and  C_17
REMARK    7  A    between atoms: C_17  and  C_18
REMARK                            x       y       z     vdW  Elec       q    Type
REMARK                         _______ _______ _______ _____ _____    ______ ____
ROOT
ATOM      1  C   UNL     1      46.960   3.967  14.733  0.00  0.00    +0.000 C 
ATOM      2  O   UNL     1      47.483   2.946  14.308  0.00  0.00    +0.000 OA
ATOM      3  N   UNL     1      46.847   4.219  16.084  0.00  0.00    +0.000 N 
ATOM      4  H   UNL     1      46.565   5.144  16.390  0.00  0.00    +0.000 HD
ENDROOT
BRANCH   1  10
ATOM      5  C   UNL     1      47.317   8.806  12.439  0.00  0.00    +0.000 A 
ATOM      6  N   UNL     1      46.202   8.242  12.097  0.00  0.00    +0.000 NA
ATOM      7  C   UNL     1      46.016   6.979  12.597  0.00  0.00    +0.000 A 
ATOM      8  S   UNL     1      44.616   6.073  12.255  0.00  0.00    +0.000 S 
ATOM      9  C   UNL     1      45.152   4.764  13.215  0.00  0.00    +0.000 A 
ATOM     10  C   UNL     1      46.391   4.976  13.817  0.00  0.00    +0.000 A 
ATOM     11  C   UNL     1      46.897   6.264  13.382  0.00  0.00    +0.000 A 
ATOM     12  C   UNL     1      48.154   6.918  13.660  0.00  0.00    +0.000 A 
ATOM     13  O   UNL     1      49.098   6.367  14.211  0.00  0.00    +0.000 OA
ATOM     14  N   UNL     1      48.271   8.191  13.212  0.00  0.00    +0.000 N 
ATOM     15  H   UNL     1      49.160   8.637  13.405  0.00  0.00    +0.000 HD
BRANCH   5  17
ATOM     16  C   UNL     1      46.461  11.015  11.645  0.00  0.00    +0.000 C 
ATOM     17  C   UNL     1      47.693  10.194  11.981  0.00  0.00    +0.000 C 
ENDBRANCH   5  17
ENDBRANCH   1  10
BRANCH   3  18
ATOM     18  C   UNL     1      47.318   3.344  17.131  0.00  0.00    +0.000 C 
BRANCH  18  19
ATOM     19  C   UNL     1      48.830   3.332  17.257  0.00  0.00    +0.000 A 
ATOM     20  C   UNL     1      49.509   4.488  17.662  0.00  0.00    +0.000 A 
ATOM     21  C   UNL     1      50.898   4.482  17.853  0.00  0.00    +0.000 A 
ATOM     22  C   UNL     1      51.638   3.297  17.716  0.00  0.00    +0.000 A 
ATOM     23  C   UNL     1      50.966   2.142  17.310  0.00  0.00    +0.000 A 
ATOM     24  C   UNL     1      49.592   2.171  17.033  0.00  0.00    +0.000 A 
BRANCH  22  25
ATOM     25  C   UNL     1      53.130   3.231  17.963  0.00  0.00    +0.000 C 
BRANCH  25  26
ATOM     26  C   UNL     1      53.852   4.559  18.040  0.00  0.00    +0.000 A 
ATOM     27  C   UNL     1      54.353   5.145  16.881  0.00  0.00    +0.000 A 
ATOM     28  C   UNL     1      55.199   6.243  16.989  0.00  0.00    +0.000 A 
ATOM     29  C   UNL     1      55.499   6.749  18.247  0.00  0.00    +0.000 A 
ATOM     30  C   UNL     1      54.923   6.142  19.350  0.00  0.00    +0.000 A 
ATOM     31  N   UNL     1      54.118   5.059  19.277  0.00  0.00    +0.000 NA
ENDBRANCH  25  26
ENDBRANCH  22  25
ENDBRANCH  18  19
ENDBRANCH   3  18
TORSDOF 6
ENDMDL
MODEL 8
REMARK VINA RESULT:    -6.332      4.295      7.477
REMARK INTER + INTRA:          -9.293
REMARK INTER:                  -8.180
REMARK INTRA:                  -1.114
REMARK UNBOUND:                -0.741
REMARK  Name = 
REMARK  7 active torsions:
REMARK  status: ('A' for Active; 'I' for Inactive)
REMARK    1  A    between atoms: C_1  and  C_2
REMARK    2  A    between atoms: C_2  and  C_3
REMARK    3  A    between atoms: C_8  and  C_9
REMARK    4  A    between atoms: N_11  and  C_12
REMARK    5  A    between atoms: C_12  and  C_13
REMARK    6  A    between atoms: C_16  and  C_17
REMARK    7  A    between atoms: C_17  and  C_18
REMARK                            x       y       z     vdW  Elec       q    Type
REMARK                         _______ _______ _______ _____ _____    ______ ____
ROOT
ATOM      1  C   UNL     1      45.402   7.509  12.672  0.00  0.00    +0.000 C 
ATOM      2  O   UNL     1      44.882   8.611  12.549  0.00  0.00    +0.000 OA
ATOM      3  N   UNL     1      46.651   7.352  13.232  0.00  0.00    +0.000 N 
ATOM      4  H   UNL     1      46.971   6.419  13.469  0.00  0.00    +0.000 HD
ENDROOT
BRANCH   1  10
ATOM      5  C   UNL     1      44.744   3.837   8.812  0.00  0.00    +0.000 A 
ATOM      6  N   UNL     1      43.904   3.616   9.774  0.00  0.00    +0.000 NA
ATOM      7  C   UNL     1      44.004   4.475  10.838  0.00  0.00    +0.000 A 
ATOM      8  S   UNL     1      42.990   4.341  12.200  0.00  0.00    +0.000 S 
ATOM      9  C   UNL     1      43.712   5.699  12.948  0.00  0.00    +0.000 A 
ATOM     10  C   UNL     1      44.727   6.286  12.194  0.00  0.00    +0.000 A 
ATOM     11  C   UNL     1      44.912   5.502  10.987  0.00  0.00    +0.000 A 
ATOM     12  C   UNL     1      45.871   5.645   9.918  0.00  0.00    +0.000 A 
ATOM     13  O   UNL     1      46.830   6.404   9.963  0.00  0.00    +0.000 OA
ATOM     14  N   UNL     1      45.695   4.828   8.852  0.00  0.00    +0.000 N 
ATOM     15  H   UNL     1      46.378   4.931   8.111  0.00  0.00    +0.000 HD
BRANCH   5  17
ATOM     16  C   UNL     1      46.093   3.172   6.817  0.00  0.00    +0.000 C 
ATOM     17  C   UNL     1      44.782   2.993   7.563  0.00  0.00    +0.000 C 
ENDBRANCH   5  17
ENDBRANCH   1  10
BRANCH   3  18
ATOM     18  C   UNL     1      47.475   8.427  13.732  0.00  0.00    +0.000 C 
BRANCH  18  19
ATOM     19  C   UNL     1      48.739   8.632  12.917  0.00  0.00    +0.000 A 
ATOM     20  C   UNL     1      49.303   7.558  12.217  0.00  0.00    +0.000 A 
ATOM     21  C   UNL     1      50.429   7.737  11.402  0.00  0.00    +0.000 A 
ATOM     22  C   UNL     1      50.979   9.014  11.204  0.00  0.00    +0.000 A 
ATOM     23  C   UNL     1      50.420  10.088  11.901  0.00  0.00    +0.000 A 
ATOM     24  C   UNL     1      49.350   9.891  12.785  0.00  0.00    +0.000 A 
BRANCH  22  25
ATOM     25  C   UNL     1      52.161   9.264  10.293  0.00  0.00    +0.000 C 
BRANCH  25  26
ATOM     26  C   UNL     1      52.947   8.041   9.871  0.00  0.00    +0.000 A 
ATOM     27  C   UNL     1      52.681   7.433   8.648  0.00  0.00    +0.000 A 
ATOM     28  C   UNL     1      53.248   6.194   8.370  0.00  0.00    +0.000 A 
ATOM     29  C   UNL     1      54.091   5.608   9.304  0.00  0.00    +0.000 A 
ATOM     30  C   UNL     1      54.346   6.296  10.477  0.00  0.00    +0.000 A 
ATOM     31  N   UNL     1      53.790   7.489  10.785  0.00  0.00    +0.000 NA
ENDBRANCH  25  26
ENDBRANCH  22  25
ENDBRANCH  18  19
ENDBRANCH   3  18
TORSDOF 6
ENDMDL
MODEL 9
REMARK VINA RESULT:    -6.327      3.951      8.819
REMARK INTER + INTRA:          -9.287
REMARK INTER:                  -8.124
REMARK INTRA:                  -1.163
REMARK UNBOUND:                -0.741
REMARK  Name = 
REMARK  7 active torsions:
REMARK  status: ('A' for Active; 'I' for Inactive)
REMARK    1  A    between atoms: C_1  and  C_2
REMARK    2  A    between atoms: C_2  and  C_3
REMARK    3  A    between atoms: C_8  and  C_9
REMARK    4  A    between atoms: N_11  and  C_12
REMARK    5  A    between atoms: C_12  and  C_13
REMARK    6  A    between atoms: C_16  and  C_17
REMARK    7  A    between atoms: C_17  and  C_18
REMARK                            x       y       z     vdW  Elec       q    Type
REMARK                         _______ _______ _______ _____ _____    ______ ____
ROOT
ATOM      1  C   UNL     1      46.822   4.171  14.358  0.00  0.00    +0.000 C 
ATOM      2  O   UNL     1      47.498   3.266  13.886  0.00  0.00    +0.000 OA
ATOM      3  N   UNL     1      46.730   4.379  15.717  0.00  0.00    +0.000 N 
ATOM      4  H   UNL     1      46.302   5.234  16.057  0.00  0.00    +0.000 HD
ENDROOT
BRANCH   1  10
ATOM      5  C   UNL     1      46.149   9.053  12.229  0.00  0.00    +0.000 A 
ATOM      6  N   UNL     1      45.158   8.289  11.892  0.00  0.00    +0.000 NA
ATOM      7  C   UNL     1      45.240   6.999  12.352  0.00  0.00    +0.000 A 
ATOM      8  S   UNL     1      44.037   5.844  12.008  0.00  0.00    +0.000 S 
ATOM      9  C   UNL     1      44.849   4.638  12.909  0.00  0.00    +0.000 A 
ATOM     10  C   UNL     1      46.039   5.074  13.491  0.00  0.00    +0.000 A 
ATOM     11  C   UNL     1      46.267   6.450  13.090  0.00  0.00    +0.000 A 
ATOM     12  C   UNL     1      47.378   7.331  13.364  0.00  0.00    +0.000 A 
ATOM     13  O   UNL     1      48.427   6.962  13.874  0.00  0.00    +0.000 OA
ATOM     14  N   UNL     1      47.227   8.615  12.959  0.00  0.00    +0.000 N 
ATOM     15  H   UNL     1      48.015   9.223  13.148  0.00  0.00    +0.000 HD
BRANCH   5  17
ATOM     16  C   UNL     1      47.669  10.984  11.781  0.00  0.00    +0.000 C 
ATOM     17  C   UNL     1      46.230  10.500  11.813  0.00  0.00    +0.000 C 
ENDBRANCH   5  17
ENDBRANCH   1  10
BRANCH   3  18
ATOM     18  C   UNL     1      47.399   3.588  16.722  0.00  0.00    +0.000 C 
BRANCH  18  19
ATOM     19  C   UNL     1      48.785   4.108  17.060  0.00  0.00    +0.000 A 
ATOM     20  C   UNL     1      49.809   3.211  17.386  0.00  0.00    +0.000 A 
ATOM     21  C   UNL     1      51.114   3.662  17.634  0.00  0.00    +0.000 A 
ATOM     22  C   UNL     1      51.447   5.017  17.486  0.00  0.00    +0.000 A 
ATOM     23  C   UNL     1      50.428   5.916  17.162  0.00  0.00    +0.000 A 
ATOM     24  C   UNL     1      49.107   5.475  17.003  0.00  0.00    +0.000 A 
BRANCH  22  25
ATOM     25  C   UNL     1      52.852   5.541  17.691  0.00  0.00    +0.000 C 
BRANCH  25  26
ATOM     26  C   UNL     1      53.229   6.768  16.888  0.00  0.00    +0.000 A 
ATOM     27  C   UNL     1      53.702   6.625  15.586  0.00  0.00    +0.000 A 
ATOM     28  C   UNL     1      54.249   7.728  14.941  0.00  0.00    +0.000 A 
ATOM     29  C   UNL     1      54.283   8.952  15.595  0.00  0.00    +0.000 A 
ATOM     30  C   UNL     1      53.750   9.025  16.871  0.00  0.00    +0.000 A 
ATOM     31  N   UNL     1      53.235   7.965  17.532  0.00  0.00    +0.000 NA
ENDBRANCH  25  26
ENDBRANCH  22  25
ENDBRANCH  18  19
ENDBRANCH   3  18
TORSDOF 6
ENDMDL
