MODEL 1
REMARK VINA RESULT:    -7.611      0.000      0.000
REMARK INTER + INTRA:         -10.314
REMARK INTER:                  -9.614
REMARK INTRA:                  -0.701
REMARK UNBOUND:                -0.701
REMARK  Name = 
REMARK  7 active torsions:
REMARK  status: ('A' for Active; 'I' for Inactive)
REMARK    1  A    between atoms: C_1  and  C_2
REMARK    2  A    between atoms: C_2  and  C_3
REMARK    3  A    between atoms: C_2  and  C_4
REMARK    4  A    between atoms: C_2  and  C_20
REMARK    5  A    between atoms: C_4  and  N_5
REMARK    6  A    between atoms: C_10  and  C_11
REMARK    7  A    between atoms: C_23  and  O_24
REMARK                            x       y       z     vdW  Elec       q    Type
REMARK                         _______ _______ _______ _____ _____    ______ ____
ROOT
ATOM      1  N   UNL     1      45.694   6.315  12.264  0.00  0.00    +0.000 N 
ATOM      2  C   UNL     1      45.046   5.273  11.621  0.00  0.00    +0.000 A 
ATOM      3  N   UNL     1      43.905   4.884  12.195  0.00  0.00    +0.000 NA
ATOM      4  C   UNL     1      43.268   3.839  11.643  0.00  0.00    +0.000 A 
ATOM      5  C   UNL     1      43.723   3.182  10.530  0.00  0.00    +0.000 A 
ATOM      6  C   UNL     1      44.898   3.651   9.982  0.00  0.00    +0.000 A 
ATOM      7  N   UNL     1      45.566   4.699  10.526  0.00  0.00    +0.000 NA
ATOM      8  H   UNL     1      44.988   6.756  12.846  0.00  0.00    +0.000 HD
ENDROOT
BRANCH   6   9
ATOM      9  C   UNL     1      45.532   3.016   8.805  0.00  0.00    +0.000 A 
ATOM     10  C   UNL     1      45.843   1.645   8.773  0.00  0.00    +0.000 A 
ATOM     11  C   UNL     1      46.496   1.083   7.672  0.00  0.00    +0.000 A 
ATOM     12  F   UNL     1      46.789  -0.225   7.686  0.00  0.00    +0.000 F 
ATOM     13  C   UNL     1      46.847   1.851   6.580  0.00  0.00    +0.000 A 
ATOM     14  C   UNL     1      46.526   3.199   6.587  0.00  0.00    +0.000 A 
ATOM     15  F   UNL     1      46.859   3.961   5.536  0.00  0.00    +0.000 F 
ATOM     16  C   UNL     1      45.876   3.780   7.676  0.00  0.00    +0.000 A 
ENDBRANCH   6   9
BRANCH   1  17
ATOM     17  C   UNL     1      46.445   7.230  11.420  0.00  0.00    +0.000 C 
BRANCH  17  19
ATOM     18  C   UNL     1      46.237   9.643  12.203  0.00  0.00    +0.000 C 
ATOM     19  C   UNL     1      47.124   8.372  12.248  0.00  0.00    +0.000 C 
ATOM     20  C   UNL     1      47.134   7.913  13.731  0.00  0.00    +0.000 C 
BRANCH  19  21
ATOM     21  C   UNL     1      48.561   8.674  11.758  0.00  0.00    +0.000 A 
ATOM     22  C   UNL     1      49.517   7.653  11.591  0.00  0.00    +0.000 A 
ATOM     23  C   UNL     1      50.833   7.935  11.207  0.00  0.00    +0.000 A 
ATOM     24  C   UNL     1      51.212   9.247  10.963  0.00  0.00    +0.000 A 
ATOM     25  C   UNL     1      50.293  10.276  11.087  0.00  0.00    +0.000 A 
ATOM     26  C   UNL     1      48.980   9.990  11.475  0.00  0.00    +0.000 A 
BRANCH  24  27
ATOM     27  O   UNL     1      52.483   9.569  10.597  0.00  0.00    +0.000 OA
ATOM     28  H   UNL     1      52.718   9.049   9.810  0.00  0.00    +0.000 HD
ENDBRANCH  24  27
ENDBRANCH  19  21
ENDBRANCH  17  19
ENDBRANCH   1  17
TORSDOF 5
ENDMDL
MODEL 2
REMARK VINA RESULT:    -7.590      4.751      8.133
REMARK INTER + INTRA:         -10.287
REMARK INTER:                  -9.726
REMARK INTRA:                  -0.561
REMARK UNBOUND:                -0.701
REMARK  Name = 
REMARK  7 active torsions:
REMARK  status: ('A' for Active; 'I' for Inactive)
REMARK    1  A    between atoms: C_1  and  C_2
REMARK    2  A    between atoms: C_2  and  C_3
REMARK    3  A    between atoms: C_2  and  C_4
REMARK    4  A    between atoms: C_2  and  C_20
REMARK    5  A    between atoms: C_4  and  N_5
REMARK    6  A    between atoms: C_10  and  C_11
REMARK    7  A    between atoms: C_23  and  O_24
REMARK                            x       y       z     vdW  Elec       q    Type
REMARK                         _______ _______ _______ _____ _____    ______ ____
ROOT
ATOM      1  N   UNL     1      46.191   5.268  11.773  0.00  0.00    +0.000 N 
ATOM      2  C   UNL     1      46.879   5.874  12.812  0.00  0.00    +0.000 A 
ATOM      3  N   UNL     1      47.291   7.119  12.561  0.00  0.00    +0.000 NA
ATOM      4  C   UNL     1      48.012   7.729  13.514  0.00  0.00    +0.000 A 
ATOM      5  C   UNL     1      48.321   7.144  14.715  0.00  0.00    +0.000 A 
ATOM      6  C   UNL     1      47.847   5.864  14.910  0.00  0.00    +0.000 A 
ATOM      7  N   UNL     1      47.123   5.222  13.959  0.00  0.00    +0.000 NA
ATOM      8  H   UNL     1      45.881   6.029  11.174  0.00  0.00    +0.000 HD
ENDROOT
BRANCH   6   9
ATOM      9  C   UNL     1      48.136   5.091  16.138  0.00  0.00    +0.000 A 
ATOM     10  C   UNL     1      49.237   5.383  16.963  0.00  0.00    +0.000 A 
ATOM     11  C   UNL     1      49.521   4.600  18.085  0.00  0.00    +0.000 A 
ATOM     12  F   UNL     1      50.588   4.901  18.838  0.00  0.00    +0.000 F 
ATOM     13  C   UNL     1      48.727   3.521  18.425  0.00  0.00    +0.000 A 
ATOM     14  C   UNL     1      47.625   3.235  17.635  0.00  0.00    +0.000 A 
ATOM     15  F   UNL     1      46.843   2.193  17.948  0.00  0.00    +0.000 F 
ATOM     16  C   UNL     1      47.324   4.004  16.510  0.00  0.00    +0.000 A 
ENDBRANCH   6   9
BRANCH   1  17
ATOM     17  C   UNL     1      45.149   4.326  12.147  0.00  0.00    +0.000 C 
BRANCH  17  19
ATOM     18  C   UNL     1      43.119   2.979  11.411  0.00  0.00    +0.000 C 
ATOM     19  C   UNL     1      44.174   4.024  10.961  0.00  0.00    +0.000 C 
ATOM     20  C   UNL     1      43.384   5.331  10.680  0.00  0.00    +0.000 C 
BRANCH  19  21
ATOM     21  C   UNL     1      44.925   3.552   9.693  0.00  0.00    +0.000 A 
ATOM     22  C   UNL     1      45.174   2.189   9.444  0.00  0.00    +0.000 A 
ATOM     23  C   UNL     1      45.908   1.768   8.328  0.00  0.00    +0.000 A 
ATOM     24  C   UNL     1      46.388   2.708   7.427  0.00  0.00    +0.000 A 
ATOM     25  C   UNL     1      46.137   4.056   7.621  0.00  0.00    +0.000 A 
ATOM     26  C   UNL     1      45.408   4.472   8.739  0.00  0.00    +0.000 A 
BRANCH  24  27
ATOM     27  O   UNL     1      47.113   2.345   6.333  0.00  0.00    +0.000 OA
ATOM     28  H   UNL     1      46.663   1.602   5.898  0.00  0.00    +0.000 HD
ENDBRANCH  24  27
ENDBRANCH  19  21
ENDBRANCH  17  19
ENDBRANCH   1  17
TORSDOF 5
ENDMDL
MODEL 3
REMARK VINA RESULT:    -7.544      3.866      5.789
REMARK INTER + INTRA:         -10.229
REMARK INTER:                  -9.204
REMARK INTRA:                  -1.025
REMARK UNBOUND:                -0.701
REMARK  Name = 
REMARK  7 active torsions:
REMARK  status: ('A' for Active; 'I' for Inactive)
REMARK    1  A    between atoms: C_1  and  C_2
REMARK    2  A    between atoms: C_2  and  C_3
REMARK    3  A    between atoms: C_2  and  C_4
REMARK    4  A    between atoms: C_2  and  C_20
REMARK    5  A    between atoms: C_4  and  N_5
REMARK    6  A    between atoms: C_10  and  C_11
REMARK    7  A    between atoms: C_23  and  O_24
REMARK                            x       y       z     vdW  Elec       q    Type
REMARK                         _______ _______ _______ _____ _____    ______ ____
ROOT
ATOM      1  N   UNL     1      47.406   8.433  14.213  0.00  0.00    +0.000 N 
ATOM      2  C   UNL     1      46.454   8.221  13.229  0.00  0.00    +0.000 A 
ATOM      3  N   UNL     1      45.796   9.317  12.840  0.00  0.00    +0.000 NA
ATOM      4  C   UNL     1      44.823   9.155  11.930  0.00  0.00    +0.000 A 
ATOM      5  C   UNL     1      44.497   7.940  11.384  0.00  0.00    +0.000 A 
ATOM      6  C   UNL     1      45.231   6.858  11.821  0.00  0.00    +0.000 A 
ATOM      7  N   UNL     1      46.214   6.993  12.746  0.00  0.00    +0.000 NA
ATOM      8  H   UNL     1      47.606   9.429  14.186  0.00  0.00    +0.000 HD
ENDROOT
BRANCH   6   9
ATOM      9  C   UNL     1      44.965   5.480  11.351  0.00  0.00    +0.000 A 
ATOM     10  C   UNL     1      45.265   5.065  10.042  0.00  0.00    +0.000 A 
ATOM     11  C   UNL     1      44.948   3.775   9.607  0.00  0.00    +0.000 A 
ATOM     12  F   UNL     1      45.235   3.423   8.346  0.00  0.00    +0.000 F 
ATOM     13  C   UNL     1      44.341   2.865  10.450  0.00  0.00    +0.000 A 
ATOM     14  C   UNL     1      44.062   3.251  11.751  0.00  0.00    +0.000 A 
ATOM     15  F   UNL     1      43.473   2.381  12.583  0.00  0.00    +0.000 F 
ATOM     16  C   UNL     1      44.368   4.534  12.205  0.00  0.00    +0.000 A 
ENDBRANCH   6   9
BRANCH   1  17
ATOM     17  C   UNL     1      48.579   7.576  14.176  0.00  0.00    +0.000 C 
BRANCH  17  19
ATOM     18  C   UNL     1      50.655   7.121  15.576  0.00  0.00    +0.000 C 
ATOM     19  C   UNL     1      49.109   7.240  15.610  0.00  0.00    +0.000 C 
ATOM     20  C   UNL     1      48.797   8.468  16.508  0.00  0.00    +0.000 C 
BRANCH  19  21
ATOM     21  C   UNL     1      48.460   5.959  16.188  0.00  0.00    +0.000 A 
ATOM     22  C   UNL     1      47.826   5.012  15.360  0.00  0.00    +0.000 A 
ATOM     23  C   UNL     1      47.186   3.885  15.890  0.00  0.00    +0.000 A 
ATOM     24  C   UNL     1      47.187   3.676  17.262  0.00  0.00    +0.000 A 
ATOM     25  C   UNL     1      47.826   4.569  18.106  0.00  0.00    +0.000 A 
ATOM     26  C   UNL     1      48.460   5.694  17.573  0.00  0.00    +0.000 A 
BRANCH  24  27
ATOM     27  O   UNL     1      46.569   2.599  17.821  0.00  0.00    +0.000 OA
ATOM     28  H   UNL     1      46.262   2.847  18.709  0.00  0.00    +0.000 HD
ENDBRANCH  24  27
ENDBRANCH  19  21
ENDBRANCH  17  19
ENDBRANCH   1  17
TORSDOF 5
ENDMDL
MODEL 4
REMARK VINA RESULT:    -7.426      3.858      7.771
REMARK INTER + INTRA:         -10.081
REMARK INTER:                  -9.384
REMARK INTRA:                  -0.696
REMARK UNBOUND:                -0.701
REMARK  Name = 
REMARK  7 active torsions:
REMARK  status: ('A' for Active; 'I' for Inactive)
REMARK    1  A    between atoms: C_1  and  C_2
REMARK    2  A    between atoms: C_2  and  C_3
REMARK    3  A    between atoms: C_2  and  C_4
REMARK    4  A    between atoms: C_2  and  C_20
REMARK    5  A    between atoms: C_4  and  N_5
REMARK    6  A    between atoms: C_10  and  C_11
REMARK    7  A    between atoms: C_23  and  O_24
REMARK                            x       y       z     vdW  Elec       q    Type
REMARK                         _______ _______ _______ _____ _____    ______ ____
ROOT
ATOM      1  N   UNL     1      45.322   4.099  11.847  0.00  0.00    +0.000 N 
ATOM      2  C   UNL     1      46.153   4.627  12.822  0.00  0.00    +0.000 A 
ATOM      3  N   UNL     1      46.329   3.845  13.891  0.00  0.00    +0.000 NA
ATOM      4  C   UNL     1      47.079   4.335  14.890  0.00  0.00    +0.000 A 
ATOM      5  C   UNL     1      47.674   5.570  14.850  0.00  0.00    +0.000 A 
ATOM      6  C   UNL     1      47.462   6.312  13.707  0.00  0.00    +0.000 A 
ATOM      7  N   UNL     1      46.700   5.843  12.687  0.00  0.00    +0.000 NA
ATOM      8  H   UNL     1      45.290   3.100  12.029  0.00  0.00    +0.000 HD
ENDROOT
BRANCH   6   9
ATOM      9  C   UNL     1      48.005   7.679  13.538  0.00  0.00    +0.000 A 
ATOM     10  C   UNL     1      48.369   8.188  12.279  0.00  0.00    +0.000 A 
ATOM     11  C   UNL     1      48.935   9.460  12.156  0.00  0.00    +0.000 A 
ATOM     12  F   UNL     1      49.283   9.904  10.940  0.00  0.00    +0.000 F 
ATOM     13  C   UNL     1      49.145  10.260  13.262  0.00  0.00    +0.000 A 
ATOM     14  C   UNL     1      48.770   9.781  14.507  0.00  0.00    +0.000 A 
ATOM     15  F   UNL     1      48.967  10.542  15.592  0.00  0.00    +0.000 F 
ATOM     16  C   UNL     1      48.205   8.514  14.653  0.00  0.00    +0.000 A 
ENDBRANCH   6   9
BRANCH   1  17
ATOM     17  C   UNL     1      45.627   4.458  10.472  0.00  0.00    +0.000 C 
BRANCH  17  19
ATOM     18  C   UNL     1      44.190   2.375  10.203  0.00  0.00    +0.000 C 
ATOM     19  C   UNL     1      44.898   3.527   9.445  0.00  0.00    +0.000 C 
ATOM     20  C   UNL     1      43.766   4.367   8.795  0.00  0.00    +0.000 C 
BRANCH  19  21
ATOM     21  C   UNL     1      45.864   2.979   8.367  0.00  0.00    +0.000 A 
ATOM     22  C   UNL     1      46.177   1.608   8.281  0.00  0.00    +0.000 A 
ATOM     23  C   UNL     1      47.099   1.123   7.346  0.00  0.00    +0.000 A 
ATOM     24  C   UNL     1      47.708   2.001   6.461  0.00  0.00    +0.000 A 
ATOM     25  C   UNL     1      47.402   3.352   6.494  0.00  0.00    +0.000 A 
ATOM     26  C   UNL     1      46.486   3.833   7.433  0.00  0.00    +0.000 A 
BRANCH  24  27
ATOM     27  O   UNL     1      48.616   1.575   5.541  0.00  0.00    +0.000 OA
ATOM     28  H   UNL     1      49.088   0.808   5.906  0.00  0.00    +0.000 HD
ENDBRANCH  24  27
ENDBRANCH  19  21
ENDBRANCH  17  19
ENDBRANCH   1  17
TORSDOF 5
ENDMDL
MODEL 5
REMARK VINA RESULT:    -7.333      3.798      7.625
REMARK INTER + INTRA:          -9.963
REMARK INTER:                  -9.270
REMARK INTRA:                  -0.693
REMARK UNBOUND:                -0.701
REMARK  Name = 
REMARK  7 active torsions:
REMARK  status: ('A' for Active; 'I' for Inactive)
REMARK    1  A    between atoms: C_1  and  C_2
REMARK    2  A    between atoms: C_2  and  C_3
REMARK    3  A    between atoms: C_2  and  C_4
REMARK    4  A    between atoms: C_2  and  C_20
REMARK    5  A    between atoms: C_4  and  N_5
REMARK    6  A    between atoms: C_10  and  C_11
REMARK    7  A    between atoms: C_23  and  O_24
REMARK                            x       y       z     vdW  Elec       q    Type
REMARK                         _______ _______ _______ _____ _____    ______ ____
ROOT
ATOM      1  N   UNL     1      45.213   4.385  11.849  0.00  0.00    +0.000 N 
ATOM      2  C   UNL     1      46.117   4.796  12.815  0.00  0.00    +0.000 A 
ATOM      3  N   UNL     1      46.125   4.055  13.926  0.00  0.00    +0.000 NA
ATOM      4  C   UNL     1      46.943   4.446  14.916  0.00  0.00    +0.000 A 
ATOM      5  C   UNL     1      47.763   5.541  14.827  0.00  0.00    +0.000 A 
ATOM      6  C   UNL     1      47.713   6.247  13.644  0.00  0.00    +0.000 A 
ATOM      7  N   UNL     1      46.889   5.878  12.631  0.00  0.00    +0.000 NA
ATOM      8  H   UNL     1      44.988   3.421  12.080  0.00  0.00    +0.000 HD
ENDROOT
BRANCH   6   9
ATOM      9  C   UNL     1      48.510   7.473  13.420  0.00  0.00    +0.000 A 
ATOM     10  C   UNL     1      48.474   8.561  14.310  0.00  0.00    +0.000 A 
ATOM     11  C   UNL     1      49.190   9.731  14.043  0.00  0.00    +0.000 A 
ATOM     12  F   UNL     1      49.117  10.753  14.908  0.00  0.00    +0.000 F 
ATOM     13  C   UNL     1      49.963   9.853  12.904  0.00  0.00    +0.000 A 
ATOM     14  C   UNL     1      50.027   8.780  12.030  0.00  0.00    +0.000 A 
ATOM     15  F   UNL     1      50.771   8.880  10.920  0.00  0.00    +0.000 F 
ATOM     16  C   UNL     1      49.319   7.604  12.276  0.00  0.00    +0.000 A 
ENDBRANCH   6   9
BRANCH   1  17
ATOM     17  C   UNL     1      45.599   4.604  10.465  0.00  0.00    +0.000 C 
BRANCH  17  19
ATOM     18  C   UNL     1      44.222   2.470  10.306  0.00  0.00    +0.000 C 
ATOM     19  C   UNL     1      44.885   3.610   9.489  0.00  0.00    +0.000 C 
ATOM     20  C   UNL     1      43.719   4.388   8.822  0.00  0.00    +0.000 C 
BRANCH  19  21
ATOM     21  C   UNL     1      45.851   3.045   8.421  0.00  0.00    +0.000 A 
ATOM     22  C   UNL     1      46.113   1.665   8.314  0.00  0.00    +0.000 A 
ATOM     23  C   UNL     1      47.035   1.162   7.388  0.00  0.00    +0.000 A 
ATOM     24  C   UNL     1      47.697   2.033   6.534  0.00  0.00    +0.000 A 
ATOM     25  C   UNL     1      47.443   3.393   6.588  0.00  0.00    +0.000 A 
ATOM     26  C   UNL     1      46.526   3.892   7.517  0.00  0.00    +0.000 A 
BRANCH  24  27
ATOM     27  O   UNL     1      48.607   1.589   5.624  0.00  0.00    +0.000 OA
ATOM     28  H   UNL     1      48.298   1.831   4.736  0.00  0.00    +0.000 HD
ENDBRANCH  24  27
ENDBRANCH  19  21
ENDBRANCH  17  19
ENDBRANCH   1  17
TORSDOF 5
ENDMDL
MODEL 6
REMARK VINA RESULT:    -7.269      2.270      2.943
REMARK INTER + INTRA:          -9.881
REMARK INTER:                  -9.196
REMARK INTRA:                  -0.685
REMARK UNBOUND:                -0.701
REMARK  Name = 
REMARK  7 active torsions:
REMARK  status: ('A' for Active; 'I' for Inactive)
REMARK    1  A    between atoms: C_1  and  C_2
REMARK    2  A    between atoms: C_2  and  C_3
REMARK    3  A    between atoms: C_2  and  C_4
REMARK    4  A    between atoms: C_2  and  C_20
REMARK    5  A    between atoms: C_4  and  N_5
REMARK    6  A    between atoms: C_10  and  C_11
REMARK    7  A    between atoms: C_23  and  O_24
REMARK                            x       y       z     vdW  Elec       q    Type
REMARK                         _______ _______ _______ _____ _____    ______ ____
ROOT
ATOM      1  N   UNL     1      46.024   6.136  13.088  0.00  0.00    +0.000 N 
ATOM      2  C   UNL     1      45.170   5.481  12.216  0.00  0.00    +0.000 A 
ATOM      3  N   UNL     1      43.880   5.516  12.563  0.00  0.00    +0.000 NA
ATOM      4  C   UNL     1      43.018   4.847  11.782  0.00  0.00    +0.000 A 
ATOM      5  C   UNL     1      43.398   4.159  10.658  0.00  0.00    +0.000 A 
ATOM      6  C   UNL     1      44.743   4.181  10.354  0.00  0.00    +0.000 A 
ATOM      7  N   UNL     1      45.636   4.843  11.132  0.00  0.00    +0.000 NA
ATOM      8  H   UNL     1      45.434   6.766  13.625  0.00  0.00    +0.000 HD
ENDROOT
BRANCH   6   9
ATOM      9  C   UNL     1      45.305   3.450   9.197  0.00  0.00    +0.000 A 
ATOM     10  C   UNL     1      45.430   2.050   9.187  0.00  0.00    +0.000 A 
ATOM     11  C   UNL     1      46.020   1.389   8.106  0.00  0.00    +0.000 A 
ATOM     12  F   UNL     1      46.136   0.054   8.141  0.00  0.00    +0.000 F 
ATOM     13  C   UNL     1      46.488   2.088   7.010  0.00  0.00    +0.000 A 
ATOM     14  C   UNL     1      46.351   3.466   6.994  0.00  0.00    +0.000 A 
ATOM     15  F   UNL     1      46.799   4.161   5.940  0.00  0.00    +0.000 F 
ATOM     16  C   UNL     1      45.766   4.145   8.064  0.00  0.00    +0.000 A 
ENDBRANCH   6   9
BRANCH   1  17
ATOM     17  C   UNL     1      47.199   6.758  12.500  0.00  0.00    +0.000 C 
BRANCH  17  19
ATOM     18  C   UNL     1      48.296   9.017  12.091  0.00  0.00    +0.000 C 
ATOM     19  C   UNL     1      47.484   8.172  13.106  0.00  0.00    +0.000 C 
ATOM     20  C   UNL     1      46.113   8.887  13.252  0.00  0.00    +0.000 C 
BRANCH  19  21
ATOM     21  C   UNL     1      48.207   8.088  14.471  0.00  0.00    +0.000 A 
ATOM     22  C   UNL     1      49.034   6.998  14.806  0.00  0.00    +0.000 A 
ATOM     23  C   UNL     1      49.638   6.893  16.065  0.00  0.00    +0.000 A 
ATOM     24  C   UNL     1      49.441   7.892  17.007  0.00  0.00    +0.000 A 
ATOM     25  C   UNL     1      48.659   8.995  16.705  0.00  0.00    +0.000 A 
ATOM     26  C   UNL     1      48.055   9.093  15.448  0.00  0.00    +0.000 A 
BRANCH  24  27
ATOM     27  O   UNL     1      50.001   7.827  18.246  0.00  0.00    +0.000 OA
ATOM     28  H   UNL     1      50.366   8.701  18.466  0.00  0.00    +0.000 HD
ENDBRANCH  24  27
ENDBRANCH  19  21
ENDBRANCH  17  19
ENDBRANCH   1  17
TORSDOF 5
ENDMDL
MODEL 7
REMARK VINA RESULT:    -7.224      5.826      9.044
REMARK INTER + INTRA:          -9.825
REMARK INTER:                  -9.116
REMARK INTRA:                  -0.709
REMARK UNBOUND:                -0.701
REMARK  Name = 
REMARK  7 active torsions:
REMARK  status: ('A' for Active; 'I' for Inactive)
REMARK    1  A    between atoms: C_1  and  C_2
REMARK    2  A    between atoms: C_2  and  C_3
REMARK    3  A    between atoms: C_2  and  C_4
REMARK    4  A    between atoms: C_2  and  C_20
REMARK    5  A    between atoms: C_4  and  N_5
REMARK    6  A    between atoms: C_10  and  C_11
REMARK    7  A    between atoms: C_23  and  O_24
REMARK                            x       y       z     vdW  Elec       q    Type
REMARK                         _______ _______ _______ _____ _____    ______ ____
ROOT
ATOM      1  N   UNL     1      46.551   3.687  13.989  0.00  0.00    +0.000 N 
ATOM      2  C   UNL     1      47.332   3.724  15.133  0.00  0.00    +0.000 A 
ATOM      3  N   UNL     1      47.941   2.572  15.432  0.00  0.00    +0.000 NA
ATOM      4  C   UNL     1      48.664   2.539  16.562  0.00  0.00    +0.000 A 
ATOM      5  C   UNL     1      48.812   3.619  17.394  0.00  0.00    +0.000 A 
ATOM      6  C   UNL     1      48.169   4.777  17.011  0.00  0.00    +0.000 A 
ATOM      7  N   UNL     1      47.425   4.835  15.878  0.00  0.00    +0.000 NA
ATOM      8  H   UNL     1      46.876   2.880  13.464  0.00  0.00    +0.000 HD
ENDROOT
BRANCH   6   9
ATOM      9  C   UNL     1      48.204   6.009  17.830  0.00  0.00    +0.000 A 
ATOM     10  C   UNL     1      48.877   7.169  17.405  0.00  0.00    +0.000 A 
ATOM     11  C   UNL     1      48.945   8.299  18.224  0.00  0.00    +0.000 A 
ATOM     12  F   UNL     1      49.609   9.380  17.790  0.00  0.00    +0.000 F 
ATOM     13  C   UNL     1      48.347   8.318  19.469  0.00  0.00    +0.000 A 
ATOM     14  C   UNL     1      47.660   7.192  19.891  0.00  0.00    +0.000 A 
ATOM     15  F   UNL     1      47.074   7.191  21.096  0.00  0.00    +0.000 F 
ATOM     16  C   UNL     1      47.581   6.052  19.090  0.00  0.00    +0.000 A 
ENDBRANCH   6   9
BRANCH   1  17
ATOM     17  C   UNL     1      46.468   4.919  13.222  0.00  0.00    +0.000 C 
BRANCH  17  19
ATOM     18  C   UNL     1      44.003   4.289  13.258  0.00  0.00    +0.000 C 
ATOM     19  C   UNL     1      45.099   5.057  12.476  0.00  0.00    +0.000 C 
ATOM     20  C   UNL     1      44.697   6.555  12.540  0.00  0.00    +0.000 C 
BRANCH  19  21
ATOM     21  C   UNL     1      45.183   4.575  11.008  0.00  0.00    +0.000 A 
ATOM     22  C   UNL     1      44.751   3.290  10.624  0.00  0.00    +0.000 A 
ATOM     23  C   UNL     1      44.885   2.832   9.308  0.00  0.00    +0.000 A 
ATOM     24  C   UNL     1      45.436   3.664   8.344  0.00  0.00    +0.000 A 
ATOM     25  C   UNL     1      45.845   4.945   8.675  0.00  0.00    +0.000 A 
ATOM     26  C   UNL     1      45.713   5.396   9.992  0.00  0.00    +0.000 A 
BRANCH  24  27
ATOM     27  O   UNL     1      45.594   3.258   7.054  0.00  0.00    +0.000 OA
ATOM     28  H   UNL     1      44.719   3.220   6.634  0.00  0.00    +0.000 HD
ENDBRANCH  24  27
ENDBRANCH  19  21
ENDBRANCH  17  19
ENDBRANCH   1  17
TORSDOF 5
ENDMDL
MODEL 8
REMARK VINA RESULT:    -7.215      5.058      6.532
REMARK INTER + INTRA:          -9.813
REMARK INTER:                  -9.088
REMARK INTRA:                  -0.725
REMARK UNBOUND:                -0.701
REMARK  Name = 
REMARK  7 active torsions:
REMARK  status: ('A' for Active; 'I' for Inactive)
REMARK    1  A    between atoms: C_1  and  C_2
REMARK    2  A    between atoms: C_2  and  C_3
REMARK    3  A    between atoms: C_2  and  C_4
REMARK    4  A    between atoms: C_2  and  C_20
REMARK    5  A    between atoms: C_4  and  N_5
REMARK    6  A    between atoms: C_10  and  C_11
REMARK    7  A    between atoms: C_23  and  O_24
REMARK                            x       y       z     vdW  Elec       q    Type
REMARK                         _______ _______ _______ _____ _____    ______ ____
ROOT
ATOM      1  N   UNL     1      48.263   6.702  15.572  0.00  0.00    +0.000 N 
ATOM      2  C   UNL     1      47.969   6.749  14.218  0.00  0.00    +0.000 A 
ATOM      3  N   UNL     1      48.645   7.673  13.530  0.00  0.00    +0.000 NA
ATOM      4  C   UNL     1      48.355   7.798  12.226  0.00  0.00    +0.000 A 
ATOM      5  C   UNL     1      47.426   7.022  11.583  0.00  0.00    +0.000 A 
ATOM      6  C   UNL     1      46.781   6.078  12.354  0.00  0.00    +0.000 A 
ATOM      7  N   UNL     1      47.049   5.937  13.677  0.00  0.00    +0.000 NA
ATOM      8  H   UNL     1      49.160   7.169  15.671  0.00  0.00    +0.000 HD
ENDROOT
BRANCH   6   9
ATOM      9  C   UNL     1      45.724   5.197  11.808  0.00  0.00    +0.000 A 
ATOM     10  C   UNL     1      45.050   4.256  12.606  0.00  0.00    +0.000 A 
ATOM     11  C   UNL     1      44.099   3.395  12.051  0.00  0.00    +0.000 A 
ATOM     12  F   UNL     1      43.489   2.500  12.841  0.00  0.00    +0.000 F 
ATOM     13  C   UNL     1      43.783   3.448  10.707  0.00  0.00    +0.000 A 
ATOM     14  C   UNL     1      44.422   4.386   9.913  0.00  0.00    +0.000 A 
ATOM     15  F   UNL     1      44.130   4.452   8.607  0.00  0.00    +0.000 F 
ATOM     16  C   UNL     1      45.376   5.254  10.446  0.00  0.00    +0.000 A 
ENDBRANCH   6   9
BRANCH   1  17
ATOM     17  C   UNL     1      48.182   5.397  16.207  0.00  0.00    +0.000 C 
BRANCH  17  19
ATOM     18  C   UNL     1      50.072   6.523  17.486  0.00  0.00    +0.000 C 
ATOM     19  C   UNL     1      49.151   5.277  17.431  0.00  0.00    +0.000 C 
ATOM     20  C   UNL     1      48.274   5.339  18.711  0.00  0.00    +0.000 C 
BRANCH  19  21
ATOM     21  C   UNL     1      49.978   3.970  17.395  0.00  0.00    +0.000 A 
ATOM     22  C   UNL     1      49.414   2.746  16.984  0.00  0.00    +0.000 A 
ATOM     23  C   UNL     1      50.146   1.553  17.012  0.00  0.00    +0.000 A 
ATOM     24  C   UNL     1      51.468   1.568  17.433  0.00  0.00    +0.000 A 
ATOM     25  C   UNL     1      52.067   2.756  17.816  0.00  0.00    +0.000 A 
ATOM     26  C   UNL     1      51.331   3.944  17.791  0.00  0.00    +0.000 A 
BRANCH  24  27
ATOM     27  O   UNL     1      52.215   0.431  17.485  0.00  0.00    +0.000 OA
ATOM     28  H   UNL     1      51.958  -0.071  18.276  0.00  0.00    +0.000 HD
ENDBRANCH  24  27
ENDBRANCH  19  21
ENDBRANCH  17  19
ENDBRANCH   1  17
TORSDOF 5
ENDMDL
MODEL 9
REMARK VINA RESULT:    -7.178      1.101      2.195
REMARK INTER + INTRA:          -9.767
REMARK INTER:                  -9.101
REMARK INTRA:                  -0.667
REMARK UNBOUND:                -0.701
REMARK  Name = 
REMARK  7 active torsions:
REMARK  status: ('A' for Active; 'I' for Inactive)
REMARK    1  A    between atoms: C_1  and  C_2
REMARK    2  A    between atoms: C_2  and  C_3
REMARK    3  A    between atoms: C_2  and  C_4
REMARK    4  A    between atoms: C_2  and  C_20
REMARK    5  A    between atoms: C_4  and  N_5
REMARK    6  A    between atoms: C_10  and  C_11
REMARK    7  A    between atoms: C_23  and  O_24
REMARK                            x       y       z     vdW  Elec       q    Type
REMARK                         _______ _______ _______ _____ _____    ______ ____
ROOT
ATOM      1  N   UNL     1      46.126   5.986  13.614  0.00  0.00    +0.000 N 
ATOM      2  C   UNL     1      45.259   5.593  12.608  0.00  0.00    +0.000 A 
ATOM      3  N   UNL     1      43.976   5.902  12.822  0.00  0.00    +0.000 NA
ATOM      4  C   UNL     1      43.087   5.492  11.904  0.00  0.00    +0.000 A 
ATOM      5  C   UNL     1      43.437   4.800  10.773  0.00  0.00    +0.000 A 
ATOM      6  C   UNL     1      44.780   4.533  10.612  0.00  0.00    +0.000 A 
ATOM      7  N   UNL     1      45.698   4.928  11.529  0.00  0.00    +0.000 NA
ATOM      8  H   UNL     1      45.630   6.702  14.136  0.00  0.00    +0.000 HD
ENDROOT
BRANCH   6   9
ATOM      9  C   UNL     1      45.300   3.759   9.463  0.00  0.00    +0.000 A 
ATOM     10  C   UNL     1      45.841   4.384   8.325  0.00  0.00    +0.000 A 
ATOM     11  C   UNL     1      46.271   3.630   7.229  0.00  0.00    +0.000 A 
ATOM     12  F   UNL     1      46.766   4.263   6.156  0.00  0.00    +0.000 F 
ATOM     13  C   UNL     1      46.188   2.251   7.232  0.00  0.00    +0.000 A 
ATOM     14  C   UNL     1      45.680   1.620   8.355  0.00  0.00    +0.000 A 
ATOM     15  F   UNL     1      45.591   0.284   8.376  0.00  0.00    +0.000 F 
ATOM     16  C   UNL     1      45.244   2.353   9.460  0.00  0.00    +0.000 A 
ENDBRANCH   6   9
BRANCH   1  17
ATOM     17  C   UNL     1      47.471   6.355  13.202  0.00  0.00    +0.000 C 
BRANCH  17  19
ATOM     18  C   UNL     1      46.519   8.700  13.474  0.00  0.00    +0.000 C 
ATOM     19  C   UNL     1      47.808   7.842  13.557  0.00  0.00    +0.000 C 
ATOM     20  C   UNL     1      48.238   7.865  15.049  0.00  0.00    +0.000 C 
BRANCH  19  21
ATOM     21  C   UNL     1      48.925   8.419  12.655  0.00  0.00    +0.000 A 
ATOM     22  C   UNL     1      48.860   9.729  12.142  0.00  0.00    +0.000 A 
ATOM     23  C   UNL     1      49.840  10.228  11.275  0.00  0.00    +0.000 A 
ATOM     24  C   UNL     1      50.918   9.428  10.924  0.00  0.00    +0.000 A 
ATOM     25  C   UNL     1      51.033   8.145  11.432  0.00  0.00    +0.000 A 
ATOM     26  C   UNL     1      50.050   7.649  12.293  0.00  0.00    +0.000 A 
BRANCH  24  27
ATOM     27  O   UNL     1      51.889   9.869  10.077  0.00  0.00    +0.000 OA
ATOM     28  H   UNL     1      51.683  10.783   9.821  0.00  0.00    +0.000 HD
ENDBRANCH  24  27
ENDBRANCH  19  21
ENDBRANCH  17  19
ENDBRANCH   1  17
TORSDOF 5
ENDMDL
