MODEL 1
REMARK VINA RESULT:    -8.363      0.000      0.000
REMARK INTER + INTRA:         -12.695
REMARK INTER:                 -11.785
REMARK INTRA:                  -0.910
REMARK UNBOUND:                -0.910
REMARK  Name = 
REMARK  8 active torsions:
REMARK  status: ('A' for Active; 'I' for Inactive)
REMARK    1  A    between atoms: C_1  and  C_2
REMARK    2  A    between atoms: C_2  and  N_3
REMARK    3  A    between atoms: C_2  and  C_25
REMARK    4  A    between atoms: N_3  and  C_4
REMARK    5  A    between atoms: C_4  and  C_5
REMARK    6  A    between atoms: C_8  and  C_9
REMARK    7  A    between atoms: C_9  and  N_10
REMARK    8  A    between atoms: C_11  and  C_13
REMARK                            x       y       z     vdW  Elec       q    Type
REMARK                         _______ _______ _______ _____ _____    ______ ____
ROOT
ATOM      1  C   UNL     1      45.706   4.499  12.781  0.00  0.00    +0.000 A 
ATOM      2  C   UNL     1      45.667   5.878  12.561  0.00  0.00    +0.000 A 
ATOM      3  C   UNL     1      46.558   6.714  13.230  0.00  0.00    +0.000 A 
ATOM      4  C   UNL     1      47.484   6.149  14.105  0.00  0.00    +0.000 A 
ATOM      5  N   UNL     1      47.537   4.814  14.341  0.00  0.00    +0.000 NA
ATOM      6  C   UNL     1      46.656   4.028  13.678  0.00  0.00    +0.000 A 
ENDROOT
BRANCH   1   7
ATOM      7  C   UNL     1      44.695   3.574  12.160  0.00  0.00    +0.000 C 
BRANCH   7   8
ATOM      8  N   UNL     1      45.272   2.772  11.081  0.00  0.00    +0.000 NA
ATOM      9  H   UNL     1      45.194   1.786  11.340  0.00  0.00    +0.000 HD
BRANCH   8  11
ATOM     10  C   UNL     1      43.954   4.347   9.640  0.00  0.00    +0.000 C 
ATOM     11  C   UNL     1      44.555   2.943   9.798  0.00  0.00    +0.000 C 
BRANCH  11  12
ATOM     12  C   UNL     1      45.476   2.622   8.619  0.00  0.00    +0.000 A 
ATOM     13  C   UNL     1      45.756   3.578   7.642  0.00  0.00    +0.000 A 
ATOM     14  C   UNL     1      46.617   3.251   6.597  0.00  0.00    +0.000 A 
ATOM     15  C   UNL     1      47.182   1.983   6.554  0.00  0.00    +0.000 A 
ATOM     16  C   UNL     1      46.856   1.091   7.559  0.00  0.00    +0.000 A 
ATOM     17  N   UNL     1      46.023   1.377   8.585  0.00  0.00    +0.000 NA
ENDBRANCH  11  12
ENDBRANCH   8  11
ENDBRANCH   7   8
ENDBRANCH   1   7
BRANCH   4  18
ATOM     18  C   UNL     1      48.424   7.034  14.890  0.00  0.00    +0.000 C 
BRANCH  18  19
ATOM     19  N   UNL     1      49.493   6.261  15.486  0.00  0.00    +0.000 N 
ATOM     20  C   UNL     1      49.477   5.901  16.808  0.00  0.00    +0.000 C 
ATOM     21  O   UNL     1      48.524   6.155  17.539  0.00  0.00    +0.000 OA
ATOM     22  H   UNL     1      50.367   6.252  14.969  0.00  0.00    +0.000 HD
BRANCH  20  23
ATOM     23  C   UNL     1      50.623   5.122  17.296  0.00  0.00    +0.000 A 
ATOM     24  C   UNL     1      51.733   5.784  17.805  0.00  0.00    +0.000 A 
ATOM     25  S   UNL     1      52.949   4.739  18.383  0.00  0.00    +0.000 S 
ATOM     26  C   UNL     1      52.061   3.363  17.924  0.00  0.00    +0.000 A 
ATOM     27  N   UNL     1      52.557   2.113  18.122  0.00  0.00    +0.000 NA
ATOM     28  C   UNL     1      51.795   1.163  17.692  0.00  0.00    +0.000 A 
ATOM     29  N   UNL     1      50.579   1.350  17.089  0.00  0.00    +0.000 N 
ATOM     30  C   UNL     1      50.024   2.592  16.896  0.00  0.00    +0.000 A 
ATOM     31  O   UNL     1      48.914   2.725  16.392  0.00  0.00    +0.000 OA
ATOM     32  C   UNL     1      50.845   3.697  17.351  0.00  0.00    +0.000 A 
ATOM     33  H   UNL     1      50.029   0.563  16.778  0.00  0.00    +0.000 HD
ENDBRANCH  20  23
ENDBRANCH  18  19
ENDBRANCH   4  18
TORSDOF 7
ENDMDL
MODEL 2
REMARK VINA RESULT:    -8.356      2.220      2.598
REMARK INTER + INTRA:         -12.685
REMARK INTER:                 -11.953
REMARK INTRA:                  -0.732
REMARK UNBOUND:                -0.910
REMARK  Name = 
REMARK  8 active torsions:
REMARK  status: ('A' for Active; 'I' for Inactive)
REMARK    1  A    between atoms: C_1  and  C_2
REMARK    2  A    between atoms: C_2  and  N_3
REMARK    3  A    between atoms: C_2  and  C_25
REMARK    4  A    between atoms: N_3  and  C_4
REMARK    5  A    between atoms: C_4  and  C_5
REMARK    6  A    between atoms: C_8  and  C_9
REMARK    7  A    between atoms: C_9  and  N_10
REMARK    8  A    between atoms: C_11  and  C_13
REMARK                            x       y       z     vdW  Elec       q    Type
REMARK                         _______ _______ _______ _____ _____    ______ ____
ROOT
ATOM      1  C   UNL     1      45.595   4.422  12.246  0.00  0.00    +0.000 A 
ATOM      2  C   UNL     1      45.848   5.659  11.648  0.00  0.00    +0.000 A 
ATOM      3  C   UNL     1      46.833   6.495  12.169  0.00  0.00    +0.000 A 
ATOM      4  C   UNL     1      47.558   6.069  13.279  0.00  0.00    +0.000 A 
ATOM      5  N   UNL     1      47.327   4.876  13.883  0.00  0.00    +0.000 NA
ATOM      6  C   UNL     1      46.362   4.088  13.355  0.00  0.00    +0.000 A 
ENDROOT
BRANCH   1   7
ATOM      7  C   UNL     1      44.471   3.538  11.780  0.00  0.00    +0.000 C 
BRANCH   7   8
ATOM      8  N   UNL     1      44.923   2.535  10.815  0.00  0.00    +0.000 NA
ATOM      9  H   UNL     1      44.540   1.629  11.092  0.00  0.00    +0.000 HD
BRANCH   8  11
ATOM     10  C   UNL     1      43.990   4.264   9.254  0.00  0.00    +0.000 C 
ATOM     11  C   UNL     1      44.444   2.809   9.442  0.00  0.00    +0.000 C 
BRANCH  11  12
ATOM     12  C   UNL     1      45.517   2.448   8.413  0.00  0.00    +0.000 A 
ATOM     13  C   UNL     1      45.992   3.394   7.504  0.00  0.00    +0.000 A 
ATOM     14  C   UNL     1      46.986   3.030   6.600  0.00  0.00    +0.000 A 
ATOM     15  C   UNL     1      47.486   1.734   6.626  0.00  0.00    +0.000 A 
ATOM     16  C   UNL     1      46.966   0.855   7.557  0.00  0.00    +0.000 A 
ATOM     17  N   UNL     1      46.000   1.177   8.446  0.00  0.00    +0.000 NA
ENDBRANCH  11  12
ENDBRANCH   8  11
ENDBRANCH   7   8
ENDBRANCH   1   7
BRANCH   4  18
ATOM     18  C   UNL     1      48.592   6.977  13.904  0.00  0.00    +0.000 C 
BRANCH  18  19
ATOM     19  N   UNL     1      48.408   7.071  15.337  0.00  0.00    +0.000 N 
ATOM     20  C   UNL     1      49.406   6.750  16.219  0.00  0.00    +0.000 C 
ATOM     21  O   UNL     1      50.530   6.432  15.840  0.00  0.00    +0.000 OA
ATOM     22  H   UNL     1      47.443   7.100  15.653  0.00  0.00    +0.000 HD
BRANCH  20  23
ATOM     23  C   UNL     1      49.094   6.879  17.647  0.00  0.00    +0.000 A 
ATOM     24  C   UNL     1      48.935   8.142  18.202  0.00  0.00    +0.000 A 
ATOM     25  S   UNL     1      48.518   8.119  19.855  0.00  0.00    +0.000 S 
ATOM     26  C   UNL     1      48.589   6.420  19.904  0.00  0.00    +0.000 A 
ATOM     27  N   UNL     1      48.351   5.744  21.059  0.00  0.00    +0.000 NA
ATOM     28  C   UNL     1      48.475   4.462  20.962  0.00  0.00    +0.000 A 
ATOM     29  N   UNL     1      48.808   3.796  19.813  0.00  0.00    +0.000 N 
ATOM     30  C   UNL     1      49.026   4.433  18.615  0.00  0.00    +0.000 A 
ATOM     31  O   UNL     1      49.280   3.805  17.593  0.00  0.00    +0.000 OA
ATOM     32  C   UNL     1      48.911   5.878  18.671  0.00  0.00    +0.000 A 
ATOM     33  H   UNL     1      48.886   2.789  19.802  0.00  0.00    +0.000 HD
ENDBRANCH  20  23
ENDBRANCH  18  19
ENDBRANCH   4  18
TORSDOF 7
ENDMDL
MODEL 3
REMARK VINA RESULT:    -8.287      2.629      3.923
REMARK INTER + INTRA:         -12.588
REMARK INTER:                 -11.587
REMARK INTRA:                  -1.001
REMARK UNBOUND:                -0.910
REMARK  Name = 
REMARK  8 active torsions:
REMARK  status: ('A' for Active; 'I' for Inactive)
REMARK    1  A    between atoms: C_1  and  C_2
REMARK    2  A    between atoms: C_2  and  N_3
REMARK    3  A    between atoms: C_2  and  C_25
REMARK    4  A    between atoms: N_3  and  C_4
REMARK    5  A    between atoms: C_4  and  C_5
REMARK    6  A    between atoms: C_8  and  C_9
REMARK    7  A    between atoms: C_9  and  N_10
REMARK    8  A    between atoms: C_11  and  C_13
REMARK                            x       y       z     vdW  Elec       q    Type
REMARK                         _______ _______ _______ _____ _____    ______ ____
ROOT
ATOM      1  C   UNL     1      45.616   4.462  12.292  0.00  0.00    +0.000 A 
ATOM      2  C   UNL     1      45.911   5.746  11.828  0.00  0.00    +0.000 A 
ATOM      3  C   UNL     1      46.880   6.513  12.472  0.00  0.00    +0.000 A 
ATOM      4  C   UNL     1      47.547   5.971  13.569  0.00  0.00    +0.000 A 
ATOM      5  N   UNL     1      47.275   4.729  14.043  0.00  0.00    +0.000 NA
ATOM      6  C   UNL     1      46.326   4.011  13.397  0.00  0.00    +0.000 A 
ENDROOT
BRANCH   1   7
ATOM      7  C   UNL     1      44.506   3.644  11.691  0.00  0.00    +0.000 C 
BRANCH   7   8
ATOM      8  N   UNL     1      45.008   2.636  10.758  0.00  0.00    +0.000 NA
ATOM      9  H   UNL     1      44.647   1.724  11.048  0.00  0.00    +0.000 HD
BRANCH   8  11
ATOM     10  C   UNL     1      44.124   4.319   9.121  0.00  0.00    +0.000 C 
ATOM     11  C   UNL     1      44.548   2.864   9.370  0.00  0.00    +0.000 C 
BRANCH  11  12
ATOM     12  C   UNL     1      45.624   2.443   8.368  0.00  0.00    +0.000 A 
ATOM     13  C   UNL     1      46.169   3.360   7.467  0.00  0.00    +0.000 A 
ATOM     14  C   UNL     1      47.163   2.941   6.587  0.00  0.00    +0.000 A 
ATOM     15  C   UNL     1      47.594   1.621   6.628  0.00  0.00    +0.000 A 
ATOM     16  C   UNL     1      47.007   0.773   7.549  0.00  0.00    +0.000 A 
ATOM     17  N   UNL     1      46.038   1.149   8.415  0.00  0.00    +0.000 NA
ENDBRANCH  11  12
ENDBRANCH   8  11
ENDBRANCH   7   8
ENDBRANCH   1   7
BRANCH   4  18
ATOM     18  C   UNL     1      48.561   6.799  14.325  0.00  0.00    +0.000 C 
BRANCH  18  19
ATOM     19  N   UNL     1      48.251   6.840  15.739  0.00  0.00    +0.000 N 
ATOM     20  C   UNL     1      49.107   6.341  16.684  0.00  0.00    +0.000 C 
ATOM     21  O   UNL     1      50.213   5.894  16.388  0.00  0.00    +0.000 OA
ATOM     22  H   UNL     1      47.271   6.982  15.968  0.00  0.00    +0.000 HD
BRANCH  20  23
ATOM     23  C   UNL     1      48.677   6.435  18.084  0.00  0.00    +0.000 A 
ATOM     24  C   UNL     1      48.742   5.311  18.897  0.00  0.00    +0.000 A 
ATOM     25  S   UNL     1      48.263   5.599  20.508  0.00  0.00    +0.000 S 
ATOM     26  C   UNL     1      47.898   7.226  20.164  0.00  0.00    +0.000 A 
ATOM     27  N   UNL     1      47.409   8.051  21.128  0.00  0.00    +0.000 NA
ATOM     28  C   UNL     1      47.142   9.246  20.720  0.00  0.00    +0.000 A 
ATOM     29  N   UNL     1      47.326   9.693  19.438  0.00  0.00    +0.000 N 
ATOM     30  C   UNL     1      47.846   8.905  18.439  0.00  0.00    +0.000 A 
ATOM     31  O   UNL     1      48.040   9.347  17.312  0.00  0.00    +0.000 OA
ATOM     32  C   UNL     1      48.154   7.546  18.842  0.00  0.00    +0.000 A 
ATOM     33  H   UNL     1      47.100  10.643  19.184  0.00  0.00    +0.000 HD
ENDBRANCH  20  23
ENDBRANCH  18  19
ENDBRANCH   4  18
TORSDOF 7
ENDMDL
MODEL 4
REMARK VINA RESULT:    -7.526      3.706      8.874
REMARK INTER + INTRA:         -11.515
REMARK INTER:                  -9.978
REMARK INTRA:                  -1.537
REMARK UNBOUND:                -0.910
REMARK  Name = 
REMARK  8 active torsions:
REMARK  status: ('A' for Active; 'I' for Inactive)
REMARK    1  A    between atoms: C_1  and  C_2
REMARK    2  A    between atoms: C_2  and  N_3
REMARK    3  A    between atoms: C_2  and  C_25
REMARK    4  A    between atoms: N_3  and  C_4
REMARK    5  A    between atoms: C_4  and  C_5
REMARK    6  A    between atoms: C_8  and  C_9
REMARK    7  A    between atoms: C_9  and  N_10
REMARK    8  A    between atoms: C_11  and  C_13
REMARK                            x       y       z     vdW  Elec       q    Type
REMARK                         _______ _______ _______ _____ _____    ______ ____
ROOT
ATOM      1  C   UNL     1      48.673   8.031  16.085  0.00  0.00    +0.000 A 
ATOM      2  C   UNL     1      48.773   6.810  15.414  0.00  0.00    +0.000 A 
ATOM      3  C   UNL     1      48.413   6.723  14.072  0.00  0.00    +0.000 A 
ATOM      4  C   UNL     1      47.966   7.869  13.419  0.00  0.00    +0.000 A 
ATOM      5  N   UNL     1      47.854   9.066  14.049  0.00  0.00    +0.000 NA
ATOM      6  C   UNL     1      48.209   9.117  15.354  0.00  0.00    +0.000 A 
ENDROOT
BRANCH   1   7
ATOM      7  C   UNL     1      48.952   8.144  17.559  0.00  0.00    +0.000 C 
BRANCH   7   8
ATOM      8  N   UNL     1      47.876   7.573  18.369  0.00  0.00    +0.000 NA
ATOM      9  H   UNL     1      47.169   7.192  17.737  0.00  0.00    +0.000 HD
BRANCH   8  11
ATOM     10  C   UNL     1      47.503   6.316  20.507  0.00  0.00    +0.000 C 
ATOM     11  C   UNL     1      48.338   6.460  19.227  0.00  0.00    +0.000 C 
BRANCH  11  12
ATOM     12  C   UNL     1      48.348   5.144  18.447  0.00  0.00    +0.000 A 
ATOM     13  C   UNL     1      49.513   4.385  18.328  0.00  0.00    +0.000 A 
ATOM     14  C   UNL     1      49.472   3.182  17.628  0.00  0.00    +0.000 A 
ATOM     15  C   UNL     1      48.272   2.762  17.068  0.00  0.00    +0.000 A 
ATOM     16  C   UNL     1      47.162   3.568  17.230  0.00  0.00    +0.000 A 
ATOM     17  N   UNL     1      47.169   4.742  17.901  0.00  0.00    +0.000 NA
ENDBRANCH  11  12
ENDBRANCH   8  11
ENDBRANCH   7   8
ENDBRANCH   1   7
BRANCH   4  18
ATOM     18  C   UNL     1      47.512   7.795  11.979  0.00  0.00    +0.000 C 
BRANCH  18  19
ATOM     19  N   UNL     1      46.838   6.543  11.708  0.00  0.00    +0.000 N 
ATOM     20  C   UNL     1      45.472   6.439  11.714  0.00  0.00    +0.000 C 
ATOM     21  O   UNL     1      44.747   7.416  11.881  0.00  0.00    +0.000 OA
ATOM     22  H   UNL     1      47.410   5.708  11.803  0.00  0.00    +0.000 HD
BRANCH  20  23
ATOM     23  C   UNL     1      44.907   5.113  11.432  0.00  0.00    +0.000 A 
ATOM     24  C   UNL     1      44.193   4.448  12.420  0.00  0.00    +0.000 A 
ATOM     25  S   UNL     1      43.555   2.951  11.917  0.00  0.00    +0.000 S 
ATOM     26  C   UNL     1      44.255   3.110  10.374  0.00  0.00    +0.000 A 
ATOM     27  N   UNL     1      44.108   2.137   9.436  0.00  0.00    +0.000 NA
ATOM     28  C   UNL     1      44.723   2.371   8.325  0.00  0.00    +0.000 A 
ATOM     29  N   UNL     1      45.465   3.492   8.065  0.00  0.00    +0.000 N 
ATOM     30  C   UNL     1      45.616   4.516   8.970  0.00  0.00    +0.000 A 
ATOM     31  O   UNL     1      46.251   5.527   8.692  0.00  0.00    +0.000 OA
ATOM     32  C   UNL     1      44.954   4.298  10.242  0.00  0.00    +0.000 A 
ATOM     33  H   UNL     1      45.919   3.617   7.172  0.00  0.00    +0.000 HD
ENDBRANCH  20  23
ENDBRANCH  18  19
ENDBRANCH   4  18
TORSDOF 7
ENDMDL
MODEL 5
REMARK VINA RESULT:    -7.294      3.803      9.725
REMARK INTER + INTRA:         -11.188
REMARK INTER:                 -10.201
REMARK INTRA:                  -0.987
REMARK UNBOUND:                -0.910
REMARK  Name = 
REMARK  8 active torsions:
REMARK  status: ('A' for Active; 'I' for Inactive)
REMARK    1  A    between atoms: C_1  and  C_2
REMARK    2  A    between atoms: C_2  and  N_3
REMARK    3  A    between atoms: C_2  and  C_25
REMARK    4  A    between atoms: N_3  and  C_4
REMARK    5  A    between atoms: C_4  and  C_5
REMARK    6  A    between atoms: C_8  and  C_9
REMARK    7  A    between atoms: C_9  and  N_10
REMARK    8  A    between atoms: C_11  and  C_13
REMARK                            x       y       z     vdW  Elec       q    Type
REMARK                         _______ _______ _______ _____ _____    ______ ____
ROOT
ATOM      1  C   UNL     1      51.315   3.666  17.801  0.00  0.00    +0.000 A 
ATOM      2  C   UNL     1      50.793   2.435  17.395  0.00  0.00    +0.000 A 
ATOM      3  C   UNL     1      49.445   2.328  17.062  0.00  0.00    +0.000 A 
ATOM      4  C   UNL     1      48.642   3.464  17.131  0.00  0.00    +0.000 A 
ATOM      5  N   UNL     1      49.123   4.670  17.527  0.00  0.00    +0.000 NA
ATOM      6  C   UNL     1      50.436   4.741  17.847  0.00  0.00    +0.000 A 
ENDROOT
BRANCH   1   7
ATOM      7  C   UNL     1      52.738   3.802  18.269  0.00  0.00    +0.000 C 
BRANCH   7   8
ATOM      8  N   UNL     1      53.085   2.797  19.274  0.00  0.00    +0.000 NA
ATOM      9  H   UNL     1      52.494   1.977  19.124  0.00  0.00    +0.000 HD
BRANCH   8  11
ATOM     10  C   UNL     1      55.206   2.318  20.525  0.00  0.00    +0.000 C 
ATOM     11  C   UNL     1      54.490   2.346  19.167  0.00  0.00    +0.000 C 
BRANCH  11  12
ATOM     12  C   UNL     1      54.567   0.973  18.496  0.00  0.00    +0.000 A 
ATOM     13  C   UNL     1      54.592   0.851  17.106  0.00  0.00    +0.000 A 
ATOM     14  C   UNL     1      54.685  -0.416  16.536  0.00  0.00    +0.000 A 
ATOM     15  C   UNL     1      54.757  -1.530  17.364  0.00  0.00    +0.000 A 
ATOM     16  C   UNL     1      54.728  -1.327  18.731  0.00  0.00    +0.000 A 
ATOM     17  N   UNL     1      54.636  -0.110  19.315  0.00  0.00    +0.000 NA
ENDBRANCH  11  12
ENDBRANCH   8  11
ENDBRANCH   7   8
ENDBRANCH   1   7
BRANCH   4  18
ATOM     18  C   UNL     1      47.163   3.368  16.833  0.00  0.00    +0.000 C 
BRANCH  18  19
ATOM     19  N   UNL     1      46.762   4.358  15.856  0.00  0.00    +0.000 N 
ATOM     20  C   UNL     1      46.853   4.126  14.509  0.00  0.00    +0.000 C 
ATOM     21  O   UNL     1      47.214   3.042  14.059  0.00  0.00    +0.000 OA
ATOM     22  H   UNL     1      46.691   5.311  16.202  0.00  0.00    +0.000 HD
BRANCH  20  23
ATOM     23  C   UNL     1      46.421   5.211  13.619  0.00  0.00    +0.000 A 
ATOM     24  C   UNL     1      47.284   6.267  13.358  0.00  0.00    +0.000 A 
ATOM     25  S   UNL     1      46.658   7.412  12.262  0.00  0.00    +0.000 S 
ATOM     26  C   UNL     1      45.186   6.567  12.138  0.00  0.00    +0.000 A 
ATOM     27  N   UNL     1      44.177   7.033  11.355  0.00  0.00    +0.000 NA
ATOM     28  C   UNL     1      43.105   6.314  11.383  0.00  0.00    +0.000 A 
ATOM     29  N   UNL     1      42.954   5.167  12.118  0.00  0.00    +0.000 N 
ATOM     30  C   UNL     1      43.957   4.641  12.898  0.00  0.00    +0.000 A 
ATOM     31  O   UNL     1      43.805   3.589  13.509  0.00  0.00    +0.000 OA
ATOM     32  C   UNL     1      45.181   5.419  12.911  0.00  0.00    +0.000 A 
ATOM     33  H   UNL     1      42.090   4.647  12.093  0.00  0.00    +0.000 HD
ENDBRANCH  20  23
ENDBRANCH  18  19
ENDBRANCH   4  18
TORSDOF 7
ENDMDL
MODEL 6
REMARK VINA RESULT:    -6.878      1.719      2.455
REMARK INTER + INTRA:         -10.602
REMARK INTER:                  -9.967
REMARK INTRA:                  -0.636
REMARK UNBOUND:                -0.910
REMARK  Name = 
REMARK  8 active torsions:
REMARK  status: ('A' for Active; 'I' for Inactive)
REMARK    1  A    between atoms: C_1  and  C_2
REMARK    2  A    between atoms: C_2  and  N_3
REMARK    3  A    between atoms: C_2  and  C_25
REMARK    4  A    between atoms: N_3  and  C_4
REMARK    5  A    between atoms: C_4  and  C_5
REMARK    6  A    between atoms: C_8  and  C_9
REMARK    7  A    between atoms: C_9  and  N_10
REMARK    8  A    between atoms: C_11  and  C_13
REMARK                            x       y       z     vdW  Elec       q    Type
REMARK                         _______ _______ _______ _____ _____    ______ ____
ROOT
ATOM      1  C   UNL     1      47.083   5.538  13.378  0.00  0.00    +0.000 A 
ATOM      2  C   UNL     1      46.689   4.445  14.154  0.00  0.00    +0.000 A 
ATOM      3  C   UNL     1      47.153   4.317  15.461  0.00  0.00    +0.000 A 
ATOM      4  C   UNL     1      47.998   5.298  15.975  0.00  0.00    +0.000 A 
ATOM      5  N   UNL     1      48.400   6.367  15.240  0.00  0.00    +0.000 NA
ATOM      6  C   UNL     1      47.935   6.461  13.972  0.00  0.00    +0.000 A 
ENDROOT
BRANCH   1   7
ATOM      7  C   UNL     1      46.690   5.659  11.931  0.00  0.00    +0.000 C 
BRANCH   7   8
ATOM      8  N   UNL     1      45.326   6.161  11.771  0.00  0.00    +0.000 NA
ATOM      9  H   UNL     1      45.309   6.786  10.962  0.00  0.00    +0.000 HD
BRANCH   8  11
ATOM     10  C   UNL     1      42.918   5.612  11.329  0.00  0.00    +0.000 C 
ATOM     11  C   UNL     1      44.348   5.082  11.508  0.00  0.00    +0.000 C 
BRANCH  11  12
ATOM     12  C   UNL     1      44.768   4.259  10.289  0.00  0.00    +0.000 A 
ATOM     13  C   UNL     1      45.347   4.865   9.173  0.00  0.00    +0.000 A 
ATOM     14  C   UNL     1      45.735   4.075   8.094  0.00  0.00    +0.000 A 
ATOM     15  C   UNL     1      45.543   2.701   8.154  0.00  0.00    +0.000 A 
ATOM     16  C   UNL     1      44.964   2.174   9.294  0.00  0.00    +0.000 A 
ATOM     17  N   UNL     1      44.574   2.914  10.357  0.00  0.00    +0.000 NA
ENDBRANCH  11  12
ENDBRANCH   8  11
ENDBRANCH   7   8
ENDBRANCH   1   7
BRANCH   4  18
ATOM     18  C   UNL     1      48.565   5.158  17.369  0.00  0.00    +0.000 C 
BRANCH  18  19
ATOM     19  N   UNL     1      49.911   4.628  17.334  0.00  0.00    +0.000 N 
ATOM     20  C   UNL     1      50.625   4.386  18.477  0.00  0.00    +0.000 C 
ATOM     21  O   UNL     1      50.137   4.542  19.593  0.00  0.00    +0.000 OA
ATOM     22  H   UNL     1      50.395   4.719  16.445  0.00  0.00    +0.000 HD
BRANCH  20  23
ATOM     23  C   UNL     1      51.983   3.854  18.311  0.00  0.00    +0.000 A 
ATOM     24  C   UNL     1      53.076   4.665  18.589  0.00  0.00    +0.000 A 
ATOM     25  S   UNL     1      54.578   3.882  18.403  0.00  0.00    +0.000 S 
ATOM     26  C   UNL     1      53.826   2.445  17.890  0.00  0.00    +0.000 A 
ATOM     27  N   UNL     1      54.562   1.356  17.544  0.00  0.00    +0.000 NA
ATOM     28  C   UNL     1      53.865   0.348  17.138  0.00  0.00    +0.000 A 
ATOM     29  N   UNL     1      52.498   0.328  17.054  0.00  0.00    +0.000 N 
ATOM     30  C   UNL     1      51.710   1.393  17.423  0.00  0.00    +0.000 A 
ATOM     31  O   UNL     1      50.487   1.329  17.378  0.00  0.00    +0.000 OA
ATOM     32  C   UNL     1      52.446   2.558  17.876  0.00  0.00    +0.000 A 
ATOM     33  H   UNL     1      52.010  -0.495  16.732  0.00  0.00    +0.000 HD
ENDBRANCH  20  23
ENDBRANCH  18  19
ENDBRANCH   4  18
TORSDOF 7
ENDMDL
MODEL 7
REMARK VINA RESULT:    -6.811      2.894      3.348
REMARK INTER + INTRA:         -10.507
REMARK INTER:                  -9.110
REMARK INTRA:                  -1.397
REMARK UNBOUND:                -0.910
REMARK  Name = 
REMARK  8 active torsions:
REMARK  status: ('A' for Active; 'I' for Inactive)
REMARK    1  A    between atoms: C_1  and  C_2
REMARK    2  A    between atoms: C_2  and  N_3
REMARK    3  A    between atoms: C_2  and  C_25
REMARK    4  A    between atoms: N_3  and  C_4
REMARK    5  A    between atoms: C_4  and  C_5
REMARK    6  A    between atoms: C_8  and  C_9
REMARK    7  A    between atoms: C_9  and  N_10
REMARK    8  A    between atoms: C_11  and  C_13
REMARK                            x       y       z     vdW  Elec       q    Type
REMARK                         _______ _______ _______ _____ _____    ______ ____
ROOT
ATOM      1  C   UNL     1      45.927   5.219  13.165  0.00  0.00    +0.000 A 
ATOM      2  C   UNL     1      45.883   6.519  12.654  0.00  0.00    +0.000 A 
ATOM      3  C   UNL     1      46.991   7.353  12.781  0.00  0.00    +0.000 A 
ATOM      4  C   UNL     1      48.133   6.864  13.412  0.00  0.00    +0.000 A 
ATOM      5  N   UNL     1      48.198   5.609  13.923  0.00  0.00    +0.000 NA
ATOM      6  C   UNL     1      47.104   4.823  13.786  0.00  0.00    +0.000 A 
ENDROOT
BRANCH   1   7
ATOM      7  C   UNL     1      44.718   4.324  13.142  0.00  0.00    +0.000 C 
BRANCH   7   8
ATOM      8  N   UNL     1      44.917   3.153  12.288  0.00  0.00    +0.000 NA
ATOM      9  H   UNL     1      44.687   2.318  12.831  0.00  0.00    +0.000 HD
BRANCH   8  11
ATOM     10  C   UNL     1      43.008   4.300  11.132  0.00  0.00    +0.000 C 
ATOM     11  C   UNL     1      44.032   3.157  11.101  0.00  0.00    +0.000 C 
BRANCH  11  12
ATOM     12  C   UNL     1      44.856   3.214   9.814  0.00  0.00    +0.000 A 
ATOM     13  C   UNL     1      45.234   4.434   9.252  0.00  0.00    +0.000 A 
ATOM     14  C   UNL     1      46.003   4.441   8.092  0.00  0.00    +0.000 A 
ATOM     15  C   UNL     1      46.383   3.232   7.522  0.00  0.00    +0.000 A 
ATOM     16  C   UNL     1      45.971   2.065   8.137  0.00  0.00    +0.000 A 
ATOM     17  N   UNL     1      45.222   2.025   9.263  0.00  0.00    +0.000 NA
ENDBRANCH  11  12
ENDBRANCH   8  11
ENDBRANCH   7   8
ENDBRANCH   1   7
BRANCH   4  18
ATOM     18  C   UNL     1      49.330   7.764  13.618  0.00  0.00    +0.000 C 
BRANCH  18  19
ATOM     19  N   UNL     1      49.500   8.093  15.017  0.00  0.00    +0.000 N 
ATOM     20  C   UNL     1      50.684   7.882  15.673  0.00  0.00    +0.000 C 
ATOM     21  O   UNL     1      51.684   7.466  15.092  0.00  0.00    +0.000 OA
ATOM     22  H   UNL     1      48.642   8.209  15.548  0.00  0.00    +0.000 HD
BRANCH  20  23
ATOM     23  C   UNL     1      50.730   8.251  17.093  0.00  0.00    +0.000 A 
ATOM     24  C   UNL     1      51.651   9.196  17.526  0.00  0.00    +0.000 A 
ATOM     25  S   UNL     1      51.537   9.556  19.188  0.00  0.00    +0.000 S 
ATOM     26  C   UNL     1      50.287   8.422  19.403  0.00  0.00    +0.000 A 
ATOM     27  N   UNL     1      49.737   8.212  20.628  0.00  0.00    +0.000 NA
ATOM     28  C   UNL     1      48.826   7.297  20.654  0.00  0.00    +0.000 A 
ATOM     29  N   UNL     1      48.411   6.579  19.563  0.00  0.00    +0.000 N 
ATOM     30  C   UNL     1      48.916   6.778  18.300  0.00  0.00    +0.000 A 
ATOM     31  O   UNL     1      48.492   6.149  17.337  0.00  0.00    +0.000 OA
ATOM     32  C   UNL     1      49.953   7.788  18.218  0.00  0.00    +0.000 A 
ATOM     33  H   UNL     1      47.689   5.878  19.649  0.00  0.00    +0.000 HD
ENDBRANCH  20  23
ENDBRANCH  18  19
ENDBRANCH   4  18
TORSDOF 7
ENDMDL
MODEL 8
REMARK VINA RESULT:    -6.797      3.807      8.345
REMARK INTER + INTRA:         -10.488
REMARK INTER:                  -9.292
REMARK INTRA:                  -1.196
REMARK UNBOUND:                -0.910
REMARK  Name = 
REMARK  8 active torsions:
REMARK  status: ('A' for Active; 'I' for Inactive)
REMARK    1  A    between atoms: C_1  and  C_2
REMARK    2  A    between atoms: C_2  and  N_3
REMARK    3  A    between atoms: C_2  and  C_25
REMARK    4  A    between atoms: N_3  and  C_4
REMARK    5  A    between atoms: C_4  and  C_5
REMARK    6  A    between atoms: C_8  and  C_9
REMARK    7  A    between atoms: C_9  and  N_10
REMARK    8  A    between atoms: C_11  and  C_13
REMARK                            x       y       z     vdW  Elec       q    Type
REMARK                         _______ _______ _______ _____ _____    ______ ____
ROOT
ATOM      1  C   UNL     1      49.560   7.654  17.924  0.00  0.00    +0.000 A 
ATOM      2  C   UNL     1      50.564   6.984  17.222  0.00  0.00    +0.000 A 
ATOM      3  C   UNL     1      50.571   7.005  15.829  0.00  0.00    +0.000 A 
ATOM      4  C   UNL     1      49.571   7.710  15.162  0.00  0.00    +0.000 A 
ATOM      5  N   UNL     1      48.581   8.364  15.821  0.00  0.00    +0.000 NA
ATOM      6  C   UNL     1      48.601   8.322  17.173  0.00  0.00    +0.000 A 
ENDROOT
BRANCH   1   7
ATOM      7  C   UNL     1      49.457   7.569  19.423  0.00  0.00    +0.000 C 
BRANCH   7   8
ATOM      8  N   UNL     1      49.737   6.222  19.918  0.00  0.00    +0.000 NA
ATOM      9  H   UNL     1      50.117   6.302  20.864  0.00  0.00    +0.000 HD
BRANCH   8  11
ATOM     10  C   UNL     1      47.257   6.206  20.299  0.00  0.00    +0.000 C 
ATOM     11  C   UNL     1      48.521   5.384  20.009  0.00  0.00    +0.000 C 
BRANCH  11  12
ATOM     12  C   UNL     1      48.338   4.559  18.733  0.00  0.00    +0.000 A 
ATOM     13  C   UNL     1      47.244   4.765  17.892  0.00  0.00    +0.000 A 
ATOM     14  C   UNL     1      47.128   4.007  16.729  0.00  0.00    +0.000 A 
ATOM     15  C   UNL     1      48.106   3.067  16.430  0.00  0.00    +0.000 A 
ATOM     16  C   UNL     1      49.160   2.922  17.313  0.00  0.00    +0.000 A 
ATOM     17  N   UNL     1      49.300   3.640  18.450  0.00  0.00    +0.000 NA
ENDBRANCH  11  12
ENDBRANCH   8  11
ENDBRANCH   7   8
ENDBRANCH   1   7
BRANCH   4  18
ATOM     18  C   UNL     1      49.516   7.703  13.651  0.00  0.00    +0.000 C 
BRANCH  18  19
ATOM     19  N   UNL     1      48.167   7.474  13.179  0.00  0.00    +0.000 N 
ATOM     20  C   UNL     1      47.665   6.212  13.001  0.00  0.00    +0.000 C 
ATOM     21  O   UNL     1      48.309   5.209  13.298  0.00  0.00    +0.000 OA
ATOM     22  H   UNL     1      47.725   8.265  12.719  0.00  0.00    +0.000 HD
BRANCH  20  23
ATOM     23  C   UNL     1      46.285   6.111  12.511  0.00  0.00    +0.000 A 
ATOM     24  C   UNL     1      45.635   7.251  12.055  0.00  0.00    +0.000 A 
ATOM     25  S   UNL     1      44.063   6.956  11.466  0.00  0.00    +0.000 S 
ATOM     26  C   UNL     1      44.172   5.302  11.850  0.00  0.00    +0.000 A 
ATOM     27  N   UNL     1      43.130   4.460  11.615  0.00  0.00    +0.000 NA
ATOM     28  C   UNL     1      43.335   3.242  11.990  0.00  0.00    +0.000 A 
ATOM     29  N   UNL     1      44.490   2.787  12.570  0.00  0.00    +0.000 N 
ATOM     30  C   UNL     1      45.580   3.593  12.798  0.00  0.00    +0.000 A 
ATOM     31  O   UNL     1      46.615   3.147  13.280  0.00  0.00    +0.000 OA
ATOM     32  C   UNL     1      45.397   4.978  12.406  0.00  0.00    +0.000 A 
ATOM     33  H   UNL     1      44.589   1.819  12.837  0.00  0.00    +0.000 HD
ENDBRANCH  20  23
ENDBRANCH  18  19
ENDBRANCH   4  18
TORSDOF 7
ENDMDL
MODEL 9
REMARK VINA RESULT:    -6.795      1.696      2.182
REMARK INTER + INTRA:         -10.485
REMARK INTER:                  -9.526
REMARK INTRA:                  -0.959
REMARK UNBOUND:                -0.910
REMARK  Name = 
REMARK  8 active torsions:
REMARK  status: ('A' for Active; 'I' for Inactive)
REMARK    1  A    between atoms: C_1  and  C_2
REMARK    2  A    between atoms: C_2  and  N_3
REMARK    3  A    between atoms: C_2  and  C_25
REMARK    4  A    between atoms: N_3  and  C_4
REMARK    5  A    between atoms: C_4  and  C_5
REMARK    6  A    between atoms: C_8  and  C_9
REMARK    7  A    between atoms: C_9  and  N_10
REMARK    8  A    between atoms: C_11  and  C_13
REMARK                            x       y       z     vdW  Elec       q    Type
REMARK                         _______ _______ _______ _____ _____    ______ ____
ROOT
ATOM      1  C   UNL     1      45.191   4.862  11.712  0.00  0.00    +0.000 A 
ATOM      2  C   UNL     1      45.755   4.693  12.979  0.00  0.00    +0.000 A 
ATOM      3  C   UNL     1      46.575   5.686  13.512  0.00  0.00    +0.000 A 
ATOM      4  C   UNL     1      46.805   6.840  12.768  0.00  0.00    +0.000 A 
ATOM      5  N   UNL     1      46.274   7.025  11.533  0.00  0.00    +0.000 NA
ATOM      6  C   UNL     1      45.485   6.042  11.041  0.00  0.00    +0.000 A 
ENDROOT
BRANCH   1   7
ATOM      7  C   UNL     1      44.388   3.772  11.057  0.00  0.00    +0.000 C 
BRANCH   7   8
ATOM      8  N   UNL     1      44.696   3.640   9.634  0.00  0.00    +0.000 NA
ATOM      9  H   UNL     1      45.421   4.321   9.399  0.00  0.00    +0.000 HD
BRANCH   8  11
ATOM     10  C   UNL     1      44.121   1.249   9.138  0.00  0.00    +0.000 C 
ATOM     11  C   UNL     1      45.227   2.303   9.287  0.00  0.00    +0.000 C 
BRANCH  11  12
ATOM     12  C   UNL     1      46.074   2.371   8.015  0.00  0.00    +0.000 A 
ATOM     13  C   UNL     1      46.066   3.506   7.203  0.00  0.00    +0.000 A 
ATOM     14  C   UNL     1      46.869   3.535   6.066  0.00  0.00    +0.000 A 
ATOM     15  C   UNL     1      47.664   2.436   5.768  0.00  0.00    +0.000 A 
ATOM     16  C   UNL     1      47.618   1.349   6.621  0.00  0.00    +0.000 A 
ATOM     17  N   UNL     1      46.848   1.289   7.730  0.00  0.00    +0.000 NA
ENDBRANCH  11  12
ENDBRANCH   8  11
ENDBRANCH   7   8
ENDBRANCH   1   7
BRANCH   4  18
ATOM     18  C   UNL     1      47.736   7.909  13.294  0.00  0.00    +0.000 C 
BRANCH  18  19
ATOM     19  N   UNL     1      48.867   7.323  13.982  0.00  0.00    +0.000 N 
ATOM     20  C   UNL     1      49.181   7.656  15.273  0.00  0.00    +0.000 C 
ATOM     21  O   UNL     1      48.481   8.416  15.937  0.00  0.00    +0.000 OA
ATOM     22  H   UNL     1      49.568   6.892  13.386  0.00  0.00    +0.000 HD
BRANCH  20  23
ATOM     23  C   UNL     1      50.356   6.999  15.860  0.00  0.00    +0.000 A 
ATOM     24  C   UNL     1      51.626   7.479  15.568  0.00  0.00    +0.000 A 
ATOM     25  S   UNL     1      52.877   6.647  16.372  0.00  0.00    +0.000 S 
ATOM     26  C   UNL     1      51.771   5.577  17.098  0.00  0.00    +0.000 A 
ATOM     27  N   UNL     1      52.199   4.578  17.915  0.00  0.00    +0.000 NA
ATOM     28  C   UNL     1      51.257   3.819  18.366  0.00  0.00    +0.000 A 
ATOM     29  N   UNL     1      49.926   3.973  18.081  0.00  0.00    +0.000 N 
ATOM     30  C   UNL     1      49.444   4.986  17.287  0.00  0.00    +0.000 A 
ATOM     31  O   UNL     1      48.242   5.124  17.085  0.00  0.00    +0.000 OA
ATOM     32  C   UNL     1      50.464   5.862  16.743  0.00  0.00    +0.000 A 
ATOM     33  H   UNL     1      49.237   3.346  18.470  0.00  0.00    +0.000 HD
ENDBRANCH  20  23
ENDBRANCH  18  19
ENDBRANCH   4  18
TORSDOF 7
ENDMDL
