MODEL 1
REMARK VINA RESULT:    -7.939      0.000      0.000
REMARK INTER + INTRA:         -11.508
REMARK INTER:                 -10.955
REMARK INTRA:                  -0.552
REMARK UNBOUND:                -0.552
REMARK  Name = 
REMARK  7 active torsions:
REMARK  status: ('A' for Active; 'I' for Inactive)
REMARK    1  A    between atoms: N_1  and  C_2
REMARK    2  A    between atoms: C_2  and  C_3
REMARK    3  A    between atoms: C_7  and  C_8
REMARK    4  A    between atoms: C_8  and  C_9
REMARK    5  A    between atoms: C_9  and  N_10
REMARK    6  A    between atoms: N_10  and  C_11
REMARK    7  A    between atoms: C_14  and  C_15
REMARK                            x       y       z     vdW  Elec       q    Type
REMARK                         _______ _______ _______ _____ _____    ______ ____
ROOT
ATOM      1  N   UNL     1      43.737   4.876   9.696  0.00  0.00    +0.000 N 
ATOM      2  H   UNL     1      44.089   5.828   9.613  0.00  0.00    +0.000 HD
ENDROOT
BRANCH   1   3
ATOM      3  C   UNL     1      44.571   3.952   9.042  0.00  0.00    +0.000 A 
ATOM      4  C   UNL     1      45.577   4.334   8.147  0.00  0.00    +0.000 A 
ATOM      5  C   UNL     1      46.422   3.384   7.573  0.00  0.00    +0.000 A 
ATOM      6  C   UNL     1      46.264   2.058   7.936  0.00  0.00    +0.000 A 
ATOM      7  N   UNL     1      45.333   1.627   8.832  0.00  0.00    +0.000 NA
ATOM      8  C   UNL     1      44.535   2.590   9.365  0.00  0.00    +0.000 A 
BRANCH   6   9
ATOM      9  C   UNL     1      47.168   1.025   7.340  0.00  0.00    +0.000 C 
ATOM     10  N   UNL     1      46.885  -0.270   7.677  0.00  0.00    +0.000 N 
ATOM     11  O   UNL     1      48.103   1.306   6.602  0.00  0.00    +0.000 OA
ATOM     12  H   UNL     1      46.119  -0.463   8.311  0.00  0.00    +0.000 HD
ATOM     13  H   UNL     1      47.479  -1.012   7.339  0.00  0.00    +0.000 HD
ENDBRANCH   6   9
ENDBRANCH   1   3
BRANCH   1  14
ATOM     14  C   UNL     1      43.329   4.545  11.069  0.00  0.00    +0.000 C 
BRANCH  14  15
ATOM     15  C   UNL     1      43.490   5.747  12.010  0.00  0.00    +0.000 C 
BRANCH  15  20
ATOM     16  C   UNL     1      46.755   5.247  13.931  0.00  0.00    +0.000 A 
ATOM     17  C   UNL     1      47.646   5.993  13.149  0.00  0.00    +0.000 A 
ATOM     18  C   UNL     1      47.189   6.689  12.031  0.00  0.00    +0.000 A 
ATOM     19  C   UNL     1      45.840   6.637  11.672  0.00  0.00    +0.000 A 
ATOM     20  C   UNL     1      44.933   5.895  12.438  0.00  0.00    +0.000 A 
ATOM     21  C   UNL     1      45.401   5.209  13.569  0.00  0.00    +0.000 A 
BRANCH  16  22
ATOM     22  C   UNL     1      47.255   4.419  15.087  0.00  0.00    +0.000 C 
BRANCH  22  23
ATOM     23  N   UNL     1      47.581   3.070  14.641  0.00  0.00    +0.000 NA
ATOM     24  H   UNL     1      48.326   2.696  15.222  0.00  0.00    +0.000 HD
ATOM     25  H   UNL     1      47.946   3.116  13.691  0.00  0.00    +0.000 HD
ENDBRANCH  22  23
ENDBRANCH  16  22
ENDBRANCH  15  20
ENDBRANCH  14  15
ENDBRANCH   1  14
TORSDOF 7
ENDMDL
MODEL 2
REMARK VINA RESULT:    -7.791      1.849      2.399
REMARK INTER + INTRA:         -11.303
REMARK INTER:                 -10.648
REMARK INTRA:                  -0.655
REMARK UNBOUND:                -0.552
REMARK  Name = 
REMARK  7 active torsions:
REMARK  status: ('A' for Active; 'I' for Inactive)
REMARK    1  A    between atoms: N_1  and  C_2
REMARK    2  A    between atoms: C_2  and  C_3
REMARK    3  A    between atoms: C_7  and  C_8
REMARK    4  A    between atoms: C_8  and  C_9
REMARK    5  A    between atoms: C_9  and  N_10
REMARK    6  A    between atoms: N_10  and  C_11
REMARK    7  A    between atoms: C_14  and  C_15
REMARK                            x       y       z     vdW  Elec       q    Type
REMARK                         _______ _______ _______ _____ _____    ______ ____
ROOT
ATOM      1  N   UNL     1      43.668   4.700  10.058  0.00  0.00    +0.000 N 
ATOM      2  H   UNL     1      43.967   5.665  10.189  0.00  0.00    +0.000 HD
ENDROOT
BRANCH   1   3
ATOM      3  C   UNL     1      44.619   3.951   9.343  0.00  0.00    +0.000 A 
ATOM      4  C   UNL     1      44.714   2.557   9.430  0.00  0.00    +0.000 A 
ATOM      5  C   UNL     1      45.631   1.852   8.653  0.00  0.00    +0.000 A 
ATOM      6  C   UNL     1      46.424   2.562   7.766  0.00  0.00    +0.000 A 
ATOM      7  N   UNL     1      46.351   3.912   7.603  0.00  0.00    +0.000 NA
ATOM      8  C   UNL     1      45.441   4.553   8.383  0.00  0.00    +0.000 A 
BRANCH   6   9
ATOM      9  C   UNL     1      47.407   1.822   6.915  0.00  0.00    +0.000 C 
ATOM     10  N   UNL     1      48.485   2.551   6.491  0.00  0.00    +0.000 N 
ATOM     11  O   UNL     1      47.267   0.646   6.605  0.00  0.00    +0.000 OA
ATOM     12  H   UNL     1      48.554   3.529   6.745  0.00  0.00    +0.000 HD
ATOM     13  H   UNL     1      49.165   2.123   5.883  0.00  0.00    +0.000 HD
ENDBRANCH   6   9
ENDBRANCH   1   3
BRANCH   1  14
ATOM     14  C   UNL     1      43.144   4.101  11.294  0.00  0.00    +0.000 C 
BRANCH  14  15
ATOM     15  C   UNL     1      43.244   5.073  12.477  0.00  0.00    +0.000 C 
BRANCH  15  20
ATOM     16  C   UNL     1      46.432   7.083  13.109  0.00  0.00    +0.000 A 
ATOM     17  C   UNL     1      47.317   6.070  13.501  0.00  0.00    +0.000 A 
ATOM     18  C   UNL     1      46.901   4.740  13.521  0.00  0.00    +0.000 A 
ATOM     19  C   UNL     1      45.593   4.406  13.163  0.00  0.00    +0.000 A 
ATOM     20  C   UNL     1      44.690   5.403  12.771  0.00  0.00    +0.000 A 
ATOM     21  C   UNL     1      45.123   6.737  12.742  0.00  0.00    +0.000 A 
BRANCH  16  22
ATOM     22  C   UNL     1      46.845   8.530  13.171  0.00  0.00    +0.000 C 
BRANCH  22  23
ATOM     23  N   UNL     1      47.098   8.926  14.551  0.00  0.00    +0.000 NA
ATOM     24  H   UNL     1      46.466   8.420  15.166  0.00  0.00    +0.000 HD
ATOM     25  H   UNL     1      46.877   9.916  14.657  0.00  0.00    +0.000 HD
ENDBRANCH  22  23
ENDBRANCH  16  22
ENDBRANCH  15  20
ENDBRANCH  14  15
ENDBRANCH   1  14
TORSDOF 7
ENDMDL
MODEL 3
REMARK VINA RESULT:    -7.743      1.478      1.945
REMARK INTER + INTRA:         -11.238
REMARK INTER:                 -10.615
REMARK INTRA:                  -0.622
REMARK UNBOUND:                -0.552
REMARK  Name = 
REMARK  7 active torsions:
REMARK  status: ('A' for Active; 'I' for Inactive)
REMARK    1  A    between atoms: N_1  and  C_2
REMARK    2  A    between atoms: C_2  and  C_3
REMARK    3  A    between atoms: C_7  and  C_8
REMARK    4  A    between atoms: C_8  and  C_9
REMARK    5  A    between atoms: C_9  and  N_10
REMARK    6  A    between atoms: N_10  and  C_11
REMARK    7  A    between atoms: C_14  and  C_15
REMARK                            x       y       z     vdW  Elec       q    Type
REMARK                         _______ _______ _______ _____ _____    ______ ____
ROOT
ATOM      1  N   UNL     1      43.827   4.936   9.910  0.00  0.00    +0.000 N 
ATOM      2  H   UNL     1      44.322   5.813  10.060  0.00  0.00    +0.000 HD
ENDROOT
BRANCH   1   3
ATOM      3  C   UNL     1      44.613   4.005   9.210  0.00  0.00    +0.000 A 
ATOM      4  C   UNL     1      45.577   4.378   8.266  0.00  0.00    +0.000 A 
ATOM      5  C   UNL     1      46.378   3.421   7.644  0.00  0.00    +0.000 A 
ATOM      6  C   UNL     1      46.221   2.095   8.009  0.00  0.00    +0.000 A 
ATOM      7  N   UNL     1      45.332   1.672   8.950  0.00  0.00    +0.000 NA
ATOM      8  C   UNL     1      44.575   2.642   9.528  0.00  0.00    +0.000 A 
BRANCH   6   9
ATOM      9  C   UNL     1      47.079   1.054   7.362  0.00  0.00    +0.000 C 
ATOM     10  N   UNL     1      46.755  -0.243   7.655  0.00  0.00    +0.000 N 
ATOM     11  O   UNL     1      48.014   1.328   6.621  0.00  0.00    +0.000 OA
ATOM     12  H   UNL     1      45.991  -0.432   8.294  0.00  0.00    +0.000 HD
ATOM     13  H   UNL     1      47.317  -0.991   7.282  0.00  0.00    +0.000 HD
ENDBRANCH   6   9
ENDBRANCH   1   3
BRANCH   1  14
ATOM     14  C   UNL     1      43.154   4.456  11.126  0.00  0.00    +0.000 C 
BRANCH  14  15
ATOM     15  C   UNL     1      43.320   5.442  12.289  0.00  0.00    +0.000 C 
BRANCH  15  20
ATOM     16  C   UNL     1      46.732   6.940  13.137  0.00  0.00    +0.000 A 
ATOM     17  C   UNL     1      47.411   5.812  13.616  0.00  0.00    +0.000 A 
ATOM     18  C   UNL     1      46.786   4.566  13.627  0.00  0.00    +0.000 A 
ATOM     19  C   UNL     1      45.472   4.433  13.173  0.00  0.00    +0.000 A 
ATOM     20  C   UNL     1      44.774   5.548  12.692  0.00  0.00    +0.000 A 
ATOM     21  C   UNL     1      45.416   6.795  12.673  0.00  0.00    +0.000 A 
BRANCH  16  22
ATOM     22  C   UNL     1      47.366   8.305  13.205  0.00  0.00    +0.000 C 
BRANCH  22  23
ATOM     23  N   UNL     1      47.057   8.944  14.478  0.00  0.00    +0.000 NA
ATOM     24  H   UNL     1      46.260   8.477  14.902  0.00  0.00    +0.000 HD
ATOM     25  H   UNL     1      46.774   9.907  14.304  0.00  0.00    +0.000 HD
ENDBRANCH  22  23
ENDBRANCH  16  22
ENDBRANCH  15  20
ENDBRANCH  14  15
ENDBRANCH   1  14
TORSDOF 7
ENDMDL
MODEL 4
REMARK VINA RESULT:    -7.584      2.852      6.586
REMARK INTER + INTRA:         -11.019
REMARK INTER:                 -10.281
REMARK INTRA:                  -0.738
REMARK UNBOUND:                -0.552
REMARK  Name = 
REMARK  7 active torsions:
REMARK  status: ('A' for Active; 'I' for Inactive)
REMARK    1  A    between atoms: N_1  and  C_2
REMARK    2  A    between atoms: C_2  and  C_3
REMARK    3  A    between atoms: C_7  and  C_8
REMARK    4  A    between atoms: C_8  and  C_9
REMARK    5  A    between atoms: C_9  and  N_10
REMARK    6  A    between atoms: N_10  and  C_11
REMARK    7  A    between atoms: C_14  and  C_15
REMARK                            x       y       z     vdW  Elec       q    Type
REMARK                         _______ _______ _______ _____ _____    ______ ____
ROOT
ATOM      1  N   UNL     1      44.955   2.876  12.398  0.00  0.00    +0.000 N 
ATOM      2  H   UNL     1      45.472   2.047  12.113  0.00  0.00    +0.000 HD
ENDROOT
BRANCH   1   3
ATOM      3  C   UNL     1      45.812   3.909  12.815  0.00  0.00    +0.000 A 
ATOM      4  C   UNL     1      45.718   5.219  12.329  0.00  0.00    +0.000 A 
ATOM      5  C   UNL     1      46.549   6.225  12.821  0.00  0.00    +0.000 A 
ATOM      6  C   UNL     1      47.445   5.905  13.826  0.00  0.00    +0.000 A 
ATOM      7  N   UNL     1      47.556   4.662  14.371  0.00  0.00    +0.000 NA
ATOM      8  C   UNL     1      46.724   3.716  13.858  0.00  0.00    +0.000 A 
BRANCH   6   9
ATOM      9  C   UNL     1      48.338   6.973  14.375  0.00  0.00    +0.000 C 
ATOM     10  N   UNL     1      47.734   8.176  14.621  0.00  0.00    +0.000 N 
ATOM     11  O   UNL     1      49.530   6.799  14.590  0.00  0.00    +0.000 OA
ATOM     12  H   UNL     1      46.751   8.292  14.405  0.00  0.00    +0.000 HD
ATOM     13  H   UNL     1      48.287   8.950  14.956  0.00  0.00    +0.000 HD
ENDBRANCH   6   9
ENDBRANCH   1   3
BRANCH   1  14
ATOM     14  C   UNL     1      43.898   3.235  11.441  0.00  0.00    +0.000 C 
BRANCH  14  15
ATOM     15  C   UNL     1      43.919   2.320  10.209  0.00  0.00    +0.000 C 
BRANCH  15  20
ATOM     16  C   UNL     1      46.723   2.202   7.617  0.00  0.00    +0.000 A 
ATOM     17  C   UNL     1      46.826   3.554   7.268  0.00  0.00    +0.000 A 
ATOM     18  C   UNL     1      46.024   4.507   7.896  0.00  0.00    +0.000 A 
ATOM     19  C   UNL     1      45.101   4.119   8.869  0.00  0.00    +0.000 A 
ATOM     20  C   UNL     1      44.980   2.771   9.231  0.00  0.00    +0.000 A 
ATOM     21  C   UNL     1      45.800   1.822   8.603  0.00  0.00    +0.000 A 
BRANCH  16  22
ATOM     22  C   UNL     1      47.520   1.156   6.881  0.00  0.00    +0.000 C 
BRANCH  22  23
ATOM     23  N   UNL     1      48.275   1.766   5.794  0.00  0.00    +0.000 NA
ATOM     24  H   UNL     1      48.057   1.287   4.924  0.00  0.00    +0.000 HD
ATOM     25  H   UNL     1      49.270   1.625   5.963  0.00  0.00    +0.000 HD
ENDBRANCH  22  23
ENDBRANCH  16  22
ENDBRANCH  15  20
ENDBRANCH  14  15
ENDBRANCH   1  14
TORSDOF 7
ENDMDL
MODEL 5
REMARK VINA RESULT:    -7.015      1.827      2.385
REMARK INTER + INTRA:         -10.232
REMARK INTER:                  -9.649
REMARK INTRA:                  -0.584
REMARK UNBOUND:                -0.552
REMARK  Name = 
REMARK  7 active torsions:
REMARK  status: ('A' for Active; 'I' for Inactive)
REMARK    1  A    between atoms: N_1  and  C_2
REMARK    2  A    between atoms: C_2  and  C_3
REMARK    3  A    between atoms: C_7  and  C_8
REMARK    4  A    between atoms: C_8  and  C_9
REMARK    5  A    between atoms: C_9  and  N_10
REMARK    6  A    between atoms: N_10  and  C_11
REMARK    7  A    between atoms: C_14  and  C_15
REMARK                            x       y       z     vdW  Elec       q    Type
REMARK                         _______ _______ _______ _____ _____    ______ ____
ROOT
ATOM      1  N   UNL     1      43.677   4.216  10.446  0.00  0.00    +0.000 N 
ATOM      2  H   UNL     1      42.704   4.103  10.168  0.00  0.00    +0.000 HD
ENDROOT
BRANCH   1   3
ATOM      3  C   UNL     1      44.557   3.643   9.512  0.00  0.00    +0.000 A 
ATOM      4  C   UNL     1      45.318   4.404   8.616  0.00  0.00    +0.000 A 
ATOM      5  C   UNL     1      46.226   3.794   7.751  0.00  0.00    +0.000 A 
ATOM      6  C   UNL     1      46.383   2.420   7.825  0.00  0.00    +0.000 A 
ATOM      7  N   UNL     1      45.705   1.629   8.702  0.00  0.00    +0.000 NA
ATOM      8  C   UNL     1      44.832   2.271   9.524  0.00  0.00    +0.000 A 
BRANCH   6   9
ATOM      9  C   UNL     1      47.361   1.748   6.914  0.00  0.00    +0.000 C 
ATOM     10  N   UNL     1      48.411   2.522   6.503  0.00  0.00    +0.000 N 
ATOM     11  O   UNL     1      47.240   0.586   6.548  0.00  0.00    +0.000 OA
ATOM     12  H   UNL     1      48.464   3.488   6.804  0.00  0.00    +0.000 HD
ATOM     13  H   UNL     1      49.086   2.142   5.857  0.00  0.00    +0.000 HD
ENDBRANCH   6   9
ENDBRANCH   1   3
BRANCH   1  14
ATOM     14  C   UNL     1      43.978   5.585  10.890  0.00  0.00    +0.000 C 
BRANCH  14  15
ATOM     15  C   UNL     1      44.845   5.589  12.156  0.00  0.00    +0.000 C 
BRANCH  15  20
ATOM     16  C   UNL     1      47.917   7.856  12.002  0.00  0.00    +0.000 A 
ATOM     17  C   UNL     1      47.324   9.122  12.091  0.00  0.00    +0.000 A 
ATOM     18  C   UNL     1      45.943   9.244  12.243  0.00  0.00    +0.000 A 
ATOM     19  C   UNL     1      45.137   8.105  12.293  0.00  0.00    +0.000 A 
ATOM     20  C   UNL     1      45.710   6.829  12.203  0.00  0.00    +0.000 A 
ATOM     21  C   UNL     1      47.101   6.717  12.064  0.00  0.00    +0.000 A 
BRANCH  16  22
ATOM     22  C   UNL     1      49.395   7.717  11.747  0.00  0.00    +0.000 C 
BRANCH  22  23
ATOM     23  N   UNL     1      50.037   7.022  12.856  0.00  0.00    +0.000 NA
ATOM     24  H   UNL     1      49.324   6.592  13.439  0.00  0.00    +0.000 HD
ATOM     25  H   UNL     1      50.519   7.704  13.440  0.00  0.00    +0.000 HD
ENDBRANCH  22  23
ENDBRANCH  16  22
ENDBRANCH  15  20
ENDBRANCH  14  15
ENDBRANCH   1  14
TORSDOF 7
ENDMDL
MODEL 6
REMARK VINA RESULT:    -6.989      2.832      6.833
REMARK INTER + INTRA:         -10.197
REMARK INTER:                  -9.757
REMARK INTRA:                  -0.440
REMARK UNBOUND:                -0.552
REMARK  Name = 
REMARK  7 active torsions:
REMARK  status: ('A' for Active; 'I' for Inactive)
REMARK    1  A    between atoms: N_1  and  C_2
REMARK    2  A    between atoms: C_2  and  C_3
REMARK    3  A    between atoms: C_7  and  C_8
REMARK    4  A    between atoms: C_8  and  C_9
REMARK    5  A    between atoms: C_9  and  N_10
REMARK    6  A    between atoms: N_10  and  C_11
REMARK    7  A    between atoms: C_14  and  C_15
REMARK                            x       y       z     vdW  Elec       q    Type
REMARK                         _______ _______ _______ _____ _____    ______ ____
ROOT
ATOM      1  N   UNL     1      45.786   5.457  11.114  0.00  0.00    +0.000 N 
ATOM      2  H   UNL     1      45.759   6.453  10.902  0.00  0.00    +0.000 HD
ENDROOT
BRANCH   1   3
ATOM      3  C   UNL     1      46.342   5.209  12.381  0.00  0.00    +0.000 A 
ATOM      4  C   UNL     1      47.053   6.174  13.104  0.00  0.00    +0.000 A 
ATOM      5  C   UNL     1      47.529   5.901  14.386  0.00  0.00    +0.000 A 
ATOM      6  C   UNL     1      47.251   4.663  14.940  0.00  0.00    +0.000 A 
ATOM      7  N   UNL     1      46.530   3.697  14.307  0.00  0.00    +0.000 NA
ATOM      8  C   UNL     1      46.087   4.012  13.060  0.00  0.00    +0.000 A 
BRANCH   6   9
ATOM      9  C   UNL     1      47.744   4.354  16.319  0.00  0.00    +0.000 C 
ATOM     10  N   UNL     1      47.072   4.974  17.337  0.00  0.00    +0.000 N 
ATOM     11  O   UNL     1      48.687   3.604  16.537  0.00  0.00    +0.000 OA
ATOM     12  H   UNL     1      46.314   5.610  17.118  0.00  0.00    +0.000 HD
ATOM     13  H   UNL     1      47.378   4.839  18.288  0.00  0.00    +0.000 HD
ENDBRANCH   6   9
ENDBRANCH   1   3
BRANCH   1  14
ATOM     14  C   UNL     1      44.519   4.781  10.801  0.00  0.00    +0.000 C 
BRANCH  14  15
ATOM     15  C   UNL     1      44.287   4.692   9.287  0.00  0.00    +0.000 C 
BRANCH  15  20
ATOM     16  C   UNL     1      46.863   2.671   7.318  0.00  0.00    +0.000 A 
ATOM     17  C   UNL     1      46.576   1.370   7.751  0.00  0.00    +0.000 A 
ATOM     18  C   UNL     1      45.529   1.140   8.643  0.00  0.00    +0.000 A 
ATOM     19  C   UNL     1      44.765   2.207   9.122  0.00  0.00    +0.000 A 
ATOM     20  C   UNL     1      45.037   3.516   8.703  0.00  0.00    +0.000 A 
ATOM     21  C   UNL     1      46.085   3.734   7.796  0.00  0.00    +0.000 A 
BRANCH  16  22
ATOM     22  C   UNL     1      48.048   2.939   6.426  0.00  0.00    +0.000 C 
BRANCH  22  23
ATOM     23  N   UNL     1      48.491   1.706   5.787  0.00  0.00    +0.000 NA
ATOM     24  H   UNL     1      48.746   1.030   6.504  0.00  0.00    +0.000 HD
ATOM     25  H   UNL     1      49.336   1.896   5.251  0.00  0.00    +0.000 HD
ENDBRANCH  22  23
ENDBRANCH  16  22
ENDBRANCH  15  20
ENDBRANCH  14  15
ENDBRANCH   1  14
TORSDOF 7
ENDMDL
MODEL 7
REMARK VINA RESULT:    -6.490      3.185      6.874
REMARK INTER + INTRA:          -9.509
REMARK INTER:                  -9.111
REMARK INTRA:                  -0.397
REMARK UNBOUND:                -0.552
REMARK  Name = 
REMARK  7 active torsions:
REMARK  status: ('A' for Active; 'I' for Inactive)
REMARK    1  A    between atoms: N_1  and  C_2
REMARK    2  A    between atoms: C_2  and  C_3
REMARK    3  A    between atoms: C_7  and  C_8
REMARK    4  A    between atoms: C_8  and  C_9
REMARK    5  A    between atoms: C_9  and  N_10
REMARK    6  A    between atoms: N_10  and  C_11
REMARK    7  A    between atoms: C_14  and  C_15
REMARK                            x       y       z     vdW  Elec       q    Type
REMARK                         _______ _______ _______ _____ _____    ______ ____
ROOT
ATOM      1  N   UNL     1      47.003   6.941  12.781  0.00  0.00    +0.000 N 
ATOM      2  H   UNL     1      46.265   7.598  13.026  0.00  0.00    +0.000 HD
ENDROOT
BRANCH   1   3
ATOM      3  C   UNL     1      47.245   6.018  13.813  0.00  0.00    +0.000 A 
ATOM      4  C   UNL     1      48.033   6.314  14.931  0.00  0.00    +0.000 A 
ATOM      5  C   UNL     1      48.191   5.387  15.961  0.00  0.00    +0.000 A 
ATOM      6  C   UNL     1      47.519   4.180  15.868  0.00  0.00    +0.000 A 
ATOM      7  N   UNL     1      46.704   3.848  14.828  0.00  0.00    +0.000 NA
ATOM      8  C   UNL     1      46.583   4.785  13.850  0.00  0.00    +0.000 A 
BRANCH   6   9
ATOM      9  C   UNL     1      47.666   3.176  16.968  0.00  0.00    +0.000 C 
ATOM     10  N   UNL     1      48.946   2.766  17.225  0.00  0.00    +0.000 N 
ATOM     11  O   UNL     1      46.714   2.739  17.602  0.00  0.00    +0.000 OA
ATOM     12  H   UNL     1      49.706   3.129  16.662  0.00  0.00    +0.000 HD
ATOM     13  H   UNL     1      49.110   2.063  17.928  0.00  0.00    +0.000 HD
ENDBRANCH   6   9
ENDBRANCH   1   3
BRANCH   1  14
ATOM     14  C   UNL     1      46.842   6.395  11.426  0.00  0.00    +0.000 C 
BRANCH  14  15
ATOM     15  C   UNL     1      45.367   6.359  11.004  0.00  0.00    +0.000 C 
BRANCH  15  20
ATOM     16  C   UNL     1      45.377   3.481   8.491  0.00  0.00    +0.000 A 
ATOM     17  C   UNL     1      44.602   2.529   9.166  0.00  0.00    +0.000 A 
ATOM     18  C   UNL     1      44.043   2.828  10.408  0.00  0.00    +0.000 A 
ATOM     19  C   UNL     1      44.263   4.076  10.997  0.00  0.00    +0.000 A 
ATOM     20  C   UNL     1      45.037   5.042  10.340  0.00  0.00    +0.000 A 
ATOM     21  C   UNL     1      45.584   4.734   9.085  0.00  0.00    +0.000 A 
BRANCH  16  22
ATOM     22  C   UNL     1      46.059   3.135   7.193  0.00  0.00    +0.000 C 
BRANCH  22  23
ATOM     23  N   UNL     1      46.873   4.253   6.735  0.00  0.00    +0.000 NA
ATOM     24  H   UNL     1      46.284   4.915   6.236  0.00  0.00    +0.000 HD
ATOM     25  H   UNL     1      47.559   3.909   6.064  0.00  0.00    +0.000 HD
ENDBRANCH  22  23
ENDBRANCH  16  22
ENDBRANCH  15  20
ENDBRANCH  14  15
ENDBRANCH   1  14
TORSDOF 7
ENDMDL
MODEL 8
REMARK VINA RESULT:    -6.265      3.101      5.187
REMARK INTER + INTRA:          -9.198
REMARK INTER:                  -8.702
REMARK INTRA:                  -0.496
REMARK UNBOUND:                -0.552
REMARK  Name = 
REMARK  7 active torsions:
REMARK  status: ('A' for Active; 'I' for Inactive)
REMARK    1  A    between atoms: N_1  and  C_2
REMARK    2  A    between atoms: C_2  and  C_3
REMARK    3  A    between atoms: C_7  and  C_8
REMARK    4  A    between atoms: C_8  and  C_9
REMARK    5  A    between atoms: C_9  and  N_10
REMARK    6  A    between atoms: N_10  and  C_11
REMARK    7  A    between atoms: C_14  and  C_15
REMARK                            x       y       z     vdW  Elec       q    Type
REMARK                         _______ _______ _______ _____ _____    ______ ____
ROOT
ATOM      1  N   UNL     1      46.841   7.055  13.663  0.00  0.00    +0.000 N 
ATOM      2  H   UNL     1      46.730   7.970  13.231  0.00  0.00    +0.000 HD
ENDROOT
BRANCH   1   3
ATOM      3  C   UNL     1      46.091   6.069  12.999  0.00  0.00    +0.000 A 
ATOM      4  C   UNL     1      45.837   6.102  11.623  0.00  0.00    +0.000 A 
ATOM      5  C   UNL     1      45.142   5.067  10.998  0.00  0.00    +0.000 A 
ATOM      6  C   UNL     1      44.740   3.988  11.766  0.00  0.00    +0.000 A 
ATOM      7  N   UNL     1      44.992   3.875  13.100  0.00  0.00    +0.000 NA
ATOM      8  C   UNL     1      45.673   4.909  13.662  0.00  0.00    +0.000 A 
BRANCH   6   9
ATOM      9  C   UNL     1      44.003   2.862  11.113  0.00  0.00    +0.000 C 
ATOM     10  N   UNL     1      44.587   2.351   9.986  0.00  0.00    +0.000 N 
ATOM     11  O   UNL     1      42.945   2.420  11.542  0.00  0.00    +0.000 OA
ATOM     12  H   UNL     1      45.449   2.759   9.644  0.00  0.00    +0.000 HD
ATOM     13  H   UNL     1      44.123   1.616   9.476  0.00  0.00    +0.000 HD
ENDBRANCH   6   9
ENDBRANCH   1   3
BRANCH   1  14
ATOM     14  C   UNL     1      48.248   6.737  13.950  0.00  0.00    +0.000 C 
BRANCH  14  15
ATOM     15  C   UNL     1      48.693   7.317  15.299  0.00  0.00    +0.000 C 
BRANCH  15  20
ATOM     16  C   UNL     1      48.877   4.066  17.299  0.00  0.00    +0.000 A 
ATOM     17  C   UNL     1      50.216   4.077  17.710  0.00  0.00    +0.000 A 
ATOM     18  C   UNL     1      51.046   5.148  17.381  0.00  0.00    +0.000 A 
ATOM     19  C   UNL     1      50.552   6.214  16.625  0.00  0.00    +0.000 A 
ATOM     20  C   UNL     1      49.217   6.222  16.200  0.00  0.00    +0.000 A 
ATOM     21  C   UNL     1      48.388   5.145  16.549  0.00  0.00    +0.000 A 
BRANCH  16  22
ATOM     22  C   UNL     1      47.999   2.872  17.573  0.00  0.00    +0.000 C 
BRANCH  22  23
ATOM     23  N   UNL     1      46.593   3.249  17.495  0.00  0.00    +0.000 NA
ATOM     24  H   UNL     1      46.513   4.151  17.031  0.00  0.00    +0.000 HD
ATOM     25  H   UNL     1      46.232   3.373  18.439  0.00  0.00    +0.000 HD
ENDBRANCH  22  23
ENDBRANCH  16  22
ENDBRANCH  15  20
ENDBRANCH  14  15
ENDBRANCH   1  14
TORSDOF 7
ENDMDL
MODEL 9
REMARK VINA RESULT:    -5.922      3.053      6.721
REMARK INTER + INTRA:          -8.725
REMARK INTER:                  -8.016
REMARK INTRA:                  -0.709
REMARK UNBOUND:                -0.552
REMARK  Name = 
REMARK  7 active torsions:
REMARK  status: ('A' for Active; 'I' for Inactive)
REMARK    1  A    between atoms: N_1  and  C_2
REMARK    2  A    between atoms: C_2  and  C_3
REMARK    3  A    between atoms: C_7  and  C_8
REMARK    4  A    between atoms: C_8  and  C_9
REMARK    5  A    between atoms: C_9  and  N_10
REMARK    6  A    between atoms: N_10  and  C_11
REMARK    7  A    between atoms: C_14  and  C_15
REMARK                            x       y       z     vdW  Elec       q    Type
REMARK                         _______ _______ _______ _____ _____    ______ ____
ROOT
ATOM      1  N   UNL     1      47.813   7.235  13.190  0.00  0.00    +0.000 N 
ATOM      2  H   UNL     1      47.470   8.114  13.571  0.00  0.00    +0.000 HD
ENDROOT
BRANCH   1   3
ATOM      3  C   UNL     1      47.775   6.202  14.142  0.00  0.00    +0.000 A 
ATOM      4  C   UNL     1      47.123   4.984  13.920  0.00  0.00    +0.000 A 
ATOM      5  C   UNL     1      47.168   3.964  14.869  0.00  0.00    +0.000 A 
ATOM      6  C   UNL     1      47.903   4.173  16.024  0.00  0.00    +0.000 A 
ATOM      7  N   UNL     1      48.595   5.317  16.281  0.00  0.00    +0.000 NA
ATOM      8  C   UNL     1      48.520   6.281  15.324  0.00  0.00    +0.000 A 
BRANCH   6   9
ATOM      9  C   UNL     1      47.973   3.086  17.050  0.00  0.00    +0.000 C 
ATOM     10  N   UNL     1      46.799   2.809  17.696  0.00  0.00    +0.000 N 
ATOM     11  O   UNL     1      49.005   2.480  17.309  0.00  0.00    +0.000 OA
ATOM     12  H   UNL     1      45.971   3.349  17.475  0.00  0.00    +0.000 HD
ATOM     13  H   UNL     1      46.787   2.114  18.426  0.00  0.00    +0.000 HD
ENDBRANCH   6   9
ENDBRANCH   1   3
BRANCH   1  14
ATOM     14  C   UNL     1      47.248   6.938  11.865  0.00  0.00    +0.000 C 
BRANCH  14  15
ATOM     15  C   UNL     1      45.781   7.378  11.767  0.00  0.00    +0.000 C 
BRANCH  15  20
ATOM     16  C   UNL     1      44.322   4.192  10.245  0.00  0.00    +0.000 A 
ATOM     17  C   UNL     1      43.360   3.850  11.204  0.00  0.00    +0.000 A 
ATOM     18  C   UNL     1      43.153   4.665  12.316  0.00  0.00    +0.000 A 
ATOM     19  C   UNL     1      43.913   5.823  12.491  0.00  0.00    +0.000 A 
ATOM     20  C   UNL     1      44.882   6.183  11.545  0.00  0.00    +0.000 A 
ATOM     21  C   UNL     1      45.073   5.362  10.423  0.00  0.00    +0.000 A 
BRANCH  16  22
ATOM     22  C   UNL     1      44.615   3.271   9.089  0.00  0.00    +0.000 C 
BRANCH  22  23
ATOM     23  N   UNL     1      44.611   1.883   9.533  0.00  0.00    +0.000 NA
ATOM     24  H   UNL     1      44.917   1.286   8.769  0.00  0.00    +0.000 HD
ATOM     25  H   UNL     1      43.654   1.609   9.751  0.00  0.00    +0.000 HD
ENDBRANCH  22  23
ENDBRANCH  16  22
ENDBRANCH  15  20
ENDBRANCH  14  15
ENDBRANCH   1  14
TORSDOF 7
ENDMDL
