MODEL 1
REMARK VINA RESULT:    -8.452      0.000      0.000
REMARK INTER + INTRA:         -12.362
REMARK INTER:                 -11.416
REMARK INTRA:                  -0.946
REMARK UNBOUND:                -0.946
REMARK  Name = 
REMARK  7 active torsions:
REMARK  status: ('A' for Active; 'I' for Inactive)
REMARK    1  A    between atoms: C_1  and  C_2
REMARK    2  A    between atoms: N_4  and  C_5
REMARK    3  A    between atoms: C_7  and  C_8
REMARK    4  A    between atoms: C_8  and  C_9
REMARK    5  A    between atoms: C_9  and  N_10
REMARK    6  A    between atoms: C_14  and  C_15
REMARK    7  A    between atoms: C_21  and  C_22
REMARK                            x       y       z     vdW  Elec       q    Type
REMARK                         _______ _______ _______ _____ _____    ______ ____
ROOT
ATOM      1  C   UNL     1      46.589   6.696  12.777  0.00  0.00    +0.000 A 
ATOM      2  C   UNL     1      45.517   5.792  12.686  0.00  0.00    +0.000 A 
ATOM      3  C   UNL     1      44.249   6.162  12.204  0.00  0.00    +0.000 A 
ATOM      4  C   UNL     1      44.053   7.480  11.783  0.00  0.00    +0.000 A 
ATOM      5  C   UNL     1      45.097   8.412  11.847  0.00  0.00    +0.000 A 
ATOM      6  C   UNL     1      46.355   7.999  12.323  0.00  0.00    +0.000 A 
ENDROOT
BRANCH   1  10
ATOM      7  C   UNL     1      49.100   8.984  14.395  0.00  0.00    +0.000 C 
ATOM      8  C   UNL     1      49.773   7.643  14.092  0.00  0.00    +0.000 C 
ATOM      9  C   UNL     1      49.089   6.899  12.912  0.00  0.00    +0.000 C 
ATOM     10  N   UNL     1      47.806   6.297  13.305  0.00  0.00    +0.000 N 
ATOM     11  C   UNL     1      47.839   5.505  14.549  0.00  0.00    +0.000 C 
ATOM     12  C   UNL     1      48.557   6.270  15.686  0.00  0.00    +0.000 C 
ATOM     13  N   UNL     1      49.882   6.810  15.316  0.00  0.00    +0.000 NA
ATOM     14  H   UNL     1      50.482   6.015  15.093  0.00  0.00    +0.000 HD
ENDBRANCH   1  10
BRANCH   5  15
ATOM     15  C   UNL     1      44.881   9.856  11.472  0.00  0.00    +0.000 C 
ATOM     16  F   UNL     1      43.931  10.478  12.227  0.00  0.00    +0.000 F 
ATOM     17  F   UNL     1      46.011  10.603  11.614  0.00  0.00    +0.000 F 
ATOM     18  F   UNL     1      44.490  10.013  10.178  0.00  0.00    +0.000 F 
ENDBRANCH   5  15
BRANCH   3  19
ATOM     19  C   UNL     1      43.095   5.181  12.221  0.00  0.00    +0.000 C 
BRANCH  19  20
ATOM     20  C   UNL     1      43.113   4.181  11.064  0.00  0.00    +0.000 C 
BRANCH  20  21
ATOM     21  N   UNL     1      43.791   4.753   9.890  0.00  0.00    +0.000 N 
ATOM     22  C   UNL     1      44.624   3.818   9.236  0.00  0.00    +0.000 A 
ATOM     23  C   UNL     1      45.326   4.214   8.105  0.00  0.00    +0.000 A 
ATOM     24  C   UNL     1      46.140   3.295   7.442  0.00  0.00    +0.000 A 
ATOM     25  C   UNL     1      46.214   2.011   7.949  0.00  0.00    +0.000 A 
ATOM     26  N   UNL     1      45.520   1.627   9.042  0.00  0.00    +0.000 NA
ATOM     27  N   UNL     1      44.715   2.540   9.674  0.00  0.00    +0.000 NA
ATOM     28  H   UNL     1      44.342   5.578  10.120  0.00  0.00    +0.000 HD
BRANCH  25  29
ATOM     29  C   UNL     1      47.077   0.975   7.319  0.00  0.00    +0.000 C 
ATOM     30  N   UNL     1      46.798  -0.324   7.654  0.00  0.00    +0.000 N 
ATOM     31  O   UNL     1      47.989   1.259   6.555  0.00  0.00    +0.000 OA
ATOM     32  H   UNL     1      46.039  -0.550   8.288  0.00  0.00    +0.000 HD
ATOM     33  H   UNL     1      47.353  -1.067   7.253  0.00  0.00    +0.000 HD
ENDBRANCH  25  29
ENDBRANCH  20  21
ENDBRANCH  19  20
ENDBRANCH   3  19
TORSDOF 6
ENDMDL
MODEL 2
REMARK VINA RESULT:    -7.958      2.400      3.287
REMARK INTER + INTRA:         -11.695
REMARK INTER:                 -10.672
REMARK INTRA:                  -1.023
REMARK UNBOUND:                -0.946
REMARK  Name = 
REMARK  7 active torsions:
REMARK  status: ('A' for Active; 'I' for Inactive)
REMARK    1  A    between atoms: C_1  and  C_2
REMARK    2  A    between atoms: N_4  and  C_5
REMARK    3  A    between atoms: C_7  and  C_8
REMARK    4  A    between atoms: C_8  and  C_9
REMARK    5  A    between atoms: C_9  and  N_10
REMARK    6  A    between atoms: C_14  and  C_15
REMARK    7  A    between atoms: C_21  and  C_22
REMARK                            x       y       z     vdW  Elec       q    Type
REMARK                         _______ _______ _______ _____ _____    ______ ____
ROOT
ATOM      1  C   UNL     1      47.574   5.165  14.797  0.00  0.00    +0.000 A 
ATOM      2  C   UNL     1      46.321   4.730  14.331  0.00  0.00    +0.000 A 
ATOM      3  C   UNL     1      45.643   5.360  13.272  0.00  0.00    +0.000 A 
ATOM      4  C   UNL     1      46.249   6.453  12.647  0.00  0.00    +0.000 A 
ATOM      5  C   UNL     1      47.501   6.914  13.073  0.00  0.00    +0.000 A 
ATOM      6  C   UNL     1      48.154   6.248  14.127  0.00  0.00    +0.000 A 
ENDROOT
BRANCH   1  10
ATOM      7  C   UNL     1      46.808   5.871  18.412  0.00  0.00    +0.000 C 
ATOM      8  C   UNL     1      48.114   5.078  18.326  0.00  0.00    +0.000 C 
ATOM      9  C   UNL     1      48.834   5.282  16.966  0.00  0.00    +0.000 C 
ATOM     10  N   UNL     1      48.180   4.543  15.875  0.00  0.00    +0.000 N 
ATOM     11  C   UNL     1      47.882   3.128  16.168  0.00  0.00    +0.000 C 
ATOM     12  C   UNL     1      47.196   2.969  17.544  0.00  0.00    +0.000 C 
ATOM     13  N   UNL     1      47.894   3.647  18.656  0.00  0.00    +0.000 NA
ATOM     14  H   UNL     1      48.811   3.210  18.749  0.00  0.00    +0.000 HD
ENDBRANCH   1  10
BRANCH   5  15
ATOM     15  C   UNL     1      48.133   8.139  12.463  0.00  0.00    +0.000 C 
ATOM     16  F   UNL     1      48.474   7.981  11.152  0.00  0.00    +0.000 F 
ATOM     17  F   UNL     1      47.307   9.222  12.500  0.00  0.00    +0.000 F 
ATOM     18  F   UNL     1      49.274   8.519  13.102  0.00  0.00    +0.000 F 
ENDBRANCH   5  15
BRANCH   3  19
ATOM     19  C   UNL     1      44.249   4.922  12.873  0.00  0.00    +0.000 C 
BRANCH  19  20
ATOM     20  C   UNL     1      44.042   4.811  11.362  0.00  0.00    +0.000 C 
BRANCH  20  21
ATOM     21  N   UNL     1      44.150   3.411  10.922  0.00  0.00    +0.000 N 
ATOM     22  C   UNL     1      44.921   3.270   9.747  0.00  0.00    +0.000 A 
ATOM     23  C   UNL     1      45.116   2.002   9.215  0.00  0.00    +0.000 A 
ATOM     24  C   UNL     1      45.888   1.848   8.063  0.00  0.00    +0.000 A 
ATOM     25  C   UNL     1      46.433   2.984   7.492  0.00  0.00    +0.000 A 
ATOM     26  N   UNL     1      46.251   4.213   8.020  0.00  0.00    +0.000 NA
ATOM     27  N   UNL     1      45.499   4.344   9.159  0.00  0.00    +0.000 NA
ATOM     28  H   UNL     1      43.241   2.977  10.772  0.00  0.00    +0.000 HD
BRANCH  25  29
ATOM     29  C   UNL     1      47.249   2.915   6.249  0.00  0.00    +0.000 C 
ATOM     30  N   UNL     1      48.589   2.689   6.422  0.00  0.00    +0.000 N 
ATOM     31  O   UNL     1      46.761   3.061   5.137  0.00  0.00    +0.000 OA
ATOM     32  H   UNL     1      48.984   2.568   7.349  0.00  0.00    +0.000 HD
ATOM     33  H   UNL     1      49.188   2.631   5.611  0.00  0.00    +0.000 HD
ENDBRANCH  25  29
ENDBRANCH  20  21
ENDBRANCH  19  20
ENDBRANCH   3  19
TORSDOF 6
ENDMDL
MODEL 3
REMARK VINA RESULT:    -7.298      1.721      2.484
REMARK INTER + INTRA:         -10.803
REMARK INTER:                 -11.054
REMARK INTRA:                   0.250
REMARK UNBOUND:                -0.946
REMARK  Name = 
REMARK  7 active torsions:
REMARK  status: ('A' for Active; 'I' for Inactive)
REMARK    1  A    between atoms: C_1  and  C_2
REMARK    2  A    between atoms: N_4  and  C_5
REMARK    3  A    between atoms: C_7  and  C_8
REMARK    4  A    between atoms: C_8  and  C_9
REMARK    5  A    between atoms: C_9  and  N_10
REMARK    6  A    between atoms: C_14  and  C_15
REMARK    7  A    between atoms: C_21  and  C_22
REMARK                            x       y       z     vdW  Elec       q    Type
REMARK                         _______ _______ _______ _____ _____    ______ ____
ROOT
ATOM      1  C   UNL     1      47.355   5.285  14.715  0.00  0.00    +0.000 A 
ATOM      2  C   UNL     1      46.457   4.410  14.081  0.00  0.00    +0.000 A 
ATOM      3  C   UNL     1      45.774   4.746  12.898  0.00  0.00    +0.000 A 
ATOM      4  C   UNL     1      46.013   5.996  12.322  0.00  0.00    +0.000 A 
ATOM      5  C   UNL     1      46.906   6.896  12.915  0.00  0.00    +0.000 A 
ATOM      6  C   UNL     1      47.579   6.518  14.091  0.00  0.00    +0.000 A 
ENDROOT
BRANCH   1  10
ATOM      7  C   UNL     1      48.370   7.686  17.429  0.00  0.00    +0.000 C 
ATOM      8  C   UNL     1      49.049   6.337  17.679  0.00  0.00    +0.000 C 
ATOM      9  C   UNL     1      49.229   5.521  16.370  0.00  0.00    +0.000 C 
ATOM     10  N   UNL     1      47.965   4.929  15.906  0.00  0.00    +0.000 N 
ATOM     11  C   UNL     1      47.195   4.209  16.937  0.00  0.00    +0.000 C 
ATOM     12  C   UNL     1      47.068   5.043  18.233  0.00  0.00    +0.000 C 
ATOM     13  N   UNL     1      48.349   5.575  18.744  0.00  0.00    +0.000 NA
ATOM     14  H   UNL     1      48.935   4.775  18.983  0.00  0.00    +0.000 HD
ENDBRANCH   1  10
BRANCH   5  15
ATOM     15  C   UNL     1      47.115   8.279  12.351  0.00  0.00    +0.000 C 
ATOM     16  F   UNL     1      48.135   8.351  11.450  0.00  0.00    +0.000 F 
ATOM     17  F   UNL     1      46.013   8.744  11.698  0.00  0.00    +0.000 F 
ATOM     18  F   UNL     1      47.398   9.203  13.310  0.00  0.00    +0.000 F 
ENDBRANCH   5  15
BRANCH   3  19
ATOM     19  C   UNL     1      44.739   3.811  12.307  0.00  0.00    +0.000 C 
BRANCH  19  20
ATOM     20  C   UNL     1      43.778   4.488  11.328  0.00  0.00    +0.000 C 
BRANCH  20  21
ATOM     21  N   UNL     1      44.508   5.026  10.168  0.00  0.00    +0.000 N 
ATOM     22  C   UNL     1      45.150   4.017   9.417  0.00  0.00    +0.000 A 
ATOM     23  C   UNL     1      45.875   4.374   8.287  0.00  0.00    +0.000 A 
ATOM     24  C   UNL     1      46.501   3.384   7.528  0.00  0.00    +0.000 A 
ATOM     25  C   UNL     1      46.371   2.071   7.942  0.00  0.00    +0.000 A 
ATOM     26  N   UNL     1      45.655   1.728   9.034  0.00  0.00    +0.000 NA
ATOM     27  N   UNL     1      45.036   2.712   9.761  0.00  0.00    +0.000 NA
ATOM     28  H   UNL     1      45.198   5.727  10.431  0.00  0.00    +0.000 HD
BRANCH  25  29
ATOM     29  C   UNL     1      47.026   0.956   7.205  0.00  0.00    +0.000 C 
ATOM     30  N   UNL     1      46.732  -0.308   7.644  0.00  0.00    +0.000 N 
ATOM     31  O   UNL     1      47.791   1.149   6.271  0.00  0.00    +0.000 OA
ATOM     32  H   UNL     1      46.095  -0.458   8.420  0.00  0.00    +0.000 HD
ATOM     33  H   UNL     1      47.149  -1.102   7.179  0.00  0.00    +0.000 HD
ENDBRANCH  25  29
ENDBRANCH  20  21
ENDBRANCH  19  20
ENDBRANCH   3  19
TORSDOF 6
ENDMDL
MODEL 4
REMARK VINA RESULT:    -6.884      3.641      5.934
REMARK INTER + INTRA:         -10.244
REMARK INTER:                  -9.287
REMARK INTRA:                  -0.957
REMARK UNBOUND:                -0.946
REMARK  Name = 
REMARK  7 active torsions:
REMARK  status: ('A' for Active; 'I' for Inactive)
REMARK    1  A    between atoms: C_1  and  C_2
REMARK    2  A    between atoms: N_4  and  C_5
REMARK    3  A    between atoms: C_7  and  C_8
REMARK    4  A    between atoms: C_8  and  C_9
REMARK    5  A    between atoms: C_9  and  N_10
REMARK    6  A    between atoms: C_14  and  C_15
REMARK    7  A    between atoms: C_21  and  C_22
REMARK                            x       y       z     vdW  Elec       q    Type
REMARK                         _______ _______ _______ _____ _____    ______ ____
ROOT
ATOM      1  C   UNL     1      49.106   6.676  17.749  0.00  0.00    +0.000 A 
ATOM      2  C   UNL     1      49.191   6.786  16.350  0.00  0.00    +0.000 A 
ATOM      3  C   UNL     1      48.817   7.950  15.654  0.00  0.00    +0.000 A 
ATOM      4  C   UNL     1      48.358   9.047  16.387  0.00  0.00    +0.000 A 
ATOM      5  C   UNL     1      48.266   8.985  17.782  0.00  0.00    +0.000 A 
ATOM      6  C   UNL     1      48.663   7.808  18.443  0.00  0.00    +0.000 A 
ENDROOT
BRANCH   1  10
ATOM      7  C   UNL     1      47.905   3.260  16.729  0.00  0.00    +0.000 C 
ATOM      8  C   UNL     1      48.505   3.177  18.134  0.00  0.00    +0.000 C 
ATOM      9  C   UNL     1      48.437   4.537  18.881  0.00  0.00    +0.000 C 
ATOM     10  N   UNL     1      49.440   5.493  18.385  0.00  0.00    +0.000 N 
ATOM     11  C   UNL     1      50.811   4.961  18.272  0.00  0.00    +0.000 C 
ATOM     12  C   UNL     1      50.827   3.592  17.552  0.00  0.00    +0.000 C 
ATOM     13  N   UNL     1      49.874   2.604  18.099  0.00  0.00    +0.000 NA
ATOM     14  H   UNL     1      50.153   2.416  19.063  0.00  0.00    +0.000 HD
ENDBRANCH   1  10
BRANCH   5  15
ATOM     15  C   UNL     1      47.699  10.131  18.582  0.00  0.00    +0.000 C 
ATOM     16  F   UNL     1      47.208  11.142  17.810  0.00  0.00    +0.000 F 
ATOM     17  F   UNL     1      46.666   9.744  19.382  0.00  0.00    +0.000 F 
ATOM     18  F   UNL     1      48.616  10.704  19.408  0.00  0.00    +0.000 F 
ENDBRANCH   5  15
BRANCH   3  19
ATOM     19  C   UNL     1      48.827   7.986  14.140  0.00  0.00    +0.000 C 
BRANCH  19  20
ATOM     20  C   UNL     1      47.459   7.732  13.503  0.00  0.00    +0.000 C 
BRANCH  20  21
ATOM     21  N   UNL     1      46.887   6.464  13.985  0.00  0.00    +0.000 N 
ATOM     22  C   UNL     1      46.228   5.744  12.963  0.00  0.00    +0.000 A 
ATOM     23  C   UNL     1      45.643   4.522  13.268  0.00  0.00    +0.000 A 
ATOM     24  C   UNL     1      45.002   3.795  12.264  0.00  0.00    +0.000 A 
ATOM     25  C   UNL     1      44.978   4.333  10.989  0.00  0.00    +0.000 A 
ATOM     26  N   UNL     1      45.559   5.515  10.696  0.00  0.00    +0.000 NA
ATOM     27  N   UNL     1      46.195   6.210  11.692  0.00  0.00    +0.000 NA
ATOM     28  H   UNL     1      46.242   6.596  14.761  0.00  0.00    +0.000 HD
BRANCH  25  29
ATOM     29  C   UNL     1      44.296   3.636   9.865  0.00  0.00    +0.000 C 
ATOM     30  N   UNL     1      44.177   4.348   8.701  0.00  0.00    +0.000 N 
ATOM     31  O   UNL     1      43.854   2.500   9.971  0.00  0.00    +0.000 OA
ATOM     32  H   UNL     1      44.547   5.290   8.623  0.00  0.00    +0.000 HD
ATOM     33  H   UNL     1      43.723   3.922   7.906  0.00  0.00    +0.000 HD
ENDBRANCH  25  29
ENDBRANCH  20  21
ENDBRANCH  19  20
ENDBRANCH   3  19
TORSDOF 6
ENDMDL
MODEL 5
REMARK VINA RESULT:    -6.860      3.097      3.865
REMARK INTER + INTRA:         -10.212
REMARK INTER:                 -10.650
REMARK INTRA:                   0.438
REMARK UNBOUND:                -0.946
REMARK  Name = 
REMARK  7 active torsions:
REMARK  status: ('A' for Active; 'I' for Inactive)
REMARK    1  A    between atoms: C_1  and  C_2
REMARK    2  A    between atoms: N_4  and  C_5
REMARK    3  A    between atoms: C_7  and  C_8
REMARK    4  A    between atoms: C_8  and  C_9
REMARK    5  A    between atoms: C_9  and  N_10
REMARK    6  A    between atoms: C_14  and  C_15
REMARK    7  A    between atoms: C_21  and  C_22
REMARK                            x       y       z     vdW  Elec       q    Type
REMARK                         _______ _______ _______ _____ _____    ______ ____
ROOT
ATOM      1  C   UNL     1      48.043   7.470  13.034  0.00  0.00    +0.000 A 
ATOM      2  C   UNL     1      47.166   7.276  11.953  0.00  0.00    +0.000 A 
ATOM      3  C   UNL     1      46.302   6.169  11.863  0.00  0.00    +0.000 A 
ATOM      4  C   UNL     1      46.306   5.233  12.901  0.00  0.00    +0.000 A 
ATOM      5  C   UNL     1      47.157   5.392  14.001  0.00  0.00    +0.000 A 
ATOM      6  C   UNL     1      47.996   6.520  14.061  0.00  0.00    +0.000 A 
ENDROOT
BRANCH   1  10
ATOM      7  C   UNL     1      48.678   9.679  16.013  0.00  0.00    +0.000 C 
ATOM      8  C   UNL     1      49.233  10.361  14.760  0.00  0.00    +0.000 C 
ATOM      9  C   UNL     1      48.502   9.900  13.470  0.00  0.00    +0.000 C 
ATOM     10  N   UNL     1      48.910   8.549  13.054  0.00  0.00    +0.000 N 
ATOM     11  C   UNL     1      50.366   8.320  13.010  0.00  0.00    +0.000 C 
ATOM     12  C   UNL     1      51.056   8.823  14.299  0.00  0.00    +0.000 C 
ATOM     13  N   UNL     1      50.708  10.209  14.676  0.00  0.00    +0.000 NA
ATOM     14  H   UNL     1      51.036  10.819  13.927  0.00  0.00    +0.000 HD
ENDBRANCH   1  10
BRANCH   5  15
ATOM     15  C   UNL     1      47.231   4.352  15.090  0.00  0.00    +0.000 C 
ATOM     16  F   UNL     1      48.240   4.568  15.981  0.00  0.00    +0.000 F 
ATOM     17  F   UNL     1      46.090   4.296  15.832  0.00  0.00    +0.000 F 
ATOM     18  F   UNL     1      47.424   3.094  14.606  0.00  0.00    +0.000 F 
ENDBRANCH   5  15
BRANCH   3  19
ATOM     19  C   UNL     1      45.450   5.947  10.630  0.00  0.00    +0.000 C 
BRANCH  19  20
ATOM     20  C   UNL     1      44.145   5.198  10.904  0.00  0.00    +0.000 C 
BRANCH  20  21
ATOM     21  N   UNL     1      44.311   3.756  10.661  0.00  0.00    +0.000 N 
ATOM     22  C   UNL     1      45.067   3.485   9.499  0.00  0.00    +0.000 A 
ATOM     23  C   UNL     1      45.312   2.165   9.145  0.00  0.00    +0.000 A 
ATOM     24  C   UNL     1      46.071   1.885   8.008  0.00  0.00    +0.000 A 
ATOM     25  C   UNL     1      46.553   2.953   7.271  0.00  0.00    +0.000 A 
ATOM     26  N   UNL     1      46.322   4.235   7.627  0.00  0.00    +0.000 NA
ATOM     27  N   UNL     1      45.585   4.491   8.755  0.00  0.00    +0.000 NA
ATOM     28  H   UNL     1      43.421   3.266  10.594  0.00  0.00    +0.000 HD
BRANCH  25  29
ATOM     29  C   UNL     1      47.349   2.746   6.032  0.00  0.00    +0.000 C 
ATOM     30  N   UNL     1      48.685   2.498   6.210  0.00  0.00    +0.000 N 
ATOM     31  O   UNL     1      46.851   2.803   4.916  0.00  0.00    +0.000 OA
ATOM     32  H   UNL     1      49.089   2.452   7.140  0.00  0.00    +0.000 HD
ATOM     33  H   UNL     1      49.271   2.349   5.402  0.00  0.00    +0.000 HD
ENDBRANCH  25  29
ENDBRANCH  20  21
ENDBRANCH  19  20
ENDBRANCH   3  19
TORSDOF 6
ENDMDL
MODEL 6
REMARK VINA RESULT:    -6.818      4.313      6.483
REMARK INTER + INTRA:         -10.155
REMARK INTER:                  -8.975
REMARK INTRA:                  -1.180
REMARK UNBOUND:                -0.946
REMARK  Name = 
REMARK  7 active torsions:
REMARK  status: ('A' for Active; 'I' for Inactive)
REMARK    1  A    between atoms: C_1  and  C_2
REMARK    2  A    between atoms: N_4  and  C_5
REMARK    3  A    between atoms: C_7  and  C_8
REMARK    4  A    between atoms: C_8  and  C_9
REMARK    5  A    between atoms: C_9  and  N_10
REMARK    6  A    between atoms: C_14  and  C_15
REMARK    7  A    between atoms: C_21  and  C_22
REMARK                            x       y       z     vdW  Elec       q    Type
REMARK                         _______ _______ _______ _____ _____    ______ ____
ROOT
ATOM      1  C   UNL     1      49.204   6.143  16.516  0.00  0.00    +0.000 A 
ATOM      2  C   UNL     1      48.636   6.955  15.519  0.00  0.00    +0.000 A 
ATOM      3  C   UNL     1      49.405   7.784  14.683  0.00  0.00    +0.000 A 
ATOM      4  C   UNL     1      50.794   7.787  14.841  0.00  0.00    +0.000 A 
ATOM      5  C   UNL     1      51.402   6.986  15.814  0.00  0.00    +0.000 A 
ATOM      6  C   UNL     1      50.599   6.160  16.622  0.00  0.00    +0.000 A 
ENDROOT
BRANCH   1  10
ATOM      7  C   UNL     1      49.791   2.526  17.369  0.00  0.00    +0.000 C 
ATOM      8  C   UNL     1      48.367   2.909  17.779  0.00  0.00    +0.000 C 
ATOM      9  C   UNL     1      47.815   4.094  16.941  0.00  0.00    +0.000 C 
ATOM     10  N   UNL     1      48.401   5.381  17.347  0.00  0.00    +0.000 N 
ATOM     11  C   UNL     1      48.393   5.643  18.799  0.00  0.00    +0.000 C 
ATOM     12  C   UNL     1      48.918   4.426  19.595  0.00  0.00    +0.000 C 
ATOM     13  N   UNL     1      48.276   3.143  19.243  0.00  0.00    +0.000 NA
ATOM     14  H   UNL     1      47.286   3.224  19.479  0.00  0.00    +0.000 HD
ENDBRANCH   1  10
BRANCH   5  15
ATOM     15  C   UNL     1      52.890   7.036  16.050  0.00  0.00    +0.000 C 
ATOM     16  F   UNL     1      53.389   5.903  16.621  0.00  0.00    +0.000 F 
ATOM     17  F   UNL     1      53.594   7.208  14.896  0.00  0.00    +0.000 F 
ATOM     18  F   UNL     1      53.262   8.059  16.868  0.00  0.00    +0.000 F 
ENDBRANCH   5  15
BRANCH   3  19
ATOM     19  C   UNL     1      48.741   8.720  13.694  0.00  0.00    +0.000 C 
BRANCH  19  20
ATOM     20  C   UNL     1      47.248   8.456  13.495  0.00  0.00    +0.000 C 
BRANCH  20  21
ATOM     21  N   UNL     1      46.974   8.022  12.116  0.00  0.00    +0.000 N 
ATOM     22  C   UNL     1      46.267   6.800  12.063  0.00  0.00    +0.000 A 
ATOM     23  C   UNL     1      45.932   6.267  10.825  0.00  0.00    +0.000 A 
ATOM     24  C   UNL     1      45.220   5.069  10.760  0.00  0.00    +0.000 A 
ATOM     25  C   UNL     1      44.876   4.454  11.951  0.00  0.00    +0.000 A 
ATOM     26  N   UNL     1      45.194   4.983  13.152  0.00  0.00    +0.000 NA
ATOM     27  N   UNL     1      45.882   6.168  13.197  0.00  0.00    +0.000 NA
ATOM     28  H   UNL     1      47.821   7.935  11.558  0.00  0.00    +0.000 HD
BRANCH  25  29
ATOM     29  C   UNL     1      44.139   3.162  11.974  0.00  0.00    +0.000 C 
ATOM     30  N   UNL     1      44.106   2.467  10.793  0.00  0.00    +0.000 N 
ATOM     31  O   UNL     1      43.583   2.742  12.980  0.00  0.00    +0.000 OA
ATOM     32  H   UNL     1      44.571   2.823   9.964  0.00  0.00    +0.000 HD
ATOM     33  H   UNL     1      43.620   1.583  10.754  0.00  0.00    +0.000 HD
ENDBRANCH  25  29
ENDBRANCH  20  21
ENDBRANCH  19  20
ENDBRANCH   3  19
TORSDOF 6
ENDMDL
MODEL 7
REMARK VINA RESULT:    -6.781      4.473      7.648
REMARK INTER + INTRA:         -10.106
REMARK INTER:                  -8.892
REMARK INTRA:                  -1.214
REMARK UNBOUND:                -0.946
REMARK  Name = 
REMARK  7 active torsions:
REMARK  status: ('A' for Active; 'I' for Inactive)
REMARK    1  A    between atoms: C_1  and  C_2
REMARK    2  A    between atoms: N_4  and  C_5
REMARK    3  A    between atoms: C_7  and  C_8
REMARK    4  A    between atoms: C_8  and  C_9
REMARK    5  A    between atoms: C_9  and  N_10
REMARK    6  A    between atoms: C_14  and  C_15
REMARK    7  A    between atoms: C_21  and  C_22
REMARK                            x       y       z     vdW  Elec       q    Type
REMARK                         _______ _______ _______ _____ _____    ______ ____
ROOT
ATOM      1  C   UNL     1      46.110   4.335  13.052  0.00  0.00    +0.000 A 
ATOM      2  C   UNL     1      46.538   5.658  12.851  0.00  0.00    +0.000 A 
ATOM      3  C   UNL     1      47.368   6.336  13.763  0.00  0.00    +0.000 A 
ATOM      4  C   UNL     1      47.797   5.658  14.907  0.00  0.00    +0.000 A 
ATOM      5  C   UNL     1      47.402   4.335  15.142  0.00  0.00    +0.000 A 
ATOM      6  C   UNL     1      46.582   3.687  14.200  0.00  0.00    +0.000 A 
ENDROOT
BRANCH   1  10
ATOM      7  C   UNL     1      42.790   5.721  11.952  0.00  0.00    +0.000 C 
ATOM      8  C   UNL     1      42.875   4.249  11.541  0.00  0.00    +0.000 C 
ATOM      9  C   UNL     1      43.841   3.443  12.452  0.00  0.00    +0.000 C 
ATOM     10  N   UNL     1      45.252   3.726  12.151  0.00  0.00    +0.000 N 
ATOM     11  C   UNL     1      45.614   3.665  10.723  0.00  0.00    +0.000 C 
ATOM     12  C   UNL     1      44.608   4.453   9.852  0.00  0.00    +0.000 C 
ATOM     13  N   UNL     1      43.191   4.114  10.097  0.00  0.00    +0.000 NA
ATOM     14  H   UNL     1      43.068   3.132   9.848  0.00  0.00    +0.000 HD
ENDBRANCH   1  10
BRANCH   5  15
ATOM     15  C   UNL     1      47.790   3.616  16.409  0.00  0.00    +0.000 C 
ATOM     16  F   UNL     1      48.408   2.421  16.189  0.00  0.00    +0.000 F 
ATOM     17  F   UNL     1      48.654   4.341  17.173  0.00  0.00    +0.000 F 
ATOM     18  F   UNL     1      46.724   3.343  17.209  0.00  0.00    +0.000 F 
ENDBRANCH   5  15
BRANCH   3  19
ATOM     19  C   UNL     1      47.720   7.795  13.556  0.00  0.00    +0.000 C 
BRANCH  19  20
ATOM     20  C   UNL     1      47.476   8.297  12.132  0.00  0.00    +0.000 C 
BRANCH  20  21
ATOM     21  N   UNL     1      47.077   9.713  12.140  0.00  0.00    +0.000 N 
ATOM     22  C   UNL     1      45.739   9.902  11.729  0.00  0.00    +0.000 A 
ATOM     23  C   UNL     1      45.218  11.189  11.692  0.00  0.00    +0.000 A 
ATOM     24  C   UNL     1      43.893  11.386  11.303  0.00  0.00    +0.000 A 
ATOM     25  C   UNL     1      43.144  10.272  10.965  0.00  0.00    +0.000 A 
ATOM     26  N   UNL     1      43.652   9.022  11.015  0.00  0.00    +0.000 NA
ATOM     27  N   UNL     1      44.952   8.846  11.412  0.00  0.00    +0.000 NA
ATOM     28  H   UNL     1      47.682  10.293  11.561  0.00  0.00    +0.000 HD
BRANCH  25  29
ATOM     29  C   UNL     1      41.731  10.393  10.516  0.00  0.00    +0.000 C 
ATOM     30  N   UNL     1      40.819   9.623  11.188  0.00  0.00    +0.000 N 
ATOM     31  O   UNL     1      41.398  11.126   9.594  0.00  0.00    +0.000 OA
ATOM     32  H   UNL     1      41.105   9.019  11.951  0.00  0.00    +0.000 HD
ATOM     33  H   UNL     1      39.845   9.668  10.923  0.00  0.00    +0.000 HD
ENDBRANCH  25  29
ENDBRANCH  20  21
ENDBRANCH  19  20
ENDBRANCH   3  19
TORSDOF 6
ENDMDL
MODEL 8
REMARK VINA RESULT:    -6.472      5.252      7.502
REMARK INTER + INTRA:          -9.688
REMARK INTER:                  -8.774
REMARK INTRA:                  -0.914
REMARK UNBOUND:                -0.946
REMARK  Name = 
REMARK  7 active torsions:
REMARK  status: ('A' for Active; 'I' for Inactive)
REMARK    1  A    between atoms: C_1  and  C_2
REMARK    2  A    between atoms: N_4  and  C_5
REMARK    3  A    between atoms: C_7  and  C_8
REMARK    4  A    between atoms: C_8  and  C_9
REMARK    5  A    between atoms: C_9  and  N_10
REMARK    6  A    between atoms: C_14  and  C_15
REMARK    7  A    between atoms: C_21  and  C_22
REMARK                            x       y       z     vdW  Elec       q    Type
REMARK                         _______ _______ _______ _____ _____    ______ ____
ROOT
ATOM      1  C   UNL     1      49.376   6.659  19.425  0.00  0.00    +0.000 A 
ATOM      2  C   UNL     1      48.272   6.069  18.788  0.00  0.00    +0.000 A 
ATOM      3  C   UNL     1      48.345   4.825  18.134  0.00  0.00    +0.000 A 
ATOM      4  C   UNL     1      49.565   4.143  18.133  0.00  0.00    +0.000 A 
ATOM      5  C   UNL     1      50.688   4.690  18.764  0.00  0.00    +0.000 A 
ATOM      6  C   UNL     1      50.571   5.929  19.419  0.00  0.00    +0.000 A 
ENDROOT
BRANCH   1  10
ATOM      7  C   UNL     1      47.935   9.712  17.764  0.00  0.00    +0.000 C 
ATOM      8  C   UNL     1      48.695  10.142  19.022  0.00  0.00    +0.000 C 
ATOM      9  C   UNL     1      49.811   9.132  19.405  0.00  0.00    +0.000 C 
ATOM     10  N   UNL     1      49.267   7.908  20.012  0.00  0.00    +0.000 N 
ATOM     11  C   UNL     1      48.286   8.126  21.093  0.00  0.00    +0.000 C 
ATOM     12  C   UNL     1      47.214   9.162  20.680  0.00  0.00    +0.000 C 
ATOM     13  N   UNL     1      47.761  10.424  20.141  0.00  0.00    +0.000 NA
ATOM     14  H   UNL     1      48.301  10.864  20.887  0.00  0.00    +0.000 HD
ENDBRANCH   1  10
BRANCH   5  15
ATOM     15  C   UNL     1      52.030   4.005  18.705  0.00  0.00    +0.000 C 
ATOM     16  F   UNL     1      52.604   3.825  19.929  0.00  0.00    +0.000 F 
ATOM     17  F   UNL     1      51.955   2.763  18.149  0.00  0.00    +0.000 F 
ATOM     18  F   UNL     1      52.942   4.691  17.963  0.00  0.00    +0.000 F 
ENDBRANCH   5  15
BRANCH   3  19
ATOM     19  C   UNL     1      47.156   4.277  17.372  0.00  0.00    +0.000 C 
BRANCH  19  20
ATOM     20  C   UNL     1      47.433   4.021  15.890  0.00  0.00    +0.000 C 
BRANCH  20  21
ATOM     21  N   UNL     1      47.070   5.196  15.081  0.00  0.00    +0.000 N 
ATOM     22  C   UNL     1      46.369   4.849  13.905  0.00  0.00    +0.000 A 
ATOM     23  C   UNL     1      45.955   5.857  13.044  0.00  0.00    +0.000 A 
ATOM     24  C   UNL     1      45.248   5.528  11.886  0.00  0.00    +0.000 A 
ATOM     25  C   UNL     1      44.987   4.191  11.645  0.00  0.00    +0.000 A 
ATOM     26  N   UNL     1      45.381   3.216  12.492  0.00  0.00    +0.000 NA
ATOM     27  N   UNL     1      46.064   3.559  13.630  0.00  0.00    +0.000 NA
ATOM     28  H   UNL     1      47.879   5.759  14.826  0.00  0.00    +0.000 HD
BRANCH  25  29
ATOM     29  C   UNL     1      44.261   3.749  10.423  0.00  0.00    +0.000 C 
ATOM     30  N   UNL     1      44.193   4.661   9.402  0.00  0.00    +0.000 N 
ATOM     31  O   UNL     1      43.744   2.644  10.333  0.00  0.00    +0.000 OA
ATOM     32  H   UNL     1      44.626   5.574   9.487  0.00  0.00    +0.000 HD
ATOM     33  H   UNL     1      43.712   4.411   8.550  0.00  0.00    +0.000 HD
ENDBRANCH  25  29
ENDBRANCH  20  21
ENDBRANCH  19  20
ENDBRANCH   3  19
TORSDOF 6
ENDMDL
MODEL 9
REMARK VINA RESULT:    -6.307      4.520      6.855
REMARK INTER + INTRA:          -9.465
REMARK INTER:                  -8.614
REMARK INTRA:                  -0.851
REMARK UNBOUND:                -0.946
REMARK  Name = 
REMARK  7 active torsions:
REMARK  status: ('A' for Active; 'I' for Inactive)
REMARK    1  A    between atoms: C_1  and  C_2
REMARK    2  A    between atoms: N_4  and  C_5
REMARK    3  A    between atoms: C_7  and  C_8
REMARK    4  A    between atoms: C_8  and  C_9
REMARK    5  A    between atoms: C_9  and  N_10
REMARK    6  A    between atoms: C_14  and  C_15
REMARK    7  A    between atoms: C_21  and  C_22
REMARK                            x       y       z     vdW  Elec       q    Type
REMARK                         _______ _______ _______ _____ _____    ______ ____
ROOT
ATOM      1  C   UNL     1      50.818   5.477  17.281  0.00  0.00    +0.000 A 
ATOM      2  C   UNL     1      49.863   6.012  16.399  0.00  0.00    +0.000 A 
ATOM      3  C   UNL     1      50.171   7.014  15.462  0.00  0.00    +0.000 A 
ATOM      4  C   UNL     1      51.485   7.484  15.394  0.00  0.00    +0.000 A 
ATOM      5  C   UNL     1      52.470   6.972  16.247  0.00  0.00    +0.000 A 
ATOM      6  C   UNL     1      52.126   5.961  17.162  0.00  0.00    +0.000 A 
ENDROOT
BRANCH   1  10
ATOM      7  C   UNL     1      47.981   5.826  19.728  0.00  0.00    +0.000 C 
ATOM      8  C   UNL     1      48.875   4.662  20.165  0.00  0.00    +0.000 C 
ATOM      9  C   UNL     1      50.333   4.822  19.656  0.00  0.00    +0.000 C 
ATOM     10  N   UNL     1      50.456   4.527  18.221  0.00  0.00    +0.000 N 
ATOM     11  C   UNL     1      49.823   3.268  17.783  0.00  0.00    +0.000 C 
ATOM     12  C   UNL     1      48.386   3.136  18.339  0.00  0.00    +0.000 C 
ATOM     13  N   UNL     1      48.272   3.357  19.796  0.00  0.00    +0.000 NA
ATOM     14  H   UNL     1      48.818   2.627  20.256  0.00  0.00    +0.000 HD
ENDBRANCH   1  10
BRANCH   5  15
ATOM     15  C   UNL     1      53.873   7.524  16.242  0.00  0.00    +0.000 C 
ATOM     16  F   UNL     1      54.265   8.004  15.027  0.00  0.00    +0.000 F 
ATOM     17  F   UNL     1      54.027   8.559  17.114  0.00  0.00    +0.000 F 
ATOM     18  F   UNL     1      54.807   6.597  16.595  0.00  0.00    +0.000 F 
ENDBRANCH   5  15
BRANCH   3  19
ATOM     19  C   UNL     1      49.087   7.635  14.604  0.00  0.00    +0.000 C 
BRANCH  19  20
ATOM     20  C   UNL     1      47.957   6.671  14.238  0.00  0.00    +0.000 C 
BRANCH  20  21
ATOM     21  N   UNL     1      47.356   7.039  12.945  0.00  0.00    +0.000 N 
ATOM     22  C   UNL     1      46.542   6.013  12.415  0.00  0.00    +0.000 A 
ATOM     23  C   UNL     1      45.902   6.220  11.200  0.00  0.00    +0.000 A 
ATOM     24  C   UNL     1      45.082   5.220  10.674  0.00  0.00    +0.000 A 
ATOM     25  C   UNL     1      44.943   4.049  11.397  0.00  0.00    +0.000 A 
ATOM     26  N   UNL     1      45.558   3.859  12.584  0.00  0.00    +0.000 NA
ATOM     27  N   UNL     1      46.349   4.856  13.092  0.00  0.00    +0.000 NA
ATOM     28  H   UNL     1      48.053   7.296  12.249  0.00  0.00    +0.000 HD
BRANCH  25  29
ATOM     29  C   UNL     1      44.109   2.923  10.898  0.00  0.00    +0.000 C 
ATOM     30  N   UNL     1      44.639   2.193   9.867  0.00  0.00    +0.000 N 
ATOM     31  O   UNL     1      43.008   2.665  11.367  0.00  0.00    +0.000 OA
ATOM     32  H   UNL     1      45.553   2.415   9.485  0.00  0.00    +0.000 HD
ATOM     33  H   UNL     1      44.114   1.416   9.491  0.00  0.00    +0.000 HD
ENDBRANCH  25  29
ENDBRANCH  20  21
ENDBRANCH  19  20
ENDBRANCH   3  19
TORSDOF 6
ENDMDL
