MODEL 1
REMARK VINA RESULT:    -8.039      0.000      0.000
REMARK INTER + INTRA:          -9.878
REMARK INTER:                  -9.449
REMARK INTRA:                  -0.429
REMARK UNBOUND:                -0.429
REMARK  Name = 
REMARK  3 active torsions:
REMARK  status: ('A' for Active; 'I' for Inactive)
REMARK    1  A    between atoms: C_2  and  C_4
REMARK    2  A    between atoms: N_8  and  C_9
REMARK    3  A    between atoms: C_9  and  C_10
REMARK                            x       y       z     vdW  Elec       q    Type
REMARK                         _______ _______ _______ _____ _____    ______ ____
ROOT
ATOM      1  C   UNL     1      46.219   2.103   7.946  0.00  0.00    +0.000 A 
ATOM      2  C   UNL     1      46.286   3.441   7.569  0.00  0.00    +0.000 A 
ATOM      3  C   UNL     1      45.436   4.359   8.189  0.00  0.00    +0.000 A 
ATOM      4  C   UNL     1      44.584   3.942   9.210  0.00  0.00    +0.000 A 
ATOM      5  N   UNL     1      43.746   4.900   9.806  0.00  0.00    +0.000 N 
ATOM      6  N   UNL     1      44.496   2.642   9.563  0.00  0.00    +0.000 NA
ATOM      7  C   UNL     1      45.290   1.750   8.913  0.00  0.00    +0.000 A 
ATOM      8  H   UNL     1      44.209   5.800   9.804  0.00  0.00    +0.000 HD
ENDROOT
BRANCH   1  10
ATOM      9  N   UNL     1      46.789  -0.238   7.679  0.00  0.00    +0.000 N 
ATOM     10  C   UNL     1      47.076   1.059   7.356  0.00  0.00    +0.000 C 
ATOM     11  O   UNL     1      47.976   1.332   6.574  0.00  0.00    +0.000 OA
ATOM     12  H   UNL     1      47.304  -0.948   7.169  0.00  0.00    +0.000 HD
ATOM     13  H   UNL     1      45.907  -0.512   8.092  0.00  0.00    +0.000 HD
ENDBRANCH   1  10
BRANCH   5  14
ATOM     14  C   UNL     1      43.286   4.533  11.148  0.00  0.00    +0.000 C 
BRANCH  14  15
ATOM     15  C   UNL     1      44.184   5.156  12.239  0.00  0.00    +0.000 C 
ATOM     16  C   UNL     1      44.826   6.469  11.763  0.00  0.00    +0.000 C 
ATOM     17  C   UNL     1      45.727   7.086  12.830  0.00  0.00    +0.000 C 
ATOM     18  C   UNL     1      46.782   6.096  13.311  0.00  0.00    +0.000 C 
ATOM     19  C   UNL     1      46.139   4.814  13.829  0.00  0.00    +0.000 C 
ATOM     20  C   UNL     1      45.243   4.172  12.771  0.00  0.00    +0.000 C 
ENDBRANCH  14  15
ENDBRANCH   5  14
TORSDOF 3
ENDMDL
MODEL 2
REMARK VINA RESULT:    -7.449      2.920      6.317
REMARK INTER + INTRA:          -9.184
REMARK INTER:                  -8.864
REMARK INTRA:                  -0.319
REMARK UNBOUND:                -0.429
REMARK  Name = 
REMARK  3 active torsions:
REMARK  status: ('A' for Active; 'I' for Inactive)
REMARK    1  A    between atoms: C_2  and  C_4
REMARK    2  A    between atoms: N_8  and  C_9
REMARK    3  A    between atoms: C_9  and  C_10
REMARK                            x       y       z     vdW  Elec       q    Type
REMARK                         _______ _______ _______ _____ _____    ______ ____
ROOT
ATOM      1  C   UNL     1      46.695   5.554  13.082  0.00  0.00    +0.000 A 
ATOM      2  C   UNL     1      46.311   4.237  13.314  0.00  0.00    +0.000 A 
ATOM      3  C   UNL     1      45.508   3.593  12.371  0.00  0.00    +0.000 A 
ATOM      4  C   UNL     1      45.155   4.247  11.192  0.00  0.00    +0.000 A 
ATOM      5  N   UNL     1      44.345   3.560  10.271  0.00  0.00    +0.000 N 
ATOM      6  N   UNL     1      45.503   5.532  10.972  0.00  0.00    +0.000 NA
ATOM      7  C   UNL     1      46.239   6.165  11.924  0.00  0.00    +0.000 A 
ATOM      8  H   UNL     1      44.550   2.570  10.316  0.00  0.00    +0.000 HD
ENDROOT
BRANCH   1  10
ATOM      9  N   UNL     1      47.383   7.676  14.032  0.00  0.00    +0.000 N 
ATOM     10  C   UNL     1      47.546   6.318  14.012  0.00  0.00    +0.000 C 
ATOM     11  O   UNL     1      48.330   5.764  14.769  0.00  0.00    +0.000 OA
ATOM     12  H   UNL     1      47.881   8.173  14.763  0.00  0.00    +0.000 HD
ATOM     13  H   UNL     1      46.573   8.131  13.630  0.00  0.00    +0.000 HD
ENDBRANCH   1  10
BRANCH   5  14
ATOM     14  C   UNL     1      44.441   4.070   8.901  0.00  0.00    +0.000 C 
BRANCH  14  15
ATOM     15  C   UNL     1      45.191   3.080   7.985  0.00  0.00    +0.000 C 
ATOM     16  C   UNL     1      45.672   1.843   8.761  0.00  0.00    +0.000 C 
ATOM     17  C   UNL     1      46.427   0.862   7.866  0.00  0.00    +0.000 C 
ATOM     18  C   UNL     1      47.582   1.544   7.141  0.00  0.00    +0.000 C 
ATOM     19  C   UNL     1      47.095   2.742   6.332  0.00  0.00    +0.000 C 
ATOM     20  C   UNL     1      46.347   3.743   7.212  0.00  0.00    +0.000 C 
ENDBRANCH  14  15
ENDBRANCH   5  14
TORSDOF 3
ENDMDL
MODEL 3
REMARK VINA RESULT:    -7.442      2.920      6.415
REMARK INTER + INTRA:          -9.175
REMARK INTER:                  -8.820
REMARK INTRA:                  -0.355
REMARK UNBOUND:                -0.429
REMARK  Name = 
REMARK  3 active torsions:
REMARK  status: ('A' for Active; 'I' for Inactive)
REMARK    1  A    between atoms: C_2  and  C_4
REMARK    2  A    between atoms: N_8  and  C_9
REMARK    3  A    between atoms: C_9  and  C_10
REMARK                            x       y       z     vdW  Elec       q    Type
REMARK                         _______ _______ _______ _____ _____    ______ ____
ROOT
ATOM      1  C   UNL     1      45.429   6.731  12.479  0.00  0.00    +0.000 A 
ATOM      2  C   UNL     1      46.043   5.668  13.136  0.00  0.00    +0.000 A 
ATOM      3  C   UNL     1      45.795   4.368  12.691  0.00  0.00    +0.000 A 
ATOM      4  C   UNL     1      44.994   4.154  11.570  0.00  0.00    +0.000 A 
ATOM      5  N   UNL     1      44.772   2.829  11.158  0.00  0.00    +0.000 N 
ATOM      6  N   UNL     1      44.376   5.178  10.945  0.00  0.00    +0.000 NA
ATOM      7  C   UNL     1      44.583   6.435  11.422  0.00  0.00    +0.000 A 
ATOM      8  H   UNL     1      45.587   2.270  11.371  0.00  0.00    +0.000 HD
ENDROOT
BRANCH   1  10
ATOM      9  N   UNL     1      44.663   9.031  12.500  0.00  0.00    +0.000 N 
ATOM     10  C   UNL     1      45.631   8.138  12.868  0.00  0.00    +0.000 C 
ATOM     11  O   UNL     1      46.596   8.489  13.532  0.00  0.00    +0.000 OA
ATOM     12  H   UNL     1      44.752   9.966  12.881  0.00  0.00    +0.000 HD
ATOM     13  H   UNL     1      43.742   8.738  12.197  0.00  0.00    +0.000 HD
ENDBRANCH   1  10
BRANCH   5  14
ATOM     14  C   UNL     1      44.383   2.703   9.751  0.00  0.00    +0.000 C 
BRANCH  14  15
ATOM     15  C   UNL     1      45.620   2.629   8.831  0.00  0.00    +0.000 C 
ATOM     16  C   UNL     1      45.530   3.643   7.679  0.00  0.00    +0.000 C 
ATOM     17  C   UNL     1      46.743   3.569   6.754  0.00  0.00    +0.000 C 
ATOM     18  C   UNL     1      46.961   2.153   6.231  0.00  0.00    +0.000 C 
ATOM     19  C   UNL     1      47.100   1.157   7.377  0.00  0.00    +0.000 C 
ATOM     20  C   UNL     1      45.889   1.206   8.308  0.00  0.00    +0.000 C 
ENDBRANCH  14  15
ENDBRANCH   5  14
TORSDOF 3
ENDMDL
MODEL 4
REMARK VINA RESULT:    -6.831      1.393      1.760
REMARK INTER + INTRA:          -8.458
REMARK INTER:                  -8.229
REMARK INTRA:                  -0.229
REMARK UNBOUND:                -0.429
REMARK  Name = 
REMARK  3 active torsions:
REMARK  status: ('A' for Active; 'I' for Inactive)
REMARK    1  A    between atoms: C_2  and  C_4
REMARK    2  A    between atoms: N_8  and  C_9
REMARK    3  A    between atoms: C_9  and  C_10
REMARK                            x       y       z     vdW  Elec       q    Type
REMARK                         _______ _______ _______ _____ _____    ______ ____
ROOT
ATOM      1  C   UNL     1      46.506   2.799   7.303  0.00  0.00    +0.000 A 
ATOM      2  C   UNL     1      45.930   1.682   7.901  0.00  0.00    +0.000 A 
ATOM      3  C   UNL     1      45.143   1.859   9.040  0.00  0.00    +0.000 A 
ATOM      4  C   UNL     1      44.895   3.142   9.526  0.00  0.00    +0.000 A 
ATOM      5  N   UNL     1      44.097   3.272  10.676  0.00  0.00    +0.000 N 
ATOM      6  N   UNL     1      45.472   4.226   8.966  0.00  0.00    +0.000 NA
ATOM      7  C   UNL     1      46.280   4.034   7.890  0.00  0.00    +0.000 A 
ATOM      8  H   UNL     1      43.409   2.531  10.693  0.00  0.00    +0.000 HD
ENDROOT
BRANCH   1  10
ATOM      9  N   UNL     1      48.667   2.409   6.276  0.00  0.00    +0.000 N 
ATOM     10  C   UNL     1      47.347   2.718   6.096  0.00  0.00    +0.000 C 
ATOM     11  O   UNL     1      46.881   2.873   4.976  0.00  0.00    +0.000 OA
ATOM     12  H   UNL     1      49.202   2.233   5.432  0.00  0.00    +0.000 HD
ATOM     13  H   UNL     1      49.019   2.015   7.139  0.00  0.00    +0.000 HD
ENDBRANCH   1  10
BRANCH   5  14
ATOM     14  C   UNL     1      43.475   4.591  10.819  0.00  0.00    +0.000 C 
BRANCH  14  15
ATOM     15  C   UNL     1      44.177   5.428  11.908  0.00  0.00    +0.000 C 
ATOM     16  C   UNL     1      44.629   6.795  11.368  0.00  0.00    +0.000 C 
ATOM     17  C   UNL     1      45.338   7.627  12.435  0.00  0.00    +0.000 C 
ATOM     18  C   UNL     1      46.503   6.864  13.056  0.00  0.00    +0.000 C 
ATOM     19  C   UNL     1      46.042   5.530  13.635  0.00  0.00    +0.000 C 
ATOM     20  C   UNL     1      45.341   4.675  12.579  0.00  0.00    +0.000 C 
ENDBRANCH  14  15
ENDBRANCH   5  14
TORSDOF 3
ENDMDL
MODEL 5
REMARK VINA RESULT:    -6.768      3.334      6.228
REMARK INTER + INTRA:          -8.383
REMARK INTER:                  -8.072
REMARK INTRA:                  -0.311
REMARK UNBOUND:                -0.429
REMARK  Name = 
REMARK  3 active torsions:
REMARK  status: ('A' for Active; 'I' for Inactive)
REMARK    1  A    between atoms: C_2  and  C_4
REMARK    2  A    between atoms: N_8  and  C_9
REMARK    3  A    between atoms: C_9  and  C_10
REMARK                            x       y       z     vdW  Elec       q    Type
REMARK                         _______ _______ _______ _____ _____    ______ ____
ROOT
ATOM      1  C   UNL     1      47.033   4.888  14.336  0.00  0.00    +0.000 A 
ATOM      2  C   UNL     1      47.126   6.152  13.760  0.00  0.00    +0.000 A 
ATOM      3  C   UNL     1      46.584   6.354  12.490  0.00  0.00    +0.000 A 
ATOM      4  C   UNL     1      45.909   5.319  11.845  0.00  0.00    +0.000 A 
ATOM      5  N   UNL     1      45.379   5.568  10.568  0.00  0.00    +0.000 N 
ATOM      6  N   UNL     1      45.838   4.085  12.387  0.00  0.00    +0.000 NA
ATOM      7  C   UNL     1      46.418   3.887  13.601  0.00  0.00    +0.000 A 
ATOM      8  H   UNL     1      45.097   6.537  10.504  0.00  0.00    +0.000 HD
ENDROOT
BRANCH   1  10
ATOM      9  N   UNL     1      46.900   3.633  16.406  0.00  0.00    +0.000 N 
ATOM     10  C   UNL     1      47.568   4.575  15.673  0.00  0.00    +0.000 C 
ATOM     11  O   UNL     1      48.591   5.095  16.095  0.00  0.00    +0.000 OA
ATOM     12  H   UNL     1      47.348   3.337  17.266  0.00  0.00    +0.000 HD
ATOM     13  H   UNL     1      46.228   3.000  15.992  0.00  0.00    +0.000 HD
ENDBRANCH   1  10
BRANCH   5  14
ATOM     14  C   UNL     1      44.291   4.662  10.190  0.00  0.00    +0.000 C 
BRANCH  14  15
ATOM     15  C   UNL     1      44.712   3.730   9.034  0.00  0.00    +0.000 C 
ATOM     16  C   UNL     1      45.097   2.332   9.545  0.00  0.00    +0.000 C 
ATOM     17  C   UNL     1      45.528   1.406   8.411  0.00  0.00    +0.000 C 
ATOM     18  C   UNL     1      46.651   2.022   7.582  0.00  0.00    +0.000 C 
ATOM     19  C   UNL     1      46.247   3.387   7.035  0.00  0.00    +0.000 C 
ATOM     20  C   UNL     1      45.824   4.335   8.157  0.00  0.00    +0.000 C 
ENDBRANCH  14  15
ENDBRANCH   5  14
TORSDOF 3
ENDMDL
MODEL 6
REMARK VINA RESULT:    -6.226      3.377      6.328
REMARK INTER + INTRA:          -7.747
REMARK INTER:                  -7.294
REMARK INTRA:                  -0.453
REMARK UNBOUND:                -0.429
REMARK  Name = 
REMARK  3 active torsions:
REMARK  status: ('A' for Active; 'I' for Inactive)
REMARK    1  A    between atoms: C_2  and  C_4
REMARK    2  A    between atoms: N_8  and  C_9
REMARK    3  A    between atoms: C_9  and  C_10
REMARK                            x       y       z     vdW  Elec       q    Type
REMARK                         _______ _______ _______ _____ _____    ______ ____
ROOT
ATOM      1  C   UNL     1      47.434   6.775  13.193  0.00  0.00    +0.000 A 
ATOM      2  C   UNL     1      47.297   5.455  13.613  0.00  0.00    +0.000 A 
ATOM      3  C   UNL     1      46.253   4.688  13.093  0.00  0.00    +0.000 A 
ATOM      4  C   UNL     1      45.405   5.226  12.126  0.00  0.00    +0.000 A 
ATOM      5  N   UNL     1      44.368   4.417  11.631  0.00  0.00    +0.000 N 
ATOM      6  N   UNL     1      45.517   6.512  11.734  0.00  0.00    +0.000 NA
ATOM      7  C   UNL     1      46.505   7.264  12.288  0.00  0.00    +0.000 A 
ATOM      8  H   UNL     1      44.665   3.450  11.631  0.00  0.00    +0.000 HD
ENDROOT
BRANCH   1  10
ATOM      9  N   UNL     1      49.742   7.107  13.854  0.00  0.00    +0.000 N 
ATOM     10  C   UNL     1      48.505   7.663  13.677  0.00  0.00    +0.000 C 
ATOM     11  O   UNL     1      48.314   8.856  13.868  0.00  0.00    +0.000 OA
ATOM     12  H   UNL     1      50.495   7.754  14.064  0.00  0.00    +0.000 HD
ATOM     13  H   UNL     1      49.997   6.213  13.455  0.00  0.00    +0.000 HD
ENDBRANCH   1  10
BRANCH   5  14
ATOM     14  C   UNL     1      43.870   4.829  10.316  0.00  0.00    +0.000 C 
BRANCH  14  15
ATOM     15  C   UNL     1      44.363   3.877   9.206  0.00  0.00    +0.000 C 
ATOM     16  C   UNL     1      44.638   2.466   9.750  0.00  0.00    +0.000 C 
ATOM     17  C   UNL     1      45.140   1.519   8.662  0.00  0.00    +0.000 C 
ATOM     18  C   UNL     1      46.363   2.086   7.949  0.00  0.00    +0.000 C 
ATOM     19  C   UNL     1      46.072   3.465   7.367  0.00  0.00    +0.000 C 
ATOM     20  C   UNL     1      45.581   4.433   8.443  0.00  0.00    +0.000 C 
ENDBRANCH  14  15
ENDBRANCH   5  14
TORSDOF 3
ENDMDL
MODEL 7
REMARK VINA RESULT:    -5.775      4.054      5.764
REMARK INTER + INTRA:          -7.217
REMARK INTER:                  -7.010
REMARK INTRA:                  -0.206
REMARK UNBOUND:                -0.429
REMARK  Name = 
REMARK  3 active torsions:
REMARK  status: ('A' for Active; 'I' for Inactive)
REMARK    1  A    between atoms: C_2  and  C_4
REMARK    2  A    between atoms: N_8  and  C_9
REMARK    3  A    between atoms: C_9  and  C_10
REMARK                            x       y       z     vdW  Elec       q    Type
REMARK                         _______ _______ _______ _____ _____    ______ ____
ROOT
ATOM      1  C   UNL     1      45.032   4.483  11.360  0.00  0.00    +0.000 A 
ATOM      2  C   UNL     1      45.718   5.691  11.442  0.00  0.00    +0.000 A 
ATOM      3  C   UNL     1      46.373   6.013  12.632  0.00  0.00    +0.000 A 
ATOM      4  C   UNL     1      46.384   5.107  13.691  0.00  0.00    +0.000 A 
ATOM      5  N   UNL     1      47.056   5.474  14.870  0.00  0.00    +0.000 N 
ATOM      6  N   UNL     1      45.699   3.947  13.627  0.00  0.00    +0.000 NA
ATOM      7  C   UNL     1      45.020   3.669  12.482  0.00  0.00    +0.000 A 
ATOM      8  H   UNL     1      47.844   6.065  14.638  0.00  0.00    +0.000 HD
ENDROOT
BRANCH   1  10
ATOM      9  N   UNL     1      44.611   4.700   8.982  0.00  0.00    +0.000 N 
ATOM     10  C   UNL     1      44.315   4.048  10.148  0.00  0.00    +0.000 C 
ATOM     11  O   UNL     1      43.524   3.116  10.168  0.00  0.00    +0.000 OA
ATOM     12  H   UNL     1      44.207   4.309   8.139  0.00  0.00    +0.000 HD
ATOM     13  H   UNL     1      45.437   5.275   8.878  0.00  0.00    +0.000 HD
ENDBRANCH   1  10
BRANCH   5  14
ATOM     14  C   UNL     1      47.459   4.338  15.701  0.00  0.00    +0.000 C 
BRANCH  14  15
ATOM     15  C   UNL     1      48.134   4.808  17.007  0.00  0.00    +0.000 C 
ATOM     16  C   UNL     1      49.226   3.827  17.466  0.00  0.00    +0.000 C 
ATOM     17  C   UNL     1      49.891   4.277  18.765  0.00  0.00    +0.000 C 
ATOM     18  C   UNL     1      48.863   4.516  19.866  0.00  0.00    +0.000 C 
ATOM     19  C   UNL     1      47.809   5.527  19.426  0.00  0.00    +0.000 C 
ATOM     20  C   UNL     1      47.121   5.089  18.133  0.00  0.00    +0.000 C 
ENDBRANCH  14  15
ENDBRANCH   5  14
TORSDOF 3
ENDMDL
MODEL 8
REMARK VINA RESULT:    -5.549      5.620      8.060
REMARK INTER + INTRA:          -6.951
REMARK INTER:                  -6.709
REMARK INTRA:                  -0.243
REMARK UNBOUND:                -0.429
REMARK  Name = 
REMARK  3 active torsions:
REMARK  status: ('A' for Active; 'I' for Inactive)
REMARK    1  A    between atoms: C_2  and  C_4
REMARK    2  A    between atoms: N_8  and  C_9
REMARK    3  A    between atoms: C_9  and  C_10
REMARK                            x       y       z     vdW  Elec       q    Type
REMARK                         _______ _______ _______ _____ _____    ______ ____
ROOT
ATOM      1  C   UNL     1      49.397   4.339  17.776  0.00  0.00    +0.000 A 
ATOM      2  C   UNL     1      48.501   3.278  17.680  0.00  0.00    +0.000 A 
ATOM      3  C   UNL     1      47.505   3.323  16.703  0.00  0.00    +0.000 A 
ATOM      4  C   UNL     1      47.455   4.389  15.805  0.00  0.00    +0.000 A 
ATOM      5  N   UNL     1      46.435   4.393  14.839  0.00  0.00    +0.000 N 
ATOM      6  N   UNL     1      48.304   5.433  15.909  0.00  0.00    +0.000 NA
ATOM      7  C   UNL     1      49.235   5.401  16.900  0.00  0.00    +0.000 A 
ATOM      8  H   UNL     1      46.212   3.441  14.581  0.00  0.00    +0.000 HD
ENDROOT
BRANCH   1  10
ATOM      9  N   UNL     1      50.126   4.414  20.087  0.00  0.00    +0.000 N 
ATOM     10  C   UNL     1      50.486   4.382  18.768  0.00  0.00    +0.000 C 
ATOM     11  O   UNL     1      51.661   4.344  18.434  0.00  0.00    +0.000 OA
ATOM     12  H   UNL     1      50.880   4.315  20.756  0.00  0.00    +0.000 HD
ATOM     13  H   UNL     1      49.193   4.176  20.400  0.00  0.00    +0.000 HD
ENDBRANCH   1  10
BRANCH   5  14
ATOM     14  C   UNL     1      46.736   5.215  13.664  0.00  0.00    +0.000 C 
BRANCH  14  15
ATOM     15  C   UNL     1      45.701   4.988  12.541  0.00  0.00    +0.000 C 
ATOM     16  C   UNL     1      44.482   5.911  12.699  0.00  0.00    +0.000 C 
ATOM     17  C   UNL     1      43.446   5.685  11.600  0.00  0.00    +0.000 C 
ATOM     18  C   UNL     1      43.026   4.221  11.521  0.00  0.00    +0.000 C 
ATOM     19  C   UNL     1      44.233   3.312  11.314  0.00  0.00    +0.000 C 
ATOM     20  C   UNL     1      45.277   3.513  12.411  0.00  0.00    +0.000 C 
ENDBRANCH  14  15
ENDBRANCH   5  14
TORSDOF 3
ENDMDL
MODEL 9
REMARK VINA RESULT:    -5.342      3.526      5.343
REMARK INTER + INTRA:          -6.707
REMARK INTER:                  -6.486
REMARK INTRA:                  -0.222
REMARK UNBOUND:                -0.429
REMARK  Name = 
REMARK  3 active torsions:
REMARK  status: ('A' for Active; 'I' for Inactive)
REMARK    1  A    between atoms: C_2  and  C_4
REMARK    2  A    between atoms: N_8  and  C_9
REMARK    3  A    between atoms: C_9  and  C_10
REMARK                            x       y       z     vdW  Elec       q    Type
REMARK                         _______ _______ _______ _____ _____    ______ ____
ROOT
ATOM      1  C   UNL     1      44.830   3.962  11.687  0.00  0.00    +0.000 A 
ATOM      2  C   UNL     1      45.410   3.790  12.941  0.00  0.00    +0.000 A 
ATOM      3  C   UNL     1      46.068   4.870  13.532  0.00  0.00    +0.000 A 
ATOM      4  C   UNL     1      46.085   6.110  12.897  0.00  0.00    +0.000 A 
ATOM      5  N   UNL     1      46.759   7.169  13.529  0.00  0.00    +0.000 N 
ATOM      6  N   UNL     1      45.547   6.277  11.671  0.00  0.00    +0.000 NA
ATOM      7  C   UNL     1      44.957   5.203  11.082  0.00  0.00    +0.000 A 
ATOM      8  H   UNL     1      46.689   7.062  14.532  0.00  0.00    +0.000 HD
ENDROOT
BRANCH   1  10
ATOM      9  N   UNL     1      44.737   2.314   9.911  0.00  0.00    +0.000 N 
ATOM     10  C   UNL     1      44.109   2.887  10.983  0.00  0.00    +0.000 C 
ATOM     11  O   UNL     1      43.018   2.488  11.364  0.00  0.00    +0.000 OA
ATOM     12  H   UNL     1      44.287   1.496   9.517  0.00  0.00    +0.000 HD
ATOM     13  H   UNL     1      45.728   2.427   9.740  0.00  0.00    +0.000 HD
ENDBRANCH   1  10
BRANCH   5  14
ATOM     14  C   UNL     1      46.317   8.497  13.096  0.00  0.00    +0.000 C 
BRANCH  14  15
ATOM     15  C   UNL     1      47.314   9.123  12.098  0.00  0.00    +0.000 C 
ATOM     16  C   UNL     1      48.765   8.738  12.430  0.00  0.00    +0.000 C 
ATOM     17  C   UNL     1      49.762   9.363  11.457  0.00  0.00    +0.000 C 
ATOM     18  C   UNL     1      49.594  10.877  11.382  0.00  0.00    +0.000 C 
ATOM     19  C   UNL     1      48.166  11.256  11.004  0.00  0.00    +0.000 C 
ATOM     20  C   UNL     1      47.152  10.650  11.974  0.00  0.00    +0.000 C 
ENDBRANCH  14  15
ENDBRANCH   5  14
TORSDOF 3
ENDMDL
