MODEL 1
REMARK VINA RESULT:    -8.497      0.000      0.000
REMARK INTER + INTRA:         -10.636
REMARK INTER:                  -9.987
REMARK INTRA:                  -0.649
REMARK UNBOUND:                -0.649
REMARK  Name = 
REMARK  3 active torsions:
REMARK  status: ('A' for Active; 'I' for Inactive)
REMARK    1  A    between atoms: C_2  and  C_4
REMARK    2  A    between atoms: N_8  and  C_9
REMARK    3  A    between atoms: C_9  and  C_10
REMARK                            x       y       z     vdW  Elec       q    Type
REMARK                         _______ _______ _______ _____ _____    ______ ____
ROOT
ATOM      1  C   UNL     1      46.536   2.692   7.521  0.00  0.00    +0.000 A 
ATOM      2  C   UNL     1      46.244   4.039   7.696  0.00  0.00    +0.000 A 
ATOM      3  C   UNL     1      45.374   4.425   8.718  0.00  0.00    +0.000 A 
ATOM      4  C   UNL     1      44.806   3.460   9.539  0.00  0.00    +0.000 A 
ATOM      5  N   UNL     1      43.841   3.755  10.508  0.00  0.00    +0.000 N 
ATOM      6  N   UNL     1      45.081   2.148   9.378  0.00  0.00    +0.000 NA
ATOM      7  C   UNL     1      45.929   1.787   8.378  0.00  0.00    +0.000 A 
ATOM      8  H   UNL     1      43.663   2.876  10.990  0.00  0.00    +0.000 HD
ENDROOT
BRANCH   1  10
ATOM      9  N   UNL     1      47.631   3.048   5.384  0.00  0.00    +0.000 N 
ATOM     10  C   UNL     1      47.410   2.198   6.436  0.00  0.00    +0.000 C 
ATOM     11  O   UNL     1      47.927   1.091   6.477  0.00  0.00    +0.000 OA
ATOM     12  H   UNL     1      48.275   2.731   4.668  0.00  0.00    +0.000 HD
ATOM     13  H   UNL     1      47.419   4.034   5.420  0.00  0.00    +0.000 HD
ENDBRANCH   1  10
BRANCH   5  14
ATOM     14  C   UNL     1      43.827   4.965  11.347  0.00  0.00    +0.000 C 
ATOM     15  C   UNL     1      42.504   5.205  12.066  0.00  0.00    +0.000 C 
ATOM     16  C   UNL     1      42.978   6.188  11.053  0.00  0.00    +0.000 C 
BRANCH  14  17
ATOM     17  C   UNL     1      45.128   5.180  12.118  0.00  0.00    +0.000 A 
ATOM     18  C   UNL     1      45.560   4.271  13.102  0.00  0.00    +0.000 A 
ATOM     19  C   UNL     1      46.780   4.432  13.765  0.00  0.00    +0.000 A 
ATOM     20  C   UNL     1      47.603   5.512  13.454  0.00  0.00    +0.000 A 
ATOM     21  C   UNL     1      47.192   6.429  12.492  0.00  0.00    +0.000 A 
ATOM     22 BR   UNL     1      48.307   7.892  12.055  0.00  0.00    +0.000 Br
ATOM     23  C   UNL     1      45.969   6.271  11.836  0.00  0.00    +0.000 A 
ENDBRANCH  14  17
ENDBRANCH   5  14
TORSDOF 3
ENDMDL
MODEL 2
REMARK VINA RESULT:    -6.427      3.963      6.657
REMARK INTER + INTRA:          -8.203
REMARK INTER:                  -7.972
REMARK INTRA:                  -0.231
REMARK UNBOUND:                -0.649
REMARK  Name = 
REMARK  3 active torsions:
REMARK  status: ('A' for Active; 'I' for Inactive)
REMARK    1  A    between atoms: C_2  and  C_4
REMARK    2  A    between atoms: N_8  and  C_9
REMARK    3  A    between atoms: C_9  and  C_10
REMARK                            x       y       z     vdW  Elec       q    Type
REMARK                         _______ _______ _______ _____ _____    ______ ____
ROOT
ATOM      1  C   UNL     1      47.763   5.673  14.821  0.00  0.00    +0.000 A 
ATOM      2  C   UNL     1      46.885   4.595  14.830  0.00  0.00    +0.000 A 
ATOM      3  C   UNL     1      46.013   4.413  13.755  0.00  0.00    +0.000 A 
ATOM      4  C   UNL     1      46.026   5.312  12.698  0.00  0.00    +0.000 A 
ATOM      5  N   UNL     1      45.109   5.264  11.643  0.00  0.00    +0.000 N 
ATOM      6  N   UNL     1      46.873   6.365  12.679  0.00  0.00    +0.000 NA
ATOM      7  C   UNL     1      47.716   6.530  13.733  0.00  0.00    +0.000 A 
ATOM      8  H   UNL     1      45.400   5.994  10.995  0.00  0.00    +0.000 HD
ENDROOT
BRANCH   1  10
ATOM      9  N   UNL     1      48.155   5.927  17.204  0.00  0.00    +0.000 N 
ATOM     10  C   UNL     1      48.685   5.961  15.941  0.00  0.00    +0.000 C 
ATOM     11  O   UNL     1      49.869   6.202  15.755  0.00  0.00    +0.000 OA
ATOM     12  H   UNL     1      48.799   6.069  17.973  0.00  0.00    +0.000 HD
ATOM     13  H   UNL     1      47.259   5.512  17.414  0.00  0.00    +0.000 HD
ENDBRANCH   1  10
BRANCH   5  14
ATOM     14  C   UNL     1      44.588   4.029  11.032  0.00  0.00    +0.000 C 
ATOM     15  C   UNL     1      43.080   3.856  11.173  0.00  0.00    +0.000 C 
ATOM     16  C   UNL     1      43.996   2.878  11.823  0.00  0.00    +0.000 C 
BRANCH  14  17
ATOM     17  C   UNL     1      45.239   3.700   9.689  0.00  0.00    +0.000 A 
ATOM     18  C   UNL     1      45.632   4.711   8.793  0.00  0.00    +0.000 A 
ATOM     19  C   UNL     1      46.284   4.416   7.592  0.00  0.00    +0.000 A 
ATOM     20  C   UNL     1      46.562   3.092   7.261  0.00  0.00    +0.000 A 
ATOM     21  C   UNL     1      46.174   2.075   8.126  0.00  0.00    +0.000 A 
ATOM     22 BR   UNL     1      46.557   0.275   7.690  0.00  0.00    +0.000 Br
ATOM     23  C   UNL     1      45.516   2.371   9.323  0.00  0.00    +0.000 A 
ENDBRANCH  14  17
ENDBRANCH   5  14
TORSDOF 3
ENDMDL
MODEL 3
REMARK VINA RESULT:    -5.509      3.575      5.463
REMARK INTER + INTRA:          -7.124
REMARK INTER:                  -7.105
REMARK INTRA:                  -0.019
REMARK UNBOUND:                -0.649
REMARK  Name = 
REMARK  3 active torsions:
REMARK  status: ('A' for Active; 'I' for Inactive)
REMARK    1  A    between atoms: C_2  and  C_4
REMARK    2  A    between atoms: N_8  and  C_9
REMARK    3  A    between atoms: C_9  and  C_10
REMARK                            x       y       z     vdW  Elec       q    Type
REMARK                         _______ _______ _______ _____ _____    ______ ____
ROOT
ATOM      1  C   UNL     1      44.915   4.980  11.017  0.00  0.00    +0.000 A 
ATOM      2  C   UNL     1      45.883   5.849  10.528  0.00  0.00    +0.000 A 
ATOM      3  C   UNL     1      46.596   6.653  11.421  0.00  0.00    +0.000 A 
ATOM      4  C   UNL     1      46.323   6.581  12.780  0.00  0.00    +0.000 A 
ATOM      5  N   UNL     1      46.911   7.431  13.722  0.00  0.00    +0.000 N 
ATOM      6  N   UNL     1      45.383   5.741  13.266  0.00  0.00    +0.000 NA
ATOM      7  C   UNL     1      44.697   4.966  12.385  0.00  0.00    +0.000 A 
ATOM      8  H   UNL     1      46.577   7.106  14.628  0.00  0.00    +0.000 HD
ENDROOT
BRANCH   1  10
ATOM      9  N   UNL     1      44.143   4.392   8.791  0.00  0.00    +0.000 N 
ATOM     10  C   UNL     1      44.087   4.130  10.135  0.00  0.00    +0.000 C 
ATOM     11  O   UNL     1      43.395   3.224  10.577  0.00  0.00    +0.000 OA
ATOM     12  H   UNL     1      43.620   3.773   8.183  0.00  0.00    +0.000 HD
ATOM     13  H   UNL     1      44.863   4.962   8.372  0.00  0.00    +0.000 HD
ENDBRANCH   1  10
BRANCH   5  14
ATOM     14  C   UNL     1      48.304   7.905  13.681  0.00  0.00    +0.000 C 
ATOM     15  C   UNL     1      48.443   9.400  13.414  0.00  0.00    +0.000 C 
ATOM     16  C   UNL     1      48.984   8.426  12.427  0.00  0.00    +0.000 C 
BRANCH  14  17
ATOM     17  C   UNL     1      49.191   7.268  14.749  0.00  0.00    +0.000 A 
ATOM     18  C   UNL     1      50.558   7.583  14.857  0.00  0.00    +0.000 A 
ATOM     19  C   UNL     1      51.357   7.049  15.872  0.00  0.00    +0.000 A 
ATOM     20  C   UNL     1      50.801   6.185  16.812  0.00  0.00    +0.000 A 
ATOM     21  C   UNL     1      49.453   5.851  16.720  0.00  0.00    +0.000 A 
ATOM     22 BR   UNL     1      48.686   4.687  17.997  0.00  0.00    +0.000 Br
ATOM     23  C   UNL     1      48.658   6.379  15.700  0.00  0.00    +0.000 A 
ENDBRANCH  14  17
ENDBRANCH   5  14
TORSDOF 3
ENDMDL
MODEL 4
REMARK VINA RESULT:    -5.500      1.330      2.366
REMARK INTER + INTRA:          -7.114
REMARK INTER:                  -7.426
REMARK INTRA:                   0.312
REMARK UNBOUND:                -0.649
REMARK  Name = 
REMARK  3 active torsions:
REMARK  status: ('A' for Active; 'I' for Inactive)
REMARK    1  A    between atoms: C_2  and  C_4
REMARK    2  A    between atoms: N_8  and  C_9
REMARK    3  A    between atoms: C_9  and  C_10
REMARK                            x       y       z     vdW  Elec       q    Type
REMARK                         _______ _______ _______ _____ _____    ______ ____
ROOT
ATOM      1  C   UNL     1      46.482   3.042   7.340  0.00  0.00    +0.000 A 
ATOM      2  C   UNL     1      46.445   4.248   8.029  0.00  0.00    +0.000 A 
ATOM      3  C   UNL     1      45.626   4.370   9.154  0.00  0.00    +0.000 A 
ATOM      4  C   UNL     1      44.853   3.292   9.563  0.00  0.00    +0.000 A 
ATOM      5  N   UNL     1      43.926   3.370  10.606  0.00  0.00    +0.000 N 
ATOM      6  N   UNL     1      44.879   2.115   8.900  0.00  0.00    +0.000 NA
ATOM      7  C   UNL     1      45.680   2.011   7.806  0.00  0.00    +0.000 A 
ATOM      8  H   UNL     1      43.564   2.425  10.722  0.00  0.00    +0.000 HD
ENDROOT
BRANCH   1  10
ATOM      9  N   UNL     1      48.604   2.511   6.288  0.00  0.00    +0.000 N 
ATOM     10  C   UNL     1      47.287   2.846   6.115  0.00  0.00    +0.000 C 
ATOM     11  O   UNL     1      46.801   2.959   4.999  0.00  0.00    +0.000 OA
ATOM     12  H   UNL     1      49.140   2.321   5.449  0.00  0.00    +0.000 HD
ATOM     13  H   UNL     1      48.979   2.185   7.166  0.00  0.00    +0.000 HD
ENDBRANCH   1  10
BRANCH   5  14
ATOM     14  C   UNL     1      44.110   4.144  11.846  0.00  0.00    +0.000 C 
ATOM     15  C   UNL     1      45.052   3.490  12.851  0.00  0.00    +0.000 C 
ATOM     16  C   UNL     1      43.620   3.690  13.208  0.00  0.00    +0.000 C 
BRANCH  14  17
ATOM     17  C   UNL     1      44.228   5.648  11.606  0.00  0.00    +0.000 A 
ATOM     18  C   UNL     1      43.154   6.400  11.095  0.00  0.00    +0.000 A 
ATOM     19  C   UNL     1      43.238   7.786  10.934  0.00  0.00    +0.000 A 
ATOM     20  C   UNL     1      44.407   8.456  11.285  0.00  0.00    +0.000 A 
ATOM     21  C   UNL     1      45.486   7.733  11.782  0.00  0.00    +0.000 A 
ATOM     22 BR   UNL     1      47.074   8.635  12.272  0.00  0.00    +0.000 Br
ATOM     23  C   UNL     1      45.403   6.347  11.936  0.00  0.00    +0.000 A 
ENDBRANCH  14  17
ENDBRANCH   5  14
TORSDOF 3
ENDMDL
