MODEL 1
REMARK VINA RESULT:    -8.990      0.000      0.000
REMARK INTER + INTRA:         -13.309
REMARK INTER:                 -12.932
REMARK INTRA:                  -0.378
REMARK UNBOUND:                -0.378
REMARK  Name = 
REMARK  8 active torsions:
REMARK  status: ('A' for Active; 'I' for Inactive)
REMARK    1  A    between atoms: N_1  and  C_2
REMARK    2  A    between atoms: C_2  and  C_3
REMARK    3  A    between atoms: C_2  and  C_17
REMARK    4  A    between atoms: C_3  and  N_4
REMARK    5  A    between atoms: C_5  and  C_7
REMARK    6  A    between atoms: C_20  and  C_21
REMARK    7  A    between atoms: C_21  and  N_22
REMARK    8  A    between atoms: C_23  and  C_25
REMARK                            x       y       z     vdW  Elec       q    Type
REMARK                         _______ _______ _______ _____ _____    ______ ____
ROOT
ATOM      1  C   UNL     1      47.663   5.349  14.613  0.00  0.00    +0.000 C 
ENDROOT
BRANCH   1   2
ATOM      2  C   UNL     1      46.645   5.146  13.492  0.00  0.00    +0.000 A 
ATOM      3  C   UNL     1      46.183   3.852  13.187  0.00  0.00    +0.000 A 
ATOM      4  C   UNL     1      45.283   3.624  12.145  0.00  0.00    +0.000 A 
ATOM      5  C   UNL     1      44.799   4.688  11.382  0.00  0.00    +0.000 A 
ATOM      6  C   UNL     1      45.185   5.989  11.726  0.00  0.00    +0.000 A 
ATOM      7  C   UNL     1      46.093   6.214  12.767  0.00  0.00    +0.000 A 
BRANCH   5   8
ATOM      8  C   UNL     1      43.885   4.446  10.214  0.00  0.00    +0.000 C 
BRANCH   8   9
ATOM      9  N   UNL     1      44.478   3.578   9.231  0.00  0.00    +0.000 N 
ATOM     10  C   UNL     1      45.462   4.064   8.394  0.00  0.00    +0.000 C 
ATOM     11  O   UNL     1      45.920   5.200   8.489  0.00  0.00    +0.000 OA
ATOM     12  H   UNL     1      43.927   2.820   8.846  0.00  0.00    +0.000 HD
BRANCH  10  13
ATOM     13  C   UNL     1      46.030   3.021   7.426  0.00  0.00    +0.000 C 
ATOM     14  C   UNL     1      46.294   1.681   8.083  0.00  0.00    +0.000 C 
ATOM     15  C   UNL     1      47.223   1.012   7.091  0.00  0.00    +0.000 C 
ATOM     16  C   UNL     1      48.003   2.157   6.460  0.00  0.00    +0.000 C 
ATOM     17  N   UNL     1      47.355   3.408   6.881  0.00  0.00    +0.000 NA
ATOM     18  H   UNL     1      47.218   4.009   6.068  0.00  0.00    +0.000 HD
ENDBRANCH  10  13
ENDBRANCH   8   9
ENDBRANCH   5   8
ENDBRANCH   1   2
BRANCH   1  19
ATOM     19  N   UNL     1      47.795   6.784  14.947  0.00  0.00    +0.000 NA
ATOM     20  H   UNL     1      48.689   7.114  14.588  0.00  0.00    +0.000 HD
ATOM     21  H   UNL     1      47.900   6.857  15.962  0.00  0.00    +0.000 HD
ENDBRANCH   1  19
BRANCH   1  22
ATOM     22  C   UNL     1      47.381   4.528  15.906  0.00  0.00    +0.000 C 
BRANCH  22  23
ATOM     23  N   UNL     1      48.598   4.088  16.575  0.00  0.00    +0.000 N 
ATOM     24  C   UNL     1      49.340   4.900  17.393  0.00  0.00    +0.000 C 
ATOM     25  O   UNL     1      48.999   6.053  17.645  0.00  0.00    +0.000 OA
ATOM     26  H   UNL     1      48.985   3.198  16.273  0.00  0.00    +0.000 HD
BRANCH  24  27
ATOM     27  C   UNL     1      50.567   4.327  17.956  0.00  0.00    +0.000 A 
ATOM     28  C   UNL     1      51.380   5.112  18.758  0.00  0.00    +0.000 A 
ATOM     29  S   UNL     1      52.774   4.306  19.317  0.00  0.00    +0.000 S 
ATOM     30  C   UNL     1      52.360   2.890  18.468  0.00  0.00    +0.000 A 
ATOM     31  N   UNL     1      53.178   1.804  18.483  0.00  0.00    +0.000 NA
ATOM     32  C   UNL     1      52.762   0.813  17.768  0.00  0.00    +0.000 A 
ATOM     33  N   UNL     1      51.596   0.803  17.049  0.00  0.00    +0.000 N 
ATOM     34  C   UNL     1      50.708   1.854  17.055  0.00  0.00    +0.000 A 
ATOM     35  O   UNL     1      49.618   1.775  16.497  0.00  0.00    +0.000 OA
ATOM     36  C   UNL     1      51.153   3.016  17.803  0.00  0.00    +0.000 A 
ATOM     37  H   UNL     1      51.315  -0.021  16.539  0.00  0.00    +0.000 HD
ENDBRANCH  24  27
ENDBRANCH  22  23
ENDBRANCH   1  22
TORSDOF 8
ENDMDL
MODEL 2
REMARK VINA RESULT:    -8.341      2.611      3.404
REMARK INTER + INTRA:         -12.375
REMARK INTER:                 -11.142
REMARK INTRA:                  -1.233
REMARK UNBOUND:                -0.378
REMARK  Name = 
REMARK  8 active torsions:
REMARK  status: ('A' for Active; 'I' for Inactive)
REMARK    1  A    between atoms: N_1  and  C_2
REMARK    2  A    between atoms: C_2  and  C_3
REMARK    3  A    between atoms: C_2  and  C_17
REMARK    4  A    between atoms: C_3  and  N_4
REMARK    5  A    between atoms: C_5  and  C_7
REMARK    6  A    between atoms: C_20  and  C_21
REMARK    7  A    between atoms: C_21  and  N_22
REMARK    8  A    between atoms: C_23  and  C_25
REMARK                            x       y       z     vdW  Elec       q    Type
REMARK                         _______ _______ _______ _____ _____    ______ ____
ROOT
ATOM      1  C   UNL     1      48.845   9.265  13.614  0.00  0.00    +0.000 C 
ENDROOT
BRANCH   1   2
ATOM      2  C   UNL     1      47.748   8.435  12.950  0.00  0.00    +0.000 A 
ATOM      3  C   UNL     1      46.396   8.689  13.248  0.00  0.00    +0.000 A 
ATOM      4  C   UNL     1      45.369   7.925  12.692  0.00  0.00    +0.000 A 
ATOM      5  C   UNL     1      45.660   6.889  11.801  0.00  0.00    +0.000 A 
ATOM      6  C   UNL     1      46.993   6.679  11.431  0.00  0.00    +0.000 A 
ATOM      7  C   UNL     1      48.022   7.442  11.996  0.00  0.00    +0.000 A 
BRANCH   5   8
ATOM      8  C   UNL     1      44.567   6.017  11.250  0.00  0.00    +0.000 C 
BRANCH   8   9
ATOM      9  N   UNL     1      44.988   5.294  10.078  0.00  0.00    +0.000 N 
ATOM     10  C   UNL     1      44.410   4.077   9.780  0.00  0.00    +0.000 C 
ATOM     11  O   UNL     1      43.487   3.597  10.434  0.00  0.00    +0.000 OA
ATOM     12  H   UNL     1      45.938   5.410   9.744  0.00  0.00    +0.000 HD
BRANCH  10  13
ATOM     13  C   UNL     1      44.927   3.441   8.486  0.00  0.00    +0.000 C 
ATOM     14  C   UNL     1      45.690   2.153   8.719  0.00  0.00    +0.000 C 
ATOM     15  C   UNL     1      46.441   1.982   7.415  0.00  0.00    +0.000 C 
ATOM     16  C   UNL     1      46.701   3.402   6.930  0.00  0.00    +0.000 C 
ATOM     17  N   UNL     1      45.906   4.303   7.777  0.00  0.00    +0.000 NA
ATOM     18  H   UNL     1      45.401   4.964   7.187  0.00  0.00    +0.000 HD
ENDBRANCH  10  13
ENDBRANCH   8   9
ENDBRANCH   5   8
ENDBRANCH   1   2
BRANCH   1  19
ATOM     19  N   UNL     1      48.288  10.091  14.708  0.00  0.00    +0.000 NA
ATOM     20  H   UNL     1      47.414   9.668  15.013  0.00  0.00    +0.000 HD
ATOM     21  H   UNL     1      47.997  10.984  14.303  0.00  0.00    +0.000 HD
ENDBRANCH   1  19
BRANCH   1  22
ATOM     22  C   UNL     1      50.059   8.441  14.137  0.00  0.00    +0.000 C 
BRANCH  22  23
ATOM     23  N   UNL     1      49.707   7.544  15.229  0.00  0.00    +0.000 N 
ATOM     24  C   UNL     1      50.638   6.855  15.963  0.00  0.00    +0.000 C 
ATOM     25  O   UNL     1      51.843   6.983  15.766  0.00  0.00    +0.000 OA
ATOM     26  H   UNL     1      48.725   7.303  15.318  0.00  0.00    +0.000 HD
BRANCH  24  27
ATOM     27  C   UNL     1      50.125   5.952  16.999  0.00  0.00    +0.000 A 
ATOM     28  C   UNL     1      50.769   5.886  18.224  0.00  0.00    +0.000 A 
ATOM     29  S   UNL     1      50.063   4.778  19.310  0.00  0.00    +0.000 S 
ATOM     30  C   UNL     1      48.896   4.315  18.161  0.00  0.00    +0.000 A 
ATOM     31  N   UNL     1      47.988   3.342  18.442  0.00  0.00    +0.000 NA
ATOM     32  C   UNL     1      47.186   3.064  17.470  0.00  0.00    +0.000 A 
ATOM     33  N   UNL     1      47.198   3.679  16.245  0.00  0.00    +0.000 N 
ATOM     34  C   UNL     1      48.057   4.710  15.938  0.00  0.00    +0.000 A 
ATOM     35  O   UNL     1      47.971   5.320  14.877  0.00  0.00    +0.000 OA
ATOM     36  C   UNL     1      49.016   5.027  16.981  0.00  0.00    +0.000 A 
ATOM     37  H   UNL     1      46.518   3.435  15.542  0.00  0.00    +0.000 HD
ENDBRANCH  24  27
ENDBRANCH  22  23
ENDBRANCH   1  22
TORSDOF 8
ENDMDL
MODEL 3
REMARK VINA RESULT:    -8.111      2.923      4.101
REMARK INTER + INTRA:         -12.045
REMARK INTER:                 -11.058
REMARK INTRA:                  -0.988
REMARK UNBOUND:                -0.378
REMARK  Name = 
REMARK  8 active torsions:
REMARK  status: ('A' for Active; 'I' for Inactive)
REMARK    1  A    between atoms: N_1  and  C_2
REMARK    2  A    between atoms: C_2  and  C_3
REMARK    3  A    between atoms: C_2  and  C_17
REMARK    4  A    between atoms: C_3  and  N_4
REMARK    5  A    between atoms: C_5  and  C_7
REMARK    6  A    between atoms: C_20  and  C_21
REMARK    7  A    between atoms: C_21  and  N_22
REMARK    8  A    between atoms: C_23  and  C_25
REMARK                            x       y       z     vdW  Elec       q    Type
REMARK                         _______ _______ _______ _____ _____    ______ ____
ROOT
ATOM      1  C   UNL     1      48.020   8.302  13.779  0.00  0.00    +0.000 C 
ENDROOT
BRANCH   1   2
ATOM      2  C   UNL     1      46.923   7.566  13.011  0.00  0.00    +0.000 A 
ATOM      3  C   UNL     1      47.006   6.173  12.828  0.00  0.00    +0.000 A 
ATOM      4  C   UNL     1      46.044   5.474  12.098  0.00  0.00    +0.000 A 
ATOM      5  C   UNL     1      44.952   6.144  11.540  0.00  0.00    +0.000 A 
ATOM      6  C   UNL     1      44.813   7.516  11.784  0.00  0.00    +0.000 A 
ATOM      7  C   UNL     1      45.784   8.216  12.510  0.00  0.00    +0.000 A 
BRANCH   5   8
ATOM      8  C   UNL     1      43.949   5.412  10.695  0.00  0.00    +0.000 C 
BRANCH   8   9
ATOM      9  N   UNL     1      44.555   4.795   9.544  0.00  0.00    +0.000 N 
ATOM     10  C   UNL     1      44.503   3.424   9.396  0.00  0.00    +0.000 C 
ATOM     11  O   UNL     1      43.894   2.690  10.171  0.00  0.00    +0.000 OA
ATOM     12  H   UNL     1      45.355   5.241   9.111  0.00  0.00    +0.000 HD
BRANCH  10  13
ATOM     13  C   UNL     1      45.154   2.910   8.108  0.00  0.00    +0.000 C 
ATOM     14  C   UNL     1      46.085   1.737   8.339  0.00  0.00    +0.000 C 
ATOM     15  C   UNL     1      46.903   1.716   7.064  0.00  0.00    +0.000 C 
ATOM     16  C   UNL     1      46.975   3.174   6.629  0.00  0.00    +0.000 C 
ATOM     17  N   UNL     1      46.026   3.924   7.465  0.00  0.00    +0.000 NA
ATOM     18  H   UNL     1      45.455   4.526   6.871  0.00  0.00    +0.000 HD
ENDBRANCH  10  13
ENDBRANCH   8   9
ENDBRANCH   5   8
ENDBRANCH   1   2
BRANCH   1  19
ATOM     19  N   UNL     1      47.453   9.027  14.937  0.00  0.00    +0.000 NA
ATOM     20  H   UNL     1      47.619  10.022  14.802  0.00  0.00    +0.000 HD
ATOM     21  H   UNL     1      48.021   8.795  15.756  0.00  0.00    +0.000 HD
ENDBRANCH   1  19
BRANCH   1  22
ATOM     22  C   UNL     1      49.204   7.403  14.246  0.00  0.00    +0.000 C 
BRANCH  22  23
ATOM     23  N   UNL     1      49.180   7.131  15.676  0.00  0.00    +0.000 N 
ATOM     24  C   UNL     1      48.658   5.982  16.212  0.00  0.00    +0.000 C 
ATOM     25  O   UNL     1      48.206   5.084  15.507  0.00  0.00    +0.000 OA
ATOM     26  H   UNL     1      49.407   7.908  16.289  0.00  0.00    +0.000 HD
BRANCH  24  27
ATOM     27  C   UNL     1      48.663   5.874  17.675  0.00  0.00    +0.000 A 
ATOM     28  C   UNL     1      49.009   4.671  18.268  0.00  0.00    +0.000 A 
ATOM     29  S   UNL     1      48.948   4.704  19.972  0.00  0.00    +0.000 S 
ATOM     30  C   UNL     1      48.412   6.320  19.973  0.00  0.00    +0.000 A 
ATOM     31  N   UNL     1      48.117   6.956  21.139  0.00  0.00    +0.000 NA
ATOM     32  C   UNL     1      47.688   8.164  20.993  0.00  0.00    +0.000 A 
ATOM     33  N   UNL     1      47.538   8.801  19.789  0.00  0.00    +0.000 N 
ATOM     34  C   UNL     1      47.884   8.220  18.591  0.00  0.00    +0.000 A 
ATOM     35  O   UNL     1      47.849   8.851  17.539  0.00  0.00    +0.000 OA
ATOM     36  C   UNL     1      48.324   6.840  18.694  0.00  0.00    +0.000 A 
ATOM     37  H   UNL     1      47.230   9.761  19.752  0.00  0.00    +0.000 HD
ENDBRANCH  24  27
ENDBRANCH  22  23
ENDBRANCH   1  22
TORSDOF 8
ENDMDL
MODEL 4
REMARK VINA RESULT:    -8.085      2.750      3.366
REMARK INTER + INTRA:         -12.008
REMARK INTER:                 -11.100
REMARK INTRA:                  -0.908
REMARK UNBOUND:                -0.378
REMARK  Name = 
REMARK  8 active torsions:
REMARK  status: ('A' for Active; 'I' for Inactive)
REMARK    1  A    between atoms: N_1  and  C_2
REMARK    2  A    between atoms: C_2  and  C_3
REMARK    3  A    between atoms: C_2  and  C_17
REMARK    4  A    between atoms: C_3  and  N_4
REMARK    5  A    between atoms: C_5  and  C_7
REMARK    6  A    between atoms: C_20  and  C_21
REMARK    7  A    between atoms: C_21  and  N_22
REMARK    8  A    between atoms: C_23  and  C_25
REMARK                            x       y       z     vdW  Elec       q    Type
REMARK                         _______ _______ _______ _____ _____    ______ ____
ROOT
ATOM      1  C   UNL     1      46.169   8.679  12.398  0.00  0.00    +0.000 C 
ENDROOT
BRANCH   1   2
ATOM      2  C   UNL     1      45.643   7.269  12.133  0.00  0.00    +0.000 A 
ATOM      3  C   UNL     1      46.529   6.252  11.733  0.00  0.00    +0.000 A 
ATOM      4  C   UNL     1      46.079   4.963  11.443  0.00  0.00    +0.000 A 
ATOM      5  C   UNL     1      44.725   4.642  11.563  0.00  0.00    +0.000 A 
ATOM      6  C   UNL     1      43.845   5.621  12.040  0.00  0.00    +0.000 A 
ATOM      7  C   UNL     1      44.298   6.915  12.322  0.00  0.00    +0.000 A 
BRANCH   5   8
ATOM      8  C   UNL     1      44.220   3.277  11.188  0.00  0.00    +0.000 C 
BRANCH   8   9
ATOM      9  N   UNL     1      44.938   2.721  10.072  0.00  0.00    +0.000 N 
ATOM     10  C   UNL     1      44.784   3.271   8.815  0.00  0.00    +0.000 C 
ATOM     11  O   UNL     1      44.107   4.274   8.603  0.00  0.00    +0.000 OA
ATOM     12  H   UNL     1      45.175   1.735  10.080  0.00  0.00    +0.000 HD
BRANCH  10  13
ATOM     13  C   UNL     1      45.637   2.603   7.732  0.00  0.00    +0.000 C 
ATOM     14  C   UNL     1      46.269   1.304   8.189  0.00  0.00    +0.000 C 
ATOM     15  C   UNL     1      47.361   1.096   7.161  0.00  0.00    +0.000 C 
ATOM     16  C   UNL     1      47.785   2.502   6.760  0.00  0.00    +0.000 C 
ATOM     17  N   UNL     1      46.801   3.433   7.330  0.00  0.00    +0.000 NA
ATOM     18  H   UNL     1      46.505   4.095   6.613  0.00  0.00    +0.000 HD
ENDBRANCH  10  13
ENDBRANCH   8   9
ENDBRANCH   5   8
ENDBRANCH   1   2
BRANCH   1  19
ATOM     19  N   UNL     1      45.231   9.435  13.258  0.00  0.00    +0.000 NA
ATOM     20  H   UNL     1      45.768  10.117  13.791  0.00  0.00    +0.000 HD
ATOM     21  H   UNL     1      44.880   8.792  13.972  0.00  0.00    +0.000 HD
ENDBRANCH   1  19
BRANCH   1  22
ATOM     22  C   UNL     1      47.604   8.736  13.002  0.00  0.00    +0.000 C 
BRANCH  22  23
ATOM     23  N   UNL     1      47.693   8.110  14.314  0.00  0.00    +0.000 N 
ATOM     24  C   UNL     1      48.665   7.202  14.647  0.00  0.00    +0.000 C 
ATOM     25  O   UNL     1      49.553   6.885  13.861  0.00  0.00    +0.000 OA
ATOM     26  H   UNL     1      46.896   8.236  14.931  0.00  0.00    +0.000 HD
BRANCH  24  27
ATOM     27  C   UNL     1      48.594   6.623  15.992  0.00  0.00    +0.000 A 
ATOM     28  C   UNL     1      49.046   7.359  17.075  0.00  0.00    +0.000 A 
ATOM     29  S   UNL     1      48.913   6.540  18.564  0.00  0.00    +0.000 S 
ATOM     30  C   UNL     1      48.287   5.152  17.804  0.00  0.00    +0.000 A 
ATOM     31  N   UNL     1      47.997   4.034  18.523  0.00  0.00    +0.000 NA
ATOM     32  C   UNL     1      47.564   3.043  17.818  0.00  0.00    +0.000 A 
ATOM     33  N   UNL     1      47.382   3.071  16.460  0.00  0.00    +0.000 N 
ATOM     34  C   UNL     1      47.602   4.198  15.702  0.00  0.00    +0.000 A 
ATOM     35  O   UNL     1      47.322   4.231  14.507  0.00  0.00    +0.000 OA
ATOM     36  C   UNL     1      48.140   5.327  16.440  0.00  0.00    +0.000 A 
ATOM     37  H   UNL     1      47.006   2.270  15.976  0.00  0.00    +0.000 HD
ENDBRANCH  24  27
ENDBRANCH  22  23
ENDBRANCH   1  22
TORSDOF 8
ENDMDL
MODEL 5
REMARK VINA RESULT:    -7.444      3.826      7.201
REMARK INTER + INTRA:         -11.086
REMARK INTER:                  -9.569
REMARK INTRA:                  -1.517
REMARK UNBOUND:                -0.378
REMARK  Name = 
REMARK  8 active torsions:
REMARK  status: ('A' for Active; 'I' for Inactive)
REMARK    1  A    between atoms: N_1  and  C_2
REMARK    2  A    between atoms: C_2  and  C_3
REMARK    3  A    between atoms: C_2  and  C_17
REMARK    4  A    between atoms: C_3  and  N_4
REMARK    5  A    between atoms: C_5  and  C_7
REMARK    6  A    between atoms: C_20  and  C_21
REMARK    7  A    between atoms: C_21  and  N_22
REMARK    8  A    between atoms: C_23  and  C_25
REMARK                            x       y       z     vdW  Elec       q    Type
REMARK                         _______ _______ _______ _____ _____    ______ ____
ROOT
ATOM      1  C   UNL     1      44.956   5.559  11.887  0.00  0.00    +0.000 C 
ENDROOT
BRANCH   1   2
ATOM      2  C   UNL     1      45.790   6.836  11.976  0.00  0.00    +0.000 A 
ATOM      3  C   UNL     1      47.172   6.795  11.712  0.00  0.00    +0.000 A 
ATOM      4  C   UNL     1      47.971   7.933  11.823  0.00  0.00    +0.000 A 
ATOM      5  C   UNL     1      47.411   9.160  12.183  0.00  0.00    +0.000 A 
ATOM      6  C   UNL     1      46.025   9.235  12.368  0.00  0.00    +0.000 A 
ATOM      7  C   UNL     1      45.226   8.090  12.264  0.00  0.00    +0.000 A 
BRANCH   5   8
ATOM      8  C   UNL     1      48.273  10.376  12.372  0.00  0.00    +0.000 C 
BRANCH   8   9
ATOM      9  N   UNL     1      48.274  10.834  13.737  0.00  0.00    +0.000 N 
ATOM     10  C   UNL     1      49.180  10.307  14.635  0.00  0.00    +0.000 C 
ATOM     11  O   UNL     1      50.051   9.502  14.312  0.00  0.00    +0.000 OA
ATOM     12  H   UNL     1      47.407  11.161  14.147  0.00  0.00    +0.000 HD
BRANCH  10  13
ATOM     13  C   UNL     1      49.092  10.914  16.039  0.00  0.00    +0.000 C 
ATOM     14  C   UNL     1      50.297  10.596  16.901  0.00  0.00    +0.000 C 
ATOM     15  C   UNL     1      49.787  10.899  18.295  0.00  0.00    +0.000 C 
ATOM     16  C   UNL     1      48.298  10.584  18.237  0.00  0.00    +0.000 C 
ATOM     17  N   UNL     1      47.952  10.378  16.823  0.00  0.00    +0.000 NA
ATOM     18  H   UNL     1      47.113  10.912  16.599  0.00  0.00    +0.000 HD
ENDBRANCH  10  13
ENDBRANCH   8   9
ENDBRANCH   5   8
ENDBRANCH   1   2
BRANCH   1  19
ATOM     19  N   UNL     1      45.250   4.828  10.635  0.00  0.00    +0.000 NA
ATOM     20  H   UNL     1      45.419   5.511   9.899  0.00  0.00    +0.000 HD
ATOM     21  H   UNL     1      44.388   4.362  10.340  0.00  0.00    +0.000 HD
ENDBRANCH   1  19
BRANCH   1  22
ATOM     22  C   UNL     1      45.101   4.600  13.106  0.00  0.00    +0.000 C 
BRANCH  22  23
ATOM     23  N   UNL     1      45.980   5.127  14.141  0.00  0.00    +0.000 N 
ATOM     24  C   UNL     1      47.056   4.435  14.634  0.00  0.00    +0.000 C 
ATOM     25  O   UNL     1      47.370   3.330  14.202  0.00  0.00    +0.000 OA
ATOM     26  H   UNL     1      45.665   5.965  14.620  0.00  0.00    +0.000 HD
BRANCH  24  27
ATOM     27  C   UNL     1      47.819   5.079  15.709  0.00  0.00    +0.000 A 
ATOM     28  C   UNL     1      48.529   6.238  15.440  0.00  0.00    +0.000 A 
ATOM     29  S   UNL     1      49.377   6.850  16.786  0.00  0.00    +0.000 S 
ATOM     30  C   UNL     1      48.857   5.559  17.767  0.00  0.00    +0.000 A 
ATOM     31  N   UNL     1      49.274   5.452  19.057  0.00  0.00    +0.000 NA
ATOM     32  C   UNL     1      48.834   4.407  19.674  0.00  0.00    +0.000 A 
ATOM     33  N   UNL     1      48.005   3.465  19.124  0.00  0.00    +0.000 N 
ATOM     34  C   UNL     1      47.509   3.566  17.845  0.00  0.00    +0.000 A 
ATOM     35  O   UNL     1      46.678   2.771  17.416  0.00  0.00    +0.000 OA
ATOM     36  C   UNL     1      48.014   4.697  17.088  0.00  0.00    +0.000 A 
ATOM     37  H   UNL     1      47.671   2.690  19.677  0.00  0.00    +0.000 HD
ENDBRANCH  24  27
ENDBRANCH  22  23
ENDBRANCH   1  22
TORSDOF 8
ENDMDL
MODEL 6
REMARK VINA RESULT:    -7.415      4.043      6.581
REMARK INTER + INTRA:         -11.044
REMARK INTER:                  -8.899
REMARK INTRA:                  -2.145
REMARK UNBOUND:                -0.378
REMARK  Name = 
REMARK  8 active torsions:
REMARK  status: ('A' for Active; 'I' for Inactive)
REMARK    1  A    between atoms: N_1  and  C_2
REMARK    2  A    between atoms: C_2  and  C_3
REMARK    3  A    between atoms: C_2  and  C_17
REMARK    4  A    between atoms: C_3  and  N_4
REMARK    5  A    between atoms: C_5  and  C_7
REMARK    6  A    between atoms: C_20  and  C_21
REMARK    7  A    between atoms: C_21  and  N_22
REMARK    8  A    between atoms: C_23  and  C_25
REMARK                            x       y       z     vdW  Elec       q    Type
REMARK                         _______ _______ _______ _____ _____    ______ ____
ROOT
ATOM      1  C   UNL     1      44.859   6.145  12.770  0.00  0.00    +0.000 C 
ENDROOT
BRANCH   1   2
ATOM      2  C   UNL     1      46.019   7.108  12.521  0.00  0.00    +0.000 A 
ATOM      3  C   UNL     1      47.116   6.701  11.739  0.00  0.00    +0.000 A 
ATOM      4  C   UNL     1      48.211   7.538  11.524  0.00  0.00    +0.000 A 
ATOM      5  C   UNL     1      48.238   8.824  12.070  0.00  0.00    +0.000 A 
ATOM      6  C   UNL     1      47.118   9.272  12.781  0.00  0.00    +0.000 A 
ATOM      7  C   UNL     1      46.024   8.427  13.001  0.00  0.00    +0.000 A 
BRANCH   5   8
ATOM      8  C   UNL     1      49.441   9.708  11.902  0.00  0.00    +0.000 C 
BRANCH   8   9
ATOM      9  N   UNL     1      50.436   9.469  12.915  0.00  0.00    +0.000 N 
ATOM     10  C   UNL     1      51.548   8.708  12.617  0.00  0.00    +0.000 C 
ATOM     11  O   UNL     1      51.777   8.273  11.491  0.00  0.00    +0.000 OA
ATOM     12  H   UNL     1      50.152   9.447  13.888  0.00  0.00    +0.000 HD
BRANCH  10  13
ATOM     13  C   UNL     1      52.539   8.569  13.776  0.00  0.00    +0.000 C 
ATOM     14  C   UNL     1      53.896   8.055  13.341  0.00  0.00    +0.000 C 
ATOM     15  C   UNL     1      54.504   7.596  14.650  0.00  0.00    +0.000 C 
ATOM     16  C   UNL     1      53.317   7.143  15.489  0.00  0.00    +0.000 C 
ATOM     17  N   UNL     1      52.099   7.576  14.788  0.00  0.00    +0.000 NA
ATOM     18  H   UNL     1      51.471   8.032  15.451  0.00  0.00    +0.000 HD
ENDBRANCH  10  13
ENDBRANCH   8   9
ENDBRANCH   5   8
ENDBRANCH   1   2
BRANCH   1  19
ATOM     19  N   UNL     1      44.040   5.985  11.548  0.00  0.00    +0.000 NA
ATOM     20  H   UNL     1      44.134   5.024  11.225  0.00  0.00    +0.000 HD
ATOM     21  H   UNL     1      44.481   6.534  10.806  0.00  0.00    +0.000 HD
ENDBRANCH   1  19
BRANCH   1  22
ATOM     22  C   UNL     1      45.278   4.746  13.313  0.00  0.00    +0.000 C 
BRANCH  22  23
ATOM     23  N   UNL     1      46.040   4.824  14.552  0.00  0.00    +0.000 N 
ATOM     24  C   UNL     1      47.057   3.959  14.863  0.00  0.00    +0.000 C 
ATOM     25  O   UNL     1      47.417   3.077  14.089  0.00  0.00    +0.000 OA
ATOM     26  H   UNL     1      45.673   5.441  15.271  0.00  0.00    +0.000 HD
BRANCH  24  27
ATOM     27  C   UNL     1      47.698   4.135  16.171  0.00  0.00    +0.000 A 
ATOM     28  C   UNL     1      47.457   3.214  17.177  0.00  0.00    +0.000 A 
ATOM     29  S   UNL     1      48.258   3.571  18.638  0.00  0.00    +0.000 S 
ATOM     30  C   UNL     1      48.921   4.997  17.988  0.00  0.00    +0.000 A 
ATOM     31  N   UNL     1      49.691   5.820  18.750  0.00  0.00    +0.000 NA
ATOM     32  C   UNL     1      50.098   6.884  18.143  0.00  0.00    +0.000 A 
ATOM     33  N   UNL     1      49.818   7.195  16.838  0.00  0.00    +0.000 N 
ATOM     34  C   UNL     1      49.098   6.363  16.012  0.00  0.00    +0.000 A 
ATOM     35  O   UNL     1      48.960   6.609  14.818  0.00  0.00    +0.000 OA
ATOM     36  C   UNL     1      48.572   5.176  16.661  0.00  0.00    +0.000 A 
ATOM     37  H   UNL     1      50.200   8.028  16.416  0.00  0.00    +0.000 HD
ENDBRANCH  24  27
ENDBRANCH  22  23
ENDBRANCH   1  22
TORSDOF 8
ENDMDL
MODEL 7
REMARK VINA RESULT:    -7.122      2.602      3.384
REMARK INTER + INTRA:         -10.622
REMARK INTER:                  -9.492
REMARK INTRA:                  -1.131
REMARK UNBOUND:                -0.378
REMARK  Name = 
REMARK  8 active torsions:
REMARK  status: ('A' for Active; 'I' for Inactive)
REMARK    1  A    between atoms: N_1  and  C_2
REMARK    2  A    between atoms: C_2  and  C_3
REMARK    3  A    between atoms: C_2  and  C_17
REMARK    4  A    between atoms: C_3  and  N_4
REMARK    5  A    between atoms: C_5  and  C_7
REMARK    6  A    between atoms: C_20  and  C_21
REMARK    7  A    between atoms: C_21  and  N_22
REMARK    8  A    between atoms: C_23  and  C_25
REMARK                            x       y       z     vdW  Elec       q    Type
REMARK                         _______ _______ _______ _____ _____    ______ ____
ROOT
ATOM      1  C   UNL     1      48.530   9.029  13.258  0.00  0.00    +0.000 C 
ENDROOT
BRANCH   1   2
ATOM      2  C   UNL     1      47.520   7.897  13.071  0.00  0.00    +0.000 A 
ATOM      3  C   UNL     1      47.959   6.560  13.041  0.00  0.00    +0.000 A 
ATOM      4  C   UNL     1      47.072   5.504  12.832  0.00  0.00    +0.000 A 
ATOM      5  C   UNL     1      45.707   5.748  12.664  0.00  0.00    +0.000 A 
ATOM      6  C   UNL     1      45.244   7.065  12.773  0.00  0.00    +0.000 A 
ATOM      7  C   UNL     1      46.138   8.123  12.975  0.00  0.00    +0.000 A 
BRANCH   5   8
ATOM      8  C   UNL     1      44.754   4.625  12.370  0.00  0.00    +0.000 C 
BRANCH   8   9
ATOM      9  N   UNL     1      45.056   3.969  11.125  0.00  0.00    +0.000 N 
ATOM     10  C   UNL     1      44.263   4.201  10.019  0.00  0.00    +0.000 C 
ATOM     11  O   UNL     1      43.336   5.007  10.018  0.00  0.00    +0.000 OA
ATOM     12  H   UNL     1      45.508   3.062  11.143  0.00  0.00    +0.000 HD
BRANCH  10  13
ATOM     13  C   UNL     1      44.725   3.468   8.755  0.00  0.00    +0.000 C 
ATOM     14  C   UNL     1      45.492   2.195   9.052  0.00  0.00    +0.000 C 
ATOM     15  C   UNL     1      46.190   1.923   7.735  0.00  0.00    +0.000 C 
ATOM     16  C   UNL     1      46.435   3.302   7.137  0.00  0.00    +0.000 C 
ATOM     17  N   UNL     1      45.678   4.268   7.946  0.00  0.00    +0.000 NA
ATOM     18  H   UNL     1      45.152   4.888   7.329  0.00  0.00    +0.000 HD
ENDBRANCH  10  13
ENDBRANCH   8   9
ENDBRANCH   5   8
ENDBRANCH   1   2
BRANCH   1  19
ATOM     19  N   UNL     1      47.936  10.136  14.039  0.00  0.00    +0.000 NA
ATOM     20  H   UNL     1      47.072  10.422  13.582  0.00  0.00    +0.000 HD
ATOM     21  H   UNL     1      48.547  10.950  13.934  0.00  0.00    +0.000 HD
ENDBRANCH   1  19
BRANCH   1  22
ATOM     22  C   UNL     1      49.883   8.596  13.896  0.00  0.00    +0.000 C 
BRANCH  22  23
ATOM     23  N   UNL     1      49.752   8.202  15.292  0.00  0.00    +0.000 N 
ATOM     24  C   UNL     1      50.820   7.843  16.074  0.00  0.00    +0.000 C 
ATOM     25  O   UNL     1      51.971   7.867  15.649  0.00  0.00    +0.000 OA
ATOM     26  H   UNL     1      48.809   8.030  15.628  0.00  0.00    +0.000 HD
BRANCH  24  27
ATOM     27  C   UNL     1      50.521   7.426  17.448  0.00  0.00    +0.000 A 
ATOM     28  C   UNL     1      51.012   8.171  18.508  0.00  0.00    +0.000 A 
ATOM     29  S   UNL     1      50.594   7.544  20.037  0.00  0.00    +0.000 S 
ATOM     30  C   UNL     1      49.779   6.227  19.333  0.00  0.00    +0.000 A 
ATOM     31  N   UNL     1      49.216   5.260  20.107  0.00  0.00    +0.000 NA
ATOM     32  C   UNL     1      48.662   4.301  19.444  0.00  0.00    +0.000 A 
ATOM     33  N   UNL     1      48.607   4.225  18.077  0.00  0.00    +0.000 N 
ATOM     34  C   UNL     1      49.106   5.210  17.256  0.00  0.00    +0.000 A 
ATOM     35  O   UNL     1      48.942   5.174  16.040  0.00  0.00    +0.000 OA
ATOM     36  C   UNL     1      49.787   6.288  17.950  0.00  0.00    +0.000 A 
ATOM     37  H   UNL     1      48.126   3.463  17.625  0.00  0.00    +0.000 HD
ENDBRANCH  24  27
ENDBRANCH  22  23
ENDBRANCH   1  22
TORSDOF 8
ENDMDL
MODEL 8
REMARK VINA RESULT:    -7.084      3.386      4.594
REMARK INTER + INTRA:         -10.568
REMARK INTER:                  -9.225
REMARK INTRA:                  -1.344
REMARK UNBOUND:                -0.378
REMARK  Name = 
REMARK  8 active torsions:
REMARK  status: ('A' for Active; 'I' for Inactive)
REMARK    1  A    between atoms: N_1  and  C_2
REMARK    2  A    between atoms: C_2  and  C_3
REMARK    3  A    between atoms: C_2  and  C_17
REMARK    4  A    between atoms: C_3  and  N_4
REMARK    5  A    between atoms: C_5  and  C_7
REMARK    6  A    between atoms: C_20  and  C_21
REMARK    7  A    between atoms: C_21  and  N_22
REMARK    8  A    between atoms: C_23  and  C_25
REMARK                            x       y       z     vdW  Elec       q    Type
REMARK                         _______ _______ _______ _____ _____    ______ ____
ROOT
ATOM      1  C   UNL     1      50.008   9.400  12.574  0.00  0.00    +0.000 C 
ENDROOT
BRANCH   1   2
ATOM      2  C   UNL     1      48.648   8.706  12.565  0.00  0.00    +0.000 A 
ATOM      3  C   UNL     1      48.446   7.563  11.768  0.00  0.00    +0.000 A 
ATOM      4  C   UNL     1      47.206   6.927  11.705  0.00  0.00    +0.000 A 
ATOM      5  C   UNL     1      46.126   7.402  12.453  0.00  0.00    +0.000 A 
ATOM      6  C   UNL     1      46.334   8.487  13.313  0.00  0.00    +0.000 A 
ATOM      7  C   UNL     1      47.577   9.128  13.369  0.00  0.00    +0.000 A 
BRANCH   5   8
ATOM      8  C   UNL     1      44.770   6.766  12.339  0.00  0.00    +0.000 C 
BRANCH   8   9
ATOM      9  N   UNL     1      44.734   5.741  11.328  0.00  0.00    +0.000 N 
ATOM     10  C   UNL     1      43.628   4.922  11.222  0.00  0.00    +0.000 C 
ATOM     11  O   UNL     1      42.621   5.066  11.911  0.00  0.00    +0.000 OA
ATOM     12  H   UNL     1      45.605   5.325  11.017  0.00  0.00    +0.000 HD
BRANCH  10  13
ATOM     13  C   UNL     1      43.712   3.906  10.079  0.00  0.00    +0.000 C 
ATOM     14  C   UNL     1      44.676   2.771  10.361  0.00  0.00    +0.000 C 
ATOM     15  C   UNL     1      44.908   2.193   8.981  0.00  0.00    +0.000 C 
ATOM     16  C   UNL     1      44.774   3.381   8.038  0.00  0.00    +0.000 C 
ATOM     17  N   UNL     1      44.232   4.500   8.823  0.00  0.00    +0.000 NA
ATOM     18  H   UNL     1      43.460   4.929   8.312  0.00  0.00    +0.000 HD
ENDBRANCH  10  13
ENDBRANCH   8   9
ENDBRANCH   5   8
ENDBRANCH   1   2
BRANCH   1  19
ATOM     19  N   UNL     1      49.959  10.641  13.378  0.00  0.00    +0.000 NA
ATOM     20  H   UNL     1      50.023  11.435  12.743  0.00  0.00    +0.000 HD
ATOM     21  H   UNL     1      50.825  10.693  13.920  0.00  0.00    +0.000 HD
ENDBRANCH   1  19
BRANCH   1  22
ATOM     22  C   UNL     1      51.193   8.507  13.051  0.00  0.00    +0.000 C 
BRANCH  22  23
ATOM     23  N   UNL     1      50.840   7.651  14.175  0.00  0.00    +0.000 N 
ATOM     24  C   UNL     1      50.966   8.042  15.483  0.00  0.00    +0.000 C 
ATOM     25  O   UNL     1      51.353   9.166  15.790  0.00  0.00    +0.000 OA
ATOM     26  H   UNL     1      50.661   6.674  13.962  0.00  0.00    +0.000 HD
BRANCH  24  27
ATOM     27  C   UNL     1      50.615   7.049  16.505  0.00  0.00    +0.000 A 
ATOM     28  C   UNL     1      51.432   5.946  16.692  0.00  0.00    +0.000 A 
ATOM     29  S   UNL     1      50.878   4.880  17.901  0.00  0.00    +0.000 S 
ATOM     30  C   UNL     1      49.499   5.836  18.186  0.00  0.00    +0.000 A 
ATOM     31  N   UNL     1      48.560   5.453  19.092  0.00  0.00    +0.000 NA
ATOM     32  C   UNL     1      47.549   6.250  19.183  0.00  0.00    +0.000 A 
ATOM     33  N   UNL     1      47.396   7.404  18.459  0.00  0.00    +0.000 N 
ATOM     34  C   UNL     1      48.350   7.863  17.579  0.00  0.00    +0.000 A 
ATOM     35  O   UNL     1      48.242   8.956  17.031  0.00  0.00    +0.000 OA
ATOM     36  C   UNL     1      49.484   6.976  17.401  0.00  0.00    +0.000 A 
ATOM     37  H   UNL     1      46.596   8.000  18.606  0.00  0.00    +0.000 HD
ENDBRANCH  24  27
ENDBRANCH  22  23
ENDBRANCH   1  22
TORSDOF 8
ENDMDL
MODEL 9
REMARK VINA RESULT:    -6.994      5.426      8.272
REMARK INTER + INTRA:         -10.438
REMARK INTER:                  -9.652
REMARK INTRA:                  -0.786
REMARK UNBOUND:                -0.378
REMARK  Name = 
REMARK  8 active torsions:
REMARK  status: ('A' for Active; 'I' for Inactive)
REMARK    1  A    between atoms: N_1  and  C_2
REMARK    2  A    between atoms: C_2  and  C_3
REMARK    3  A    between atoms: C_2  and  C_17
REMARK    4  A    between atoms: C_3  and  N_4
REMARK    5  A    between atoms: C_5  and  C_7
REMARK    6  A    between atoms: C_20  and  C_21
REMARK    7  A    between atoms: C_21  and  N_22
REMARK    8  A    between atoms: C_23  and  C_25
REMARK                            x       y       z     vdW  Elec       q    Type
REMARK                         _______ _______ _______ _____ _____    ______ ____
ROOT
ATOM      1  C   UNL     1      47.753   7.910  14.037  0.00  0.00    +0.000 C 
ENDROOT
BRANCH   1   2
ATOM      2  C   UNL     1      49.057   8.028  13.251  0.00  0.00    +0.000 A 
ATOM      3  C   UNL     1      49.087   7.693  11.884  0.00  0.00    +0.000 A 
ATOM      4  C   UNL     1      50.268   7.750  11.143  0.00  0.00    +0.000 A 
ATOM      5  C   UNL     1      51.460   8.163  11.742  0.00  0.00    +0.000 A 
ATOM      6  C   UNL     1      51.430   8.577  13.079  0.00  0.00    +0.000 A 
ATOM      7  C   UNL     1      50.245   8.512  13.821  0.00  0.00    +0.000 A 
BRANCH   5   8
ATOM      8  C   UNL     1      52.751   8.161  10.972  0.00  0.00    +0.000 C 
BRANCH   8   9
ATOM      9  N   UNL     1      52.965   6.921  10.274  0.00  0.00    +0.000 N 
ATOM     10  C   UNL     1      53.026   6.912   8.895  0.00  0.00    +0.000 C 
ATOM     11  O   UNL     1      52.976   7.936   8.218  0.00  0.00    +0.000 OA
ATOM     12  H   UNL     1      52.636   6.058  10.692  0.00  0.00    +0.000 HD
BRANCH  10  13
ATOM     13  C   UNL     1      53.296   5.531   8.290  0.00  0.00    +0.000 C 
ATOM     14  C   UNL     1      54.762   5.148   8.314  0.00  0.00    +0.000 C 
ATOM     15  C   UNL     1      54.818   4.018   7.307  0.00  0.00    +0.000 C 
ATOM     16  C   UNL     1      53.733   4.352   6.293  0.00  0.00    +0.000 C 
ATOM     17  N   UNL     1      52.941   5.458   6.851  0.00  0.00    +0.000 NA
ATOM     18  H   UNL     1      51.948   5.242   6.763  0.00  0.00    +0.000 HD
ENDBRANCH  10  13
ENDBRANCH   8   9
ENDBRANCH   5   8
ENDBRANCH   1   2
BRANCH   1  19
ATOM     19  N   UNL     1      47.704   8.913  15.124  0.00  0.00    +0.000 NA
ATOM     20  H   UNL     1      47.272   8.479  15.938  0.00  0.00    +0.000 HD
ATOM     21  H   UNL     1      47.034   9.635  14.849  0.00  0.00    +0.000 HD
ENDBRANCH   1  19
BRANCH   1  22
ATOM     22  C   UNL     1      46.460   8.003  13.173  0.00  0.00    +0.000 C 
BRANCH  22  23
ATOM     23  N   UNL     1      45.959   6.700  12.759  0.00  0.00    +0.000 N 
ATOM     24  C   UNL     1      45.073   6.531  11.727  0.00  0.00    +0.000 C 
ATOM     25  O   UNL     1      44.670   7.477  11.056  0.00  0.00    +0.000 OA
ATOM     26  H   UNL     1      46.154   5.921  13.381  0.00  0.00    +0.000 HD
BRANCH  24  27
ATOM     27  C   UNL     1      44.624   5.160  11.459  0.00  0.00    +0.000 A 
ATOM     28  C   UNL     1      43.883   4.487  12.417  0.00  0.00    +0.000 A 
ATOM     29  S   UNL     1      43.456   2.900  11.963  0.00  0.00    +0.000 S 
ATOM     30  C   UNL     1      44.289   3.043  10.485  0.00  0.00    +0.000 A 
ATOM     31  N   UNL     1      44.359   1.996   9.620  0.00  0.00    +0.000 NA
ATOM     32  C   UNL     1      45.051   2.228   8.556  0.00  0.00    +0.000 A 
ATOM     33  N   UNL     1      45.669   3.417   8.269  0.00  0.00    +0.000 N 
ATOM     34  C   UNL     1      45.572   4.523   9.084  0.00  0.00    +0.000 A 
ATOM     35  O   UNL     1      46.037   5.608   8.748  0.00  0.00    +0.000 OA
ATOM     36  C   UNL     1      44.847   4.299  10.321  0.00  0.00    +0.000 A 
ATOM     37  H   UNL     1      46.165   3.541   7.400  0.00  0.00    +0.000 HD
ENDBRANCH  24  27
ENDBRANCH  22  23
ENDBRANCH   1  22
TORSDOF 8
ENDMDL
