MODEL 1
REMARK VINA RESULT:    -8.576      0.000      0.000
REMARK INTER + INTRA:         -13.164
REMARK INTER:                 -12.086
REMARK INTRA:                  -1.078
REMARK UNBOUND:                -1.078
REMARK  Name = 
REMARK  7 active torsions:
REMARK  status: ('A' for Active; 'I' for Inactive)
REMARK    1  A    between atoms: C_2  and  C_20
REMARK    2  A    between atoms: N_3  and  C_4
REMARK    3  A    between atoms: C_4  and  C_5
REMARK    4  A    between atoms: C_8  and  C_9
REMARK    5  A    between atoms: C_9  and  O_10
REMARK    6  A    between atoms: O_10  and  C_11
REMARK    7  A    between atoms: C_11  and  C_12
REMARK                            x       y       z     vdW  Elec       q    Type
REMARK                         _______ _______ _______ _____ _____    ______ ____
ROOT
ATOM      1  C   UNL     1      46.804   7.978  13.130  0.00  0.00    +0.000 C 
ENDROOT
BRANCH   1   2
ATOM      2  C   UNL     1      45.970   6.883  12.511  0.00  0.00    +0.000 A 
ATOM      3  C   UNL     1      46.182   6.510  11.186  0.00  0.00    +0.000 A 
ATOM      4  C   UNL     1      45.391   5.513  10.631  0.00  0.00    +0.000 A 
ATOM      5  C   UNL     1      44.402   4.908  11.408  0.00  0.00    +0.000 A 
ATOM      6  C   UNL     1      44.277   5.322  12.730  0.00  0.00    +0.000 A 
ATOM      7  N   UNL     1      45.037   6.287  13.296  0.00  0.00    +0.000 NA
BRANCH   5   8
ATOM      8  C   UNL     1      43.446   3.909  10.826  0.00  0.00    +0.000 C 
BRANCH   8   9
ATOM      9  O   UNL     1      43.835   3.517   9.508  0.00  0.00    +0.000 OA
BRANCH   9  10
ATOM     10  C   UNL     1      44.566   2.290   9.496  0.00  0.00    +0.000 C 
BRANCH  10  11
ATOM     11  C   UNL     1      45.615   2.333   8.418  0.00  0.00    +0.000 A 
ATOM     12  C   UNL     1      46.367   1.189   8.112  0.00  0.00    +0.000 A 
ATOM     13  C   UNL     1      47.296   1.209   7.072  0.00  0.00    +0.000 A 
ATOM     14  C   UNL     1      47.484   2.374   6.330  0.00  0.00    +0.000 A 
ATOM     15  C   UNL     1      46.756   3.522   6.638  0.00  0.00    +0.000 A 
ATOM     16  C   UNL     1      45.829   3.504   7.680  0.00  0.00    +0.000 A 
ENDBRANCH  10  11
ENDBRANCH   9  10
ENDBRANCH   8   9
ENDBRANCH   5   8
ENDBRANCH   1   2
BRANCH   1  19
ATOM     17  O   UNL     1      48.983   6.224  13.483  0.00  0.00    +0.000 OA
ATOM     18  C   UNL     1      48.465   6.738  14.471  0.00  0.00    +0.000 C 
ATOM     19  N   UNL     1      47.388   7.574  14.385  0.00  0.00    +0.000 N 
ATOM     20  H   UNL     1      47.001   8.006  15.216  0.00  0.00    +0.000 HD
BRANCH  18  21
ATOM     21  C   UNL     1      48.949   6.457  15.825  0.00  0.00    +0.000 A 
ATOM     22  C   UNL     1      49.887   7.290  16.418  0.00  0.00    +0.000 A 
ATOM     23  S   UNL     1      50.323   6.807  17.995  0.00  0.00    +0.000 S 
ATOM     24  C   UNL     1      49.243   5.491  17.952  0.00  0.00    +0.000 A 
ATOM     25  N   UNL     1      49.100   4.667  19.024  0.00  0.00    +0.000 NA
ATOM     26  C   UNL     1      48.216   3.736  18.866  0.00  0.00    +0.000 A 
ATOM     27  N   UNL     1      47.471   3.551  17.731  0.00  0.00    +0.000 N 
ATOM     28  C   UNL     1      47.620   4.325  16.604  0.00  0.00    +0.000 A 
ATOM     29  O   UNL     1      47.004   4.068  15.575  0.00  0.00    +0.000 OA
ATOM     30  C   UNL     1      48.577   5.407  16.742  0.00  0.00    +0.000 A 
ATOM     31  H   UNL     1      46.813   2.790  17.660  0.00  0.00    +0.000 HD
ENDBRANCH  18  21
ENDBRANCH   1  19
TORSDOF 7
ENDMDL
MODEL 2
REMARK VINA RESULT:    -8.534      1.344      1.458
REMARK INTER + INTRA:         -13.105
REMARK INTER:                 -11.985
REMARK INTRA:                  -1.120
REMARK UNBOUND:                -1.078
REMARK  Name = 
REMARK  7 active torsions:
REMARK  status: ('A' for Active; 'I' for Inactive)
REMARK    1  A    between atoms: C_2  and  C_20
REMARK    2  A    between atoms: N_3  and  C_4
REMARK    3  A    between atoms: C_4  and  C_5
REMARK    4  A    between atoms: C_8  and  C_9
REMARK    5  A    between atoms: C_9  and  O_10
REMARK    6  A    between atoms: O_10  and  C_11
REMARK    7  A    between atoms: C_11  and  C_12
REMARK                            x       y       z     vdW  Elec       q    Type
REMARK                         _______ _______ _______ _____ _____    ______ ____
ROOT
ATOM      1  C   UNL     1      48.036   6.770  13.341  0.00  0.00    +0.000 C 
ENDROOT
BRANCH   1   2
ATOM      2  C   UNL     1      46.938   5.956  12.703  0.00  0.00    +0.000 A 
ATOM      3  C   UNL     1      46.449   6.309  11.448  0.00  0.00    +0.000 A 
ATOM      4  C   UNL     1      45.424   5.557  10.886  0.00  0.00    +0.000 A 
ATOM      5  C   UNL     1      44.907   4.469  11.589  0.00  0.00    +0.000 A 
ATOM      6  C   UNL     1      45.472   4.171  12.825  0.00  0.00    +0.000 A 
ATOM      7  N   UNL     1      46.472   4.883  13.391  0.00  0.00    +0.000 NA
BRANCH   5   8
ATOM      8  C   UNL     1      43.725   3.695  11.082  0.00  0.00    +0.000 C 
BRANCH   8   9
ATOM      9  O   UNL     1      43.881   3.344   9.706  0.00  0.00    +0.000 OA
BRANCH   9  10
ATOM     10  C   UNL     1      44.592   2.118   9.531  0.00  0.00    +0.000 C 
BRANCH  10  11
ATOM     11  C   UNL     1      45.614   2.274   8.437  0.00  0.00    +0.000 A 
ATOM     12  C   UNL     1      46.413   1.187   8.051  0.00  0.00    +0.000 A 
ATOM     13  C   UNL     1      47.317   1.313   6.997  0.00  0.00    +0.000 A 
ATOM     14  C   UNL     1      47.432   2.525   6.320  0.00  0.00    +0.000 A 
ATOM     15  C   UNL     1      46.657   3.618   6.707  0.00  0.00    +0.000 A 
ATOM     16  C   UNL     1      45.755   3.494   7.764  0.00  0.00    +0.000 A 
ENDBRANCH  10  11
ENDBRANCH   9  10
ENDBRANCH   8   9
ENDBRANCH   5   8
ENDBRANCH   1   2
BRANCH   1  19
ATOM     17  O   UNL     1      50.192   6.714  15.157  0.00  0.00    +0.000 OA
ATOM     18  C   UNL     1      49.046   6.770  15.594  0.00  0.00    +0.000 C 
ATOM     19  N   UNL     1      47.948   6.770  14.781  0.00  0.00    +0.000 N 
ATOM     20  H   UNL     1      47.016   6.847  15.170  0.00  0.00    +0.000 HD
BRANCH  18  21
ATOM     21  C   UNL     1      48.773   6.803  17.034  0.00  0.00    +0.000 A 
ATOM     22  C   UNL     1      48.317   7.968  17.631  0.00  0.00    +0.000 A 
ATOM     23  S   UNL     1      48.050   7.812  19.309  0.00  0.00    +0.000 S 
ATOM     24  C   UNL     1      48.500   6.170  19.285  0.00  0.00    +0.000 A 
ATOM     25  N   UNL     1      48.464   5.416  20.416  0.00  0.00    +0.000 NA
ATOM     26  C   UNL     1      48.791   4.178  20.242  0.00  0.00    +0.000 A 
ATOM     27  N   UNL     1      49.159   3.628  19.042  0.00  0.00    +0.000 N 
ATOM     28  C   UNL     1      49.261   4.362  17.883  0.00  0.00    +0.000 A 
ATOM     29  O   UNL     1      49.686   3.855  16.850  0.00  0.00    +0.000 OA
ATOM     30  C   UNL     1      48.871   5.754  18.018  0.00  0.00    +0.000 A 
ATOM     31  H   UNL     1      49.426   2.658  18.976  0.00  0.00    +0.000 HD
ENDBRANCH  18  21
ENDBRANCH   1  19
TORSDOF 7
ENDMDL
MODEL 3
REMARK VINA RESULT:    -8.079      2.040      3.284
REMARK INTER + INTRA:         -12.463
REMARK INTER:                 -11.266
REMARK INTRA:                  -1.196
REMARK UNBOUND:                -1.078
REMARK  Name = 
REMARK  7 active torsions:
REMARK  status: ('A' for Active; 'I' for Inactive)
REMARK    1  A    between atoms: C_2  and  C_20
REMARK    2  A    between atoms: N_3  and  C_4
REMARK    3  A    between atoms: C_4  and  C_5
REMARK    4  A    between atoms: C_8  and  C_9
REMARK    5  A    between atoms: C_9  and  O_10
REMARK    6  A    between atoms: O_10  and  C_11
REMARK    7  A    between atoms: C_11  and  C_12
REMARK                            x       y       z     vdW  Elec       q    Type
REMARK                         _______ _______ _______ _____ _____    ______ ____
ROOT
ATOM      1  C   UNL     1      47.361   4.048  15.108  0.00  0.00    +0.000 C 
ENDROOT
BRANCH   1   2
ATOM      2  C   UNL     1      46.464   4.271  13.916  0.00  0.00    +0.000 A 
ATOM      3  C   UNL     1      46.098   5.565  13.552  0.00  0.00    +0.000 A 
ATOM      4  C   UNL     1      45.256   5.747  12.462  0.00  0.00    +0.000 A 
ATOM      5  C   UNL     1      44.796   4.634  11.757  0.00  0.00    +0.000 A 
ATOM      6  C   UNL     1      45.233   3.381  12.172  0.00  0.00    +0.000 A 
ATOM      7  N   UNL     1      46.055   3.176  13.225  0.00  0.00    +0.000 NA
BRANCH   5   8
ATOM      8  C   UNL     1      43.796   4.766  10.645  0.00  0.00    +0.000 C 
BRANCH   8   9
ATOM      9  O   UNL     1      44.032   3.806   9.613  0.00  0.00    +0.000 OA
BRANCH   9  10
ATOM     10  C   UNL     1      44.835   4.328   8.554  0.00  0.00    +0.000 C 
BRANCH  10  11
ATOM     11  C   UNL     1      45.761   3.257   8.042  0.00  0.00    +0.000 A 
ATOM     12  C   UNL     1      45.649   1.939   8.508  0.00  0.00    +0.000 A 
ATOM     13  C   UNL     1      46.465   0.933   7.989  0.00  0.00    +0.000 A 
ATOM     14  C   UNL     1      47.401   1.237   7.002  0.00  0.00    +0.000 A 
ATOM     15  C   UNL     1      47.534   2.548   6.546  0.00  0.00    +0.000 A 
ATOM     16  C   UNL     1      46.721   3.555   7.067  0.00  0.00    +0.000 A 
ENDBRANCH  10  11
ENDBRANCH   9  10
ENDBRANCH   8   9
ENDBRANCH   5   8
ENDBRANCH   1   2
BRANCH   1  19
ATOM     17  O   UNL     1      49.589   4.736  16.693  0.00  0.00    +0.000 OA
ATOM     18  C   UNL     1      48.641   5.514  16.627  0.00  0.00    +0.000 C 
ATOM     19  N   UNL     1      47.514   5.240  15.905  0.00  0.00    +0.000 N 
ATOM     20  H   UNL     1      46.761   5.916  15.845  0.00  0.00    +0.000 HD
BRANCH  18  21
ATOM     21  C   UNL     1      48.640   6.786  17.354  0.00  0.00    +0.000 A 
ATOM     22  C   UNL     1      48.704   6.798  18.740  0.00  0.00    +0.000 A 
ATOM     23  S   UNL     1      48.700   8.369  19.406  0.00  0.00    +0.000 S 
ATOM     24  C   UNL     1      48.651   9.085  17.862  0.00  0.00    +0.000 A 
ATOM     25  N   UNL     1      48.659  10.437  17.715  0.00  0.00    +0.000 NA
ATOM     26  C   UNL     1      48.662  10.840  16.487  0.00  0.00    +0.000 A 
ATOM     27  N   UNL     1      48.648  10.013  15.394  0.00  0.00    +0.000 N 
ATOM     28  C   UNL     1      48.585   8.643  15.493  0.00  0.00    +0.000 A 
ATOM     29  O   UNL     1      48.477   7.942  14.492  0.00  0.00    +0.000 OA
ATOM     30  C   UNL     1      48.615   8.138  16.853  0.00  0.00    +0.000 A 
ATOM     31  H   UNL     1      48.626  10.391  14.458  0.00  0.00    +0.000 HD
ENDBRANCH  18  21
ENDBRANCH   1  19
TORSDOF 7
ENDMDL
MODEL 4
REMARK VINA RESULT:    -7.927      2.301      2.791
REMARK INTER + INTRA:         -12.250
REMARK INTER:                 -11.263
REMARK INTRA:                  -0.986
REMARK UNBOUND:                -1.078
REMARK  Name = 
REMARK  7 active torsions:
REMARK  status: ('A' for Active; 'I' for Inactive)
REMARK    1  A    between atoms: C_2  and  C_20
REMARK    2  A    between atoms: N_3  and  C_4
REMARK    3  A    between atoms: C_4  and  C_5
REMARK    4  A    between atoms: C_8  and  C_9
REMARK    5  A    between atoms: C_9  and  O_10
REMARK    6  A    between atoms: O_10  and  C_11
REMARK    7  A    between atoms: C_11  and  C_12
REMARK                            x       y       z     vdW  Elec       q    Type
REMARK                         _______ _______ _______ _____ _____    ______ ____
ROOT
ATOM      1  C   UNL     1      48.051   6.376  13.970  0.00  0.00    +0.000 C 
ENDROOT
BRANCH   1   2
ATOM      2  C   UNL     1      46.845   5.820  13.255  0.00  0.00    +0.000 A 
ATOM      3  C   UNL     1      46.486   4.485  13.429  0.00  0.00    +0.000 A 
ATOM      4  C   UNL     1      45.383   3.988  12.746  0.00  0.00    +0.000 A 
ATOM      5  C   UNL     1      44.660   4.833  11.902  0.00  0.00    +0.000 A 
ATOM      6  C   UNL     1      45.072   6.158  11.808  0.00  0.00    +0.000 A 
ATOM      7  N   UNL     1      46.138   6.668  12.465  0.00  0.00    +0.000 NA
BRANCH   5   8
ATOM      8  C   UNL     1      43.532   4.320  11.055  0.00  0.00    +0.000 C 
BRANCH   8   9
ATOM      9  O   UNL     1      44.000   3.414  10.054  0.00  0.00    +0.000 OA
BRANCH   9  10
ATOM     10  C   UNL     1      44.576   4.085   8.934  0.00  0.00    +0.000 C 
BRANCH  10  11
ATOM     11  C   UNL     1      45.570   3.182   8.254  0.00  0.00    +0.000 A 
ATOM     12  C   UNL     1      45.659   1.828   8.610  0.00  0.00    +0.000 A 
ATOM     13  C   UNL     1      46.535   0.975   7.939  0.00  0.00    +0.000 A 
ATOM     14  C   UNL     1      47.332   1.469   6.907  0.00  0.00    +0.000 A 
ATOM     15  C   UNL     1      47.265   2.817   6.558  0.00  0.00    +0.000 A 
ATOM     16  C   UNL     1      46.392   3.671   7.231  0.00  0.00    +0.000 A 
ENDBRANCH  10  11
ENDBRANCH   9  10
ENDBRANCH   8   9
ENDBRANCH   5   8
ENDBRANCH   1   2
BRANCH   1  19
ATOM     17  O   UNL     1      50.119   6.198  15.877  0.00  0.00    +0.000 OA
ATOM     18  C   UNL     1      48.957   6.281  16.264  0.00  0.00    +0.000 C 
ATOM     19  N   UNL     1      47.898   6.341  15.404  0.00  0.00    +0.000 N 
ATOM     20  H   UNL     1      46.952   6.441  15.753  0.00  0.00    +0.000 HD
BRANCH  18  21
ATOM     21  C   UNL     1      48.622   6.286  17.691  0.00  0.00    +0.000 A 
ATOM     22  C   UNL     1      48.796   5.140  18.453  0.00  0.00    +0.000 A 
ATOM     23  S   UNL     1      48.358   5.341  20.090  0.00  0.00    +0.000 S 
ATOM     24  C   UNL     1      47.958   6.977  19.842  0.00  0.00    +0.000 A 
ATOM     25  N   UNL     1      47.532   7.759  20.869  0.00  0.00    +0.000 NA
ATOM     26  C   UNL     1      47.305   8.989  20.545  0.00  0.00    +0.000 A 
ATOM     27  N   UNL     1      47.456   9.505  19.285  0.00  0.00    +0.000 N 
ATOM     28  C   UNL     1      47.832   8.742  18.204  0.00  0.00    +0.000 A 
ATOM     29  O   UNL     1      47.864   9.219  17.075  0.00  0.00    +0.000 OA
ATOM     30  C   UNL     1      48.133   7.358  18.523  0.00  0.00    +0.000 A 
ATOM     31  H   UNL     1      47.239  10.471  19.090  0.00  0.00    +0.000 HD
ENDBRANCH  18  21
ENDBRANCH   1  19
TORSDOF 7
ENDMDL
MODEL 5
REMARK VINA RESULT:    -7.732      2.485      3.032
REMARK INTER + INTRA:         -11.974
REMARK INTER:                 -11.121
REMARK INTRA:                  -0.853
REMARK UNBOUND:                -1.078
REMARK  Name = 
REMARK  7 active torsions:
REMARK  status: ('A' for Active; 'I' for Inactive)
REMARK    1  A    between atoms: C_2  and  C_20
REMARK    2  A    between atoms: N_3  and  C_4
REMARK    3  A    between atoms: C_4  and  C_5
REMARK    4  A    between atoms: C_8  and  C_9
REMARK    5  A    between atoms: C_9  and  O_10
REMARK    6  A    between atoms: O_10  and  C_11
REMARK    7  A    between atoms: C_11  and  C_12
REMARK                            x       y       z     vdW  Elec       q    Type
REMARK                         _______ _______ _______ _____ _____    ______ ____
ROOT
ATOM      1  C   UNL     1      47.442   4.853  14.772  0.00  0.00    +0.000 C 
ENDROOT
BRANCH   1   2
ATOM      2  C   UNL     1      46.480   4.823  13.610  0.00  0.00    +0.000 A 
ATOM      3  C   UNL     1      46.642   5.711  12.549  0.00  0.00    +0.000 A 
ATOM      4  C   UNL     1      45.735   5.679  11.497  0.00  0.00    +0.000 A 
ATOM      5  C   UNL     1      44.683   4.762  11.526  0.00  0.00    +0.000 A 
ATOM      6  C   UNL     1      44.613   3.895  12.610  0.00  0.00    +0.000 A 
ATOM      7  N   UNL     1      45.485   3.901  13.644  0.00  0.00    +0.000 NA
BRANCH   5   8
ATOM      8  C   UNL     1      43.612   4.762  10.475  0.00  0.00    +0.000 C 
BRANCH   8   9
ATOM      9  O   UNL     1      44.106   4.281   9.223  0.00  0.00    +0.000 OA
BRANCH   9  10
ATOM     10  C   UNL     1      44.440   2.894   9.263  0.00  0.00    +0.000 C 
BRANCH  10  11
ATOM     11  C   UNL     1      45.532   2.604   8.269  0.00  0.00    +0.000 A 
ATOM     12  C   UNL     1      46.162   1.350   8.250  0.00  0.00    +0.000 A 
ATOM     13  C   UNL     1      47.131   1.059   7.290  0.00  0.00    +0.000 A 
ATOM     14  C   UNL     1      47.480   2.018   6.341  0.00  0.00    +0.000 A 
ATOM     15  C   UNL     1      46.874   3.274   6.362  0.00  0.00    +0.000 A 
ATOM     16  C   UNL     1      45.908   3.568   7.324  0.00  0.00    +0.000 A 
ENDBRANCH  10  11
ENDBRANCH   9  10
ENDBRANCH   8   9
ENDBRANCH   5   8
ENDBRANCH   1   2
BRANCH   1  19
ATOM     17  O   UNL     1      49.550   5.665  16.459  0.00  0.00    +0.000 OA
ATOM     18  C   UNL     1      48.784   6.514  16.012  0.00  0.00    +0.000 C 
ATOM     19  N   UNL     1      47.721   6.198  15.213  0.00  0.00    +0.000 N 
ATOM     20  H   UNL     1      47.124   6.924  14.835  0.00  0.00    +0.000 HD
BRANCH  18  21
ATOM     21  C   UNL     1      48.937   7.934  16.338  0.00  0.00    +0.000 A 
ATOM     22  C   UNL     1      49.602   8.782  15.465  0.00  0.00    +0.000 A 
ATOM     23  S   UNL     1      49.674  10.397  16.011  0.00  0.00    +0.000 S 
ATOM     24  C   UNL     1      48.785  10.023  17.414  0.00  0.00    +0.000 A 
ATOM     25  N   UNL     1      48.462  10.986  18.318  0.00  0.00    +0.000 NA
ATOM     26  C   UNL     1      47.750  10.566  19.312  0.00  0.00    +0.000 A 
ATOM     27  N   UNL     1      47.339   9.271  19.487  0.00  0.00    +0.000 N 
ATOM     28  C   UNL     1      47.686   8.254  18.629  0.00  0.00    +0.000 A 
ATOM     29  O   UNL     1      47.380   7.092  18.871  0.00  0.00    +0.000 OA
ATOM     30  C   UNL     1      48.458   8.679  17.476  0.00  0.00    +0.000 A 
ATOM     31  H   UNL     1      46.804   9.002  20.299  0.00  0.00    +0.000 HD
ENDBRANCH  18  21
ENDBRANCH   1  19
TORSDOF 7
ENDMDL
MODEL 6
REMARK VINA RESULT:    -7.716      2.273      2.867
REMARK INTER + INTRA:         -11.952
REMARK INTER:                 -11.020
REMARK INTRA:                  -0.932
REMARK UNBOUND:                -1.078
REMARK  Name = 
REMARK  7 active torsions:
REMARK  status: ('A' for Active; 'I' for Inactive)
REMARK    1  A    between atoms: C_2  and  C_20
REMARK    2  A    between atoms: N_3  and  C_4
REMARK    3  A    between atoms: C_4  and  C_5
REMARK    4  A    between atoms: C_8  and  C_9
REMARK    5  A    between atoms: C_9  and  O_10
REMARK    6  A    between atoms: O_10  and  C_11
REMARK    7  A    between atoms: C_11  and  C_12
REMARK                            x       y       z     vdW  Elec       q    Type
REMARK                         _______ _______ _______ _____ _____    ______ ____
ROOT
ATOM      1  C   UNL     1      47.403   4.199  14.882  0.00  0.00    +0.000 C 
ENDROOT
BRANCH   1   2
ATOM      2  C   UNL     1      46.394   4.315  13.766  0.00  0.00    +0.000 A 
ATOM      3  C   UNL     1      46.042   3.188  13.026  0.00  0.00    +0.000 A 
ATOM      4  C   UNL     1      45.125   3.320  11.991  0.00  0.00    +0.000 A 
ATOM      5  C   UNL     1      44.577   4.574  11.715  0.00  0.00    +0.000 A 
ATOM      6  C   UNL     1      44.963   5.639  12.521  0.00  0.00    +0.000 A 
ATOM      7  N   UNL     1      45.850   5.537  13.537  0.00  0.00    +0.000 NA
BRANCH   5   8
ATOM      8  C   UNL     1      43.671   4.794  10.539  0.00  0.00    +0.000 C 
BRANCH   8   9
ATOM      9  O   UNL     1      44.035   3.963   9.435  0.00  0.00    +0.000 OA
BRANCH   9  10
ATOM     10  C   UNL     1      45.165   4.465   8.721  0.00  0.00    +0.000 C 
BRANCH  10  11
ATOM     11  C   UNL     1      45.848   3.339   7.992  0.00  0.00    +0.000 A 
ATOM     12  C   UNL     1      46.536   3.582   6.794  0.00  0.00    +0.000 A 
ATOM     13  C   UNL     1      47.221   2.553   6.149  0.00  0.00    +0.000 A 
ATOM     14  C   UNL     1      47.223   1.271   6.695  0.00  0.00    +0.000 A 
ATOM     15  C   UNL     1      46.526   1.013   7.875  0.00  0.00    +0.000 A 
ATOM     16  C   UNL     1      45.837   2.041   8.518  0.00  0.00    +0.000 A 
ENDBRANCH  10  11
ENDBRANCH   9  10
ENDBRANCH   8   9
ENDBRANCH   5   8
ENDBRANCH   1   2
BRANCH   1  19
ATOM     17  O   UNL     1      49.530   4.959  16.568  0.00  0.00    +0.000 OA
ATOM     18  C   UNL     1      48.574   5.717  16.437  0.00  0.00    +0.000 C 
ATOM     19  N   UNL     1      47.491   5.408  15.663  0.00  0.00    +0.000 N 
ATOM     20  H   UNL     1      46.730   6.068  15.551  0.00  0.00    +0.000 HD
BRANCH  18  21
ATOM     21  C   UNL     1      48.511   7.002  17.139  0.00  0.00    +0.000 A 
ATOM     22  C   UNL     1      48.754   8.184  16.455  0.00  0.00    +0.000 A 
ATOM     23  S   UNL     1      48.629   9.574  17.437  0.00  0.00    +0.000 S 
ATOM     24  C   UNL     1      48.207   8.644  18.799  0.00  0.00    +0.000 A 
ATOM     25  N   UNL     1      47.928   9.234  19.992  0.00  0.00    +0.000 NA
ATOM     26  C   UNL     1      47.582   8.410  20.926  0.00  0.00    +0.000 A 
ATOM     27  N   UNL     1      47.499   7.050  20.777  0.00  0.00    +0.000 N 
ATOM     28  C   UNL     1      47.824   6.405  19.607  0.00  0.00    +0.000 A 
ATOM     29  O   UNL     1      47.829   5.181  19.542  0.00  0.00    +0.000 OA
ATOM     30  C   UNL     1      48.186   7.290  18.515  0.00  0.00    +0.000 A 
ATOM     31  H   UNL     1      47.246   6.458  21.553  0.00  0.00    +0.000 HD
ENDBRANCH  18  21
ENDBRANCH   1  19
TORSDOF 7
ENDMDL
MODEL 7
REMARK VINA RESULT:    -7.112      3.047      8.432
REMARK INTER + INTRA:         -11.100
REMARK INTER:                  -9.676
REMARK INTRA:                  -1.425
REMARK UNBOUND:                -1.078
REMARK  Name = 
REMARK  7 active torsions:
REMARK  status: ('A' for Active; 'I' for Inactive)
REMARK    1  A    between atoms: C_2  and  C_20
REMARK    2  A    between atoms: N_3  and  C_4
REMARK    3  A    between atoms: C_4  and  C_5
REMARK    4  A    between atoms: C_8  and  C_9
REMARK    5  A    between atoms: C_9  and  O_10
REMARK    6  A    between atoms: O_10  and  C_11
REMARK    7  A    between atoms: C_11  and  C_12
REMARK                            x       y       z     vdW  Elec       q    Type
REMARK                         _______ _______ _______ _____ _____    ______ ____
ROOT
ATOM      1  C   UNL     1      47.721   7.642  12.168  0.00  0.00    +0.000 C 
ENDROOT
BRANCH   1   2
ATOM      2  C   UNL     1      48.165   7.746  13.606  0.00  0.00    +0.000 A 
ATOM      3  C   UNL     1      47.966   8.930  14.313  0.00  0.00    +0.000 A 
ATOM      4  C   UNL     1      48.399   9.010  15.630  0.00  0.00    +0.000 A 
ATOM      5  C   UNL     1      49.025   7.909  16.216  0.00  0.00    +0.000 A 
ATOM      6  C   UNL     1      49.159   6.758  15.446  0.00  0.00    +0.000 A 
ATOM      7  N   UNL     1      48.741   6.652  14.164  0.00  0.00    +0.000 NA
BRANCH   5   8
ATOM      8  C   UNL     1      49.614   7.979  17.594  0.00  0.00    +0.000 C 
BRANCH   8   9
ATOM      9  O   UNL     1      48.719   7.449  18.574  0.00  0.00    +0.000 OA
BRANCH   9  10
ATOM     10  C   UNL     1      49.258   6.313  19.249  0.00  0.00    +0.000 C 
BRANCH  10  11
ATOM     11  C   UNL     1      48.882   5.056  18.511  0.00  0.00    +0.000 A 
ATOM     12  C   UNL     1      47.546   4.811  18.157  0.00  0.00    +0.000 A 
ATOM     13  C   UNL     1      47.205   3.678  17.420  0.00  0.00    +0.000 A 
ATOM     14  C   UNL     1      48.195   2.777  17.031  0.00  0.00    +0.000 A 
ATOM     15  C   UNL     1      49.523   3.000  17.394  0.00  0.00    +0.000 A 
ATOM     16  C   UNL     1      49.865   4.132  18.134  0.00  0.00    +0.000 A 
ENDBRANCH  10  11
ENDBRANCH   9  10
ENDBRANCH   8   9
ENDBRANCH   5   8
ENDBRANCH   1   2
BRANCH   1  19
ATOM     17  O   UNL     1      44.914   7.388  12.226  0.00  0.00    +0.000 OA
ATOM     18  C   UNL     1      45.595   6.408  11.939  0.00  0.00    +0.000 C 
ATOM     19  N   UNL     1      46.961   6.442  11.918  0.00  0.00    +0.000 N 
ATOM     20  H   UNL     1      47.495   5.625  11.648  0.00  0.00    +0.000 HD
BRANCH  18  21
ATOM     21  C   UNL     1      44.985   5.111  11.631  0.00  0.00    +0.000 A 
ATOM     22  C   UNL     1      44.249   4.440  12.596  0.00  0.00    +0.000 A 
ATOM     23  S   UNL     1      43.612   2.954  12.050  0.00  0.00    +0.000 S 
ATOM     24  C   UNL     1      44.267   3.178  10.495  0.00  0.00    +0.000 A 
ATOM     25  N   UNL     1      44.063   2.264   9.509  0.00  0.00    +0.000 NA
ATOM     26  C   UNL     1      44.582   2.584   8.370  0.00  0.00    +0.000 A 
ATOM     27  N   UNL     1      45.296   3.729   8.131  0.00  0.00    +0.000 N 
ATOM     28  C   UNL     1      45.574   4.655   9.109  0.00  0.00    +0.000 A 
ATOM     29  O   UNL     1      46.297   5.619   8.879  0.00  0.00    +0.000 OA
ATOM     30  C   UNL     1      44.982   4.359  10.401  0.00  0.00    +0.000 A 
ATOM     31  H   UNL     1      45.697   3.910   7.223  0.00  0.00    +0.000 HD
ENDBRANCH  18  21
ENDBRANCH   1  19
TORSDOF 7
ENDMDL
MODEL 8
REMARK VINA RESULT:    -6.947      2.034      3.092
REMARK INTER + INTRA:         -10.869
REMARK INTER:                  -9.838
REMARK INTRA:                  -1.031
REMARK UNBOUND:                -1.078
REMARK  Name = 
REMARK  7 active torsions:
REMARK  status: ('A' for Active; 'I' for Inactive)
REMARK    1  A    between atoms: C_2  and  C_20
REMARK    2  A    between atoms: N_3  and  C_4
REMARK    3  A    between atoms: C_4  and  C_5
REMARK    4  A    between atoms: C_8  and  C_9
REMARK    5  A    between atoms: C_9  and  O_10
REMARK    6  A    between atoms: O_10  and  C_11
REMARK    7  A    between atoms: C_11  and  C_12
REMARK                            x       y       z     vdW  Elec       q    Type
REMARK                         _______ _______ _______ _____ _____    ______ ____
ROOT
ATOM      1  C   UNL     1      48.056   7.221  12.247  0.00  0.00    +0.000 C 
ENDROOT
BRANCH   1   2
ATOM      2  C   UNL     1      46.884   6.301  12.010  0.00  0.00    +0.000 A 
ATOM      3  C   UNL     1      46.625   5.259  12.898  0.00  0.00    +0.000 A 
ATOM      4  C   UNL     1      45.552   4.412  12.651  0.00  0.00    +0.000 A 
ATOM      5  C   UNL     1      44.758   4.621  11.523  0.00  0.00    +0.000 A 
ATOM      6  C   UNL     1      45.071   5.701  10.704  0.00  0.00    +0.000 A 
ATOM      7  N   UNL     1      46.107   6.543  10.924  0.00  0.00    +0.000 NA
BRANCH   5   8
ATOM      8  C   UNL     1      43.659   3.670  11.147  0.00  0.00    +0.000 C 
BRANCH   8   9
ATOM      9  O   UNL     1      43.774   3.249   9.786  0.00  0.00    +0.000 OA
BRANCH   9  10
ATOM     10  C   UNL     1      44.560   2.065   9.645  0.00  0.00    +0.000 C 
BRANCH  10  11
ATOM     11  C   UNL     1      45.533   2.233   8.509  0.00  0.00    +0.000 A 
ATOM     12  C   UNL     1      45.664   3.470   7.861  0.00  0.00    +0.000 A 
ATOM     13  C   UNL     1      46.608   3.643   6.849  0.00  0.00    +0.000 A 
ATOM     14  C   UNL     1      47.429   2.582   6.475  0.00  0.00    +0.000 A 
ATOM     15  C   UNL     1      47.295   1.342   7.099  0.00  0.00    +0.000 A 
ATOM     16  C   UNL     1      46.348   1.166   8.108  0.00  0.00    +0.000 A 
ENDBRANCH  10  11
ENDBRANCH   9  10
ENDBRANCH   8   9
ENDBRANCH   5   8
ENDBRANCH   1   2
BRANCH   1  19
ATOM     17  O   UNL     1      47.833   8.637  14.674  0.00  0.00    +0.000 OA
ATOM     18  C   UNL     1      48.556   7.646  14.627  0.00  0.00    +0.000 C 
ATOM     19  N   UNL     1      48.740   6.924  13.482  0.00  0.00    +0.000 N 
ATOM     20  H   UNL     1      49.319   6.093  13.482  0.00  0.00    +0.000 HD
BRANCH  18  21
ATOM     21  C   UNL     1      49.306   7.187  15.799  0.00  0.00    +0.000 A 
ATOM     22  C   UNL     1      48.939   6.018  16.449  0.00  0.00    +0.000 A 
ATOM     23  S   UNL     1      49.933   5.643  17.784  0.00  0.00    +0.000 S 
ATOM     24  C   UNL     1      50.911   7.010  17.513  0.00  0.00    +0.000 A 
ATOM     25  N   UNL     1      51.988   7.270  18.301  0.00  0.00    +0.000 NA
ATOM     26  C   UNL     1      52.662   8.317  17.954  0.00  0.00    +0.000 A 
ATOM     27  N   UNL     1      52.351   9.131  16.897  0.00  0.00    +0.000 N 
ATOM     28  C   UNL     1      51.243   8.940  16.106  0.00  0.00    +0.000 A 
ATOM     29  O   UNL     1      50.946   9.744  15.230  0.00  0.00    +0.000 OA
ATOM     30  C   UNL     1      50.470   7.755  16.433  0.00  0.00    +0.000 A 
ATOM     31  H   UNL     1      52.905   9.949  16.692  0.00  0.00    +0.000 HD
ENDBRANCH  18  21
ENDBRANCH   1  19
TORSDOF 7
ENDMDL
MODEL 9
REMARK VINA RESULT:    -6.777      3.825      9.499
REMARK INTER + INTRA:         -10.629
REMARK INTER:                  -9.203
REMARK INTRA:                  -1.426
REMARK UNBOUND:                -1.078
REMARK  Name = 
REMARK  7 active torsions:
REMARK  status: ('A' for Active; 'I' for Inactive)
REMARK    1  A    between atoms: C_2  and  C_20
REMARK    2  A    between atoms: N_3  and  C_4
REMARK    3  A    between atoms: C_4  and  C_5
REMARK    4  A    between atoms: C_8  and  C_9
REMARK    5  A    between atoms: C_9  and  O_10
REMARK    6  A    between atoms: O_10  and  C_11
REMARK    7  A    between atoms: C_11  and  C_12
REMARK                            x       y       z     vdW  Elec       q    Type
REMARK                         _______ _______ _______ _____ _____    ______ ____
ROOT
ATOM      1  C   UNL     1      47.349   3.410  16.550  0.00  0.00    +0.000 C 
ENDROOT
BRANCH   1   2
ATOM      2  C   UNL     1      48.431   3.988  17.428  0.00  0.00    +0.000 A 
ATOM      3  C   UNL     1      48.121   4.442  18.708  0.00  0.00    +0.000 A 
ATOM      4  C   UNL     1      49.128   4.988  19.493  0.00  0.00    +0.000 A 
ATOM      5  C   UNL     1      50.426   5.071  18.985  0.00  0.00    +0.000 A 
ATOM      6  C   UNL     1      50.652   4.569  17.708  0.00  0.00    +0.000 A 
ATOM      7  N   UNL     1      49.691   4.028  16.926  0.00  0.00    +0.000 NA
BRANCH   5   8
ATOM      8  C   UNL     1      51.525   5.754  19.744  0.00  0.00    +0.000 C 
BRANCH   8   9
ATOM      9  O   UNL     1      51.777   7.065  19.235  0.00  0.00    +0.000 OA
BRANCH   9  10
ATOM     10  C   UNL     1      51.311   8.092  20.111  0.00  0.00    +0.000 C 
BRANCH  10  11
ATOM     11  C   UNL     1      49.858   8.373  19.839  0.00  0.00    +0.000 A 
ATOM     12  C   UNL     1      48.937   8.442  20.895  0.00  0.00    +0.000 A 
ATOM     13  C   UNL     1      47.602   8.763  20.650  0.00  0.00    +0.000 A 
ATOM     14  C   UNL     1      47.175   9.017  19.348  0.00  0.00    +0.000 A 
ATOM     15  C   UNL     1      48.077   8.932  18.289  0.00  0.00    +0.000 A 
ATOM     16  C   UNL     1      49.412   8.607  18.532  0.00  0.00    +0.000 A 
ENDBRANCH  10  11
ENDBRANCH   9  10
ENDBRANCH   8   9
ENDBRANCH   5   8
ENDBRANCH   1   2
BRANCH   1  19
ATOM     17  O   UNL     1      47.179   3.144  13.749  0.00  0.00    +0.000 OA
ATOM     18  C   UNL     1      46.748   4.165  14.278  0.00  0.00    +0.000 C 
ATOM     19  N   UNL     1      46.821   4.382  15.625  0.00  0.00    +0.000 N 
ATOM     20  H   UNL     1      46.429   5.221  16.036  0.00  0.00    +0.000 HD
BRANCH  18  21
ATOM     21  C   UNL     1      46.154   5.247  13.488  0.00  0.00    +0.000 A 
ATOM     22  C   UNL     1      46.874   6.405  13.237  0.00  0.00    +0.000 A 
ATOM     23  S   UNL     1      46.021   7.545  12.297  0.00  0.00    +0.000 S 
ATOM     24  C   UNL     1      44.675   6.511  12.163  0.00  0.00    +0.000 A 
ATOM     25  N   UNL     1      43.579   6.875  11.444  0.00  0.00    +0.000 NA
ATOM     26  C   UNL     1      42.652   5.976  11.393  0.00  0.00    +0.000 A 
ATOM     27  N   UNL     1      42.717   4.752  12.004  0.00  0.00    +0.000 N 
ATOM     28  C   UNL     1      43.779   4.361  12.785  0.00  0.00    +0.000 A 
ATOM     29  O   UNL     1      43.758   3.296  13.393  0.00  0.00    +0.000 OA
ATOM     30  C   UNL     1      44.865   5.323  12.846  0.00  0.00    +0.000 A 
ATOM     31  H   UNL     1      41.948   4.102  11.947  0.00  0.00    +0.000 HD
ENDBRANCH  18  21
ENDBRANCH   1  19
TORSDOF 7
ENDMDL
