MODEL 1
REMARK VINA RESULT:    -7.830      0.000      0.000
REMARK INTER + INTRA:         -10.169
REMARK INTER:                  -9.661
REMARK INTRA:                  -0.508
REMARK UNBOUND:                -0.508
REMARK  Name = 
REMARK  5 active torsions:
REMARK  status: ('A' for Active; 'I' for Inactive)
REMARK    1  A    between atoms: C_1  and  C_2
REMARK    2  A    between atoms: C_5  and  N_6
REMARK    3  A    between atoms: N_6  and  C_7
REMARK    4  A    between atoms: C_7  and  C_8
REMARK    5  A    between atoms: C_12  and  C_13
REMARK                            x       y       z     vdW  Elec       q    Type
REMARK                         _______ _______ _______ _____ _____    ______ ____
ROOT
ATOM      1  C   UNL     1      44.766   4.836  11.802  0.00  0.00    +0.000 A 
ATOM      2  C   UNL     1      45.290   3.943  12.743  0.00  0.00    +0.000 A 
ATOM      3  C   UNL     1      46.413   4.290  13.490  0.00  0.00    +0.000 A 
ATOM      4  C   UNL     1      47.026   5.533  13.306  0.00  0.00    +0.000 A 
ATOM      5  C   UNL     1      46.531   6.461  12.372  0.00  0.00    +0.000 A 
ATOM      6  C   UNL     1      45.382   6.092  11.643  0.00  0.00    +0.000 A 
ENDROOT
BRANCH   5   7
ATOM      7  C   UNL     1      47.208   7.758  12.141  0.00  0.00    +0.000 A 
ATOM      8  C   UNL     1      48.559   7.848  11.772  0.00  0.00    +0.000 A 
ATOM      9  C   UNL     1      49.170   9.091  11.599  0.00  0.00    +0.000 A 
ATOM     10  C   UNL     1      48.410  10.231  11.788  0.00  0.00    +0.000 A 
ATOM     11  N   UNL     1      47.109  10.207  12.133  0.00  0.00    +0.000 NA
ATOM     12  C   UNL     1      46.549   8.982  12.303  0.00  0.00    +0.000 A 
ENDBRANCH   5   7
BRANCH   1  13
ATOM     13  C   UNL     1      43.552   4.465  10.971  0.00  0.00    +0.000 C 
BRANCH  13  14
ATOM     14  N   UNL     1      43.817   4.771   9.573  0.00  0.00    +0.000 N 
ATOM     15  H   UNL     1      42.962   4.796   9.026  0.00  0.00    +0.000 HD
BRANCH  14  20
ATOM     16  C   UNL     1      47.354   1.188   7.063  0.00  0.00    +0.000 C 
ATOM     17  C   UNL     1      46.444   2.158   7.747  0.00  0.00    +0.000 A 
ATOM     18  C   UNL     1      46.452   3.515   7.444  0.00  0.00    +0.000 A 
ATOM     19  N   UNL     1      45.619   4.416   8.028  0.00  0.00    +0.000 NA
ATOM     20  C   UNL     1      44.756   3.934   8.947  0.00  0.00    +0.000 A 
ATOM     21  C   UNL     1      44.756   2.565   9.238  0.00  0.00    +0.000 A 
ATOM     22  N   UNL     1      45.588   1.660   8.664  0.00  0.00    +0.000 NA
ENDBRANCH  14  20
ENDBRANCH  13  14
ENDBRANCH   1  13
TORSDOF 4
ENDMDL
MODEL 2
REMARK VINA RESULT:    -7.664      1.989      3.324
REMARK INTER + INTRA:          -9.964
REMARK INTER:                  -9.329
REMARK INTRA:                  -0.635
REMARK UNBOUND:                -0.508
REMARK  Name = 
REMARK  5 active torsions:
REMARK  status: ('A' for Active; 'I' for Inactive)
REMARK    1  A    between atoms: C_1  and  C_2
REMARK    2  A    between atoms: C_5  and  N_6
REMARK    3  A    between atoms: N_6  and  C_7
REMARK    4  A    between atoms: C_7  and  C_8
REMARK    5  A    between atoms: C_12  and  C_13
REMARK                            x       y       z     vdW  Elec       q    Type
REMARK                         _______ _______ _______ _____ _____    ______ ____
ROOT
ATOM      1  C   UNL     1      44.660   5.324  11.611  0.00  0.00    +0.000 A 
ATOM      2  C   UNL     1      44.704   6.655  11.182  0.00  0.00    +0.000 A 
ATOM      3  C   UNL     1      45.555   7.565  11.805  0.00  0.00    +0.000 A 
ATOM      4  C   UNL     1      46.371   7.156  12.864  0.00  0.00    +0.000 A 
ATOM      5  C   UNL     1      46.358   5.828  13.326  0.00  0.00    +0.000 A 
ATOM      6  C   UNL     1      45.502   4.924  12.666  0.00  0.00    +0.000 A 
ENDROOT
BRANCH   5   7
ATOM      7  C   UNL     1      47.185   5.406  14.480  0.00  0.00    +0.000 A 
ATOM      8  C   UNL     1      46.928   4.232  15.204  0.00  0.00    +0.000 A 
ATOM      9  C   UNL     1      47.709   3.888  16.308  0.00  0.00    +0.000 A 
ATOM     10  C   UNL     1      48.750   4.725  16.665  0.00  0.00    +0.000 A 
ATOM     11  N   UNL     1      49.051   5.859  16.004  0.00  0.00    +0.000 NA
ATOM     12  C   UNL     1      48.264   6.168  14.941  0.00  0.00    +0.000 A 
ENDBRANCH   5   7
BRANCH   1  13
ATOM     13  C   UNL     1      43.727   4.326  10.952  0.00  0.00    +0.000 C 
BRANCH  13  14
ATOM     14  N   UNL     1      43.772   4.507   9.509  0.00  0.00    +0.000 N 
ATOM     15  H   UNL     1      42.879   4.294   9.075  0.00  0.00    +0.000 HD
BRANCH  14  20
ATOM     16  C   UNL     1      47.680   1.448   6.859  0.00  0.00    +0.000 C 
ATOM     17  C   UNL     1      46.670   2.281   7.581  0.00  0.00    +0.000 A 
ATOM     18  C   UNL     1      46.539   3.646   7.350  0.00  0.00    +0.000 A 
ATOM     19  N   UNL     1      45.612   4.424   7.970  0.00  0.00    +0.000 NA
ATOM     20  C   UNL     1      44.797   3.806   8.852  0.00  0.00    +0.000 A 
ATOM     21  C   UNL     1      44.937   2.431   9.071  0.00  0.00    +0.000 A 
ATOM     22  N   UNL     1      45.863   1.649   8.461  0.00  0.00    +0.000 NA
ENDBRANCH  14  20
ENDBRANCH  13  14
ENDBRANCH   1  13
TORSDOF 4
ENDMDL
MODEL 3
REMARK VINA RESULT:    -7.504      1.778      6.391
REMARK INTER + INTRA:          -9.767
REMARK INTER:                  -9.104
REMARK INTRA:                  -0.662
REMARK UNBOUND:                -0.508
REMARK  Name = 
REMARK  5 active torsions:
REMARK  status: ('A' for Active; 'I' for Inactive)
REMARK    1  A    between atoms: C_1  and  C_2
REMARK    2  A    between atoms: C_5  and  N_6
REMARK    3  A    between atoms: N_6  and  C_7
REMARK    4  A    between atoms: C_7  and  C_8
REMARK    5  A    between atoms: C_12  and  C_13
REMARK                            x       y       z     vdW  Elec       q    Type
REMARK                         _______ _______ _______ _____ _____    ______ ____
ROOT
ATOM      1  C   UNL     1      44.018   4.828  10.972  0.00  0.00    +0.000 A 
ATOM      2  C   UNL     1      43.298   3.836  11.649  0.00  0.00    +0.000 A 
ATOM      3  C   UNL     1      43.395   2.505  11.253  0.00  0.00    +0.000 A 
ATOM      4  C   UNL     1      44.210   2.148  10.174  0.00  0.00    +0.000 A 
ATOM      5  C   UNL     1      44.950   3.112   9.466  0.00  0.00    +0.000 A 
ATOM      6  C   UNL     1      44.849   4.449   9.901  0.00  0.00    +0.000 A 
ENDROOT
BRANCH   5   7
ATOM      7  C   UNL     1      45.774   2.742   8.293  0.00  0.00    +0.000 A 
ATOM      8  C   UNL     1      46.024   3.630   7.236  0.00  0.00    +0.000 A 
ATOM      9  C   UNL     1      46.776   3.230   6.130  0.00  0.00    +0.000 A 
ATOM     10  C   UNL     1      47.279   1.942   6.107  0.00  0.00    +0.000 A 
ATOM     11  N   UNL     1      47.082   1.050   7.095  0.00  0.00    +0.000 NA
ATOM     12  C   UNL     1      46.337   1.469   8.150  0.00  0.00    +0.000 A 
ENDBRANCH   5   7
BRANCH   1  13
ATOM     13  C   UNL     1      43.910   6.284  11.384  0.00  0.00    +0.000 C 
BRANCH  13  14
ATOM     14  N   UNL     1      44.466   6.447  12.719  0.00  0.00    +0.000 N 
ATOM     15  H   UNL     1      43.923   7.101  13.274  0.00  0.00    +0.000 HD
BRANCH  14  20
ATOM     16  C   UNL     1      49.976   7.582  12.791  0.00  0.00    +0.000 C 
ATOM     17  C   UNL     1      48.506   7.308  12.799  0.00  0.00    +0.000 A 
ATOM     18  C   UNL     1      47.577   8.253  12.377  0.00  0.00    +0.000 A 
ATOM     19  N   UNL     1      46.238   8.023  12.348  0.00  0.00    +0.000 NA
ATOM     20  C   UNL     1      45.824   6.806  12.759  0.00  0.00    +0.000 A 
ATOM     21  C   UNL     1      46.770   5.863  13.175  0.00  0.00    +0.000 A 
ATOM     22  N   UNL     1      48.108   6.086  13.214  0.00  0.00    +0.000 NA
ENDBRANCH  14  20
ENDBRANCH  13  14
ENDBRANCH   1  13
TORSDOF 4
ENDMDL
MODEL 4
REMARK VINA RESULT:    -7.300      1.602      2.336
REMARK INTER + INTRA:          -9.515
REMARK INTER:                  -8.915
REMARK INTRA:                  -0.600
REMARK UNBOUND:                -0.508
REMARK  Name = 
REMARK  5 active torsions:
REMARK  status: ('A' for Active; 'I' for Inactive)
REMARK    1  A    between atoms: C_1  and  C_2
REMARK    2  A    between atoms: C_5  and  N_6
REMARK    3  A    between atoms: N_6  and  C_7
REMARK    4  A    between atoms: C_7  and  C_8
REMARK    5  A    between atoms: C_12  and  C_13
REMARK                            x       y       z     vdW  Elec       q    Type
REMARK                         _______ _______ _______ _____ _____    ______ ____
ROOT
ATOM      1  C   UNL     1      44.857   4.808  11.473  0.00  0.00    +0.000 A 
ATOM      2  C   UNL     1      43.854   5.755  11.238  0.00  0.00    +0.000 A 
ATOM      3  C   UNL     1      44.119   7.112  11.401  0.00  0.00    +0.000 A 
ATOM      4  C   UNL     1      45.389   7.540  11.801  0.00  0.00    +0.000 A 
ATOM      5  C   UNL     1      46.426   6.621  12.047  0.00  0.00    +0.000 A 
ATOM      6  C   UNL     1      46.136   5.255  11.856  0.00  0.00    +0.000 A 
ENDROOT
BRANCH   5   7
ATOM      7  C   UNL     1      47.756   7.070  12.518  0.00  0.00    +0.000 A 
ATOM      8  C   UNL     1      48.577   7.920  11.761  0.00  0.00    +0.000 A 
ATOM      9  C   UNL     1      49.840   8.291  12.225  0.00  0.00    +0.000 A 
ATOM     10  C   UNL     1      50.258   7.810  13.453  0.00  0.00    +0.000 A 
ATOM     11  N   UNL     1      49.511   7.001  14.227  0.00  0.00    +0.000 NA
ATOM     12  C   UNL     1      48.293   6.652  13.741  0.00  0.00    +0.000 A 
ENDBRANCH   5   7
BRANCH   1  13
ATOM     13  C   UNL     1      44.578   3.325  11.314  0.00  0.00    +0.000 C 
BRANCH  13  14
ATOM     14  N   UNL     1      43.994   3.084  10.003  0.00  0.00    +0.000 N 
ATOM     15  H   UNL     1      43.297   2.347  10.032  0.00  0.00    +0.000 HD
BRANCH  14  20
ATOM     16  C   UNL     1      47.793   2.339   5.921  0.00  0.00    +0.000 C 
ATOM     17  C   UNL     1      46.761   2.510   6.989  0.00  0.00    +0.000 A 
ATOM     18  C   UNL     1      46.477   1.504   7.907  0.00  0.00    +0.000 A 
ATOM     19  N   UNL     1      45.565   1.639   8.906  0.00  0.00    +0.000 NA
ATOM     20  C   UNL     1      44.918   2.822   8.978  0.00  0.00    +0.000 A 
ATOM     21  C   UNL     1      45.218   3.826   8.051  0.00  0.00    +0.000 A 
ATOM     22  N   UNL     1      46.122   3.698   7.048  0.00  0.00    +0.000 NA
ENDBRANCH  14  20
ENDBRANCH  13  14
ENDBRANCH   1  13
TORSDOF 4
ENDMDL
MODEL 5
REMARK VINA RESULT:    -7.165      2.476      6.675
REMARK INTER + INTRA:          -9.349
REMARK INTER:                  -8.999
REMARK INTRA:                  -0.350
REMARK UNBOUND:                -0.508
REMARK  Name = 
REMARK  5 active torsions:
REMARK  status: ('A' for Active; 'I' for Inactive)
REMARK    1  A    between atoms: C_1  and  C_2
REMARK    2  A    between atoms: C_5  and  N_6
REMARK    3  A    between atoms: N_6  and  C_7
REMARK    4  A    between atoms: C_7  and  C_8
REMARK    5  A    between atoms: C_12  and  C_13
REMARK                            x       y       z     vdW  Elec       q    Type
REMARK                         _______ _______ _______ _____ _____    ______ ____
ROOT
ATOM      1  C   UNL     1      45.331   6.180  11.542  0.00  0.00    +0.000 A 
ATOM      2  C   UNL     1      43.946   6.160  11.742  0.00  0.00    +0.000 A 
ATOM      3  C   UNL     1      43.143   5.297  11.000  0.00  0.00    +0.000 A 
ATOM      4  C   UNL     1      43.713   4.446  10.049  0.00  0.00    +0.000 A 
ATOM      5  C   UNL     1      45.100   4.434   9.816  0.00  0.00    +0.000 A 
ATOM      6  C   UNL     1      45.892   5.303  10.594  0.00  0.00    +0.000 A 
ENDROOT
BRANCH   5   7
ATOM      7  C   UNL     1      45.699   3.569   8.774  0.00  0.00    +0.000 A 
ATOM      8  C   UNL     1      46.269   4.085   7.601  0.00  0.00    +0.000 A 
ATOM      9  C   UNL     1      46.791   3.234   6.626  0.00  0.00    +0.000 A 
ATOM     10  C   UNL     1      46.744   1.870   6.849  0.00  0.00    +0.000 A 
ATOM     11  N   UNL     1      46.220   1.317   7.959  0.00  0.00    +0.000 NA
ATOM     12  C   UNL     1      45.712   2.173   8.881  0.00  0.00    +0.000 A 
ENDBRANCH   5   7
BRANCH   1  13
ATOM     13  C   UNL     1      46.216   7.125  12.332  0.00  0.00    +0.000 C 
BRANCH  13  14
ATOM     14  N   UNL     1      47.468   6.456  12.651  0.00  0.00    +0.000 N 
ATOM     15  H   UNL     1      47.754   5.822  11.912  0.00  0.00    +0.000 HD
BRANCH  14  20
ATOM     16  C   UNL     1      47.523   3.490  17.432  0.00  0.00    +0.000 C 
ATOM     17  C   UNL     1      47.492   4.308  16.180  0.00  0.00    +0.000 A 
ATOM     18  C   UNL     1      48.251   5.465  16.037  0.00  0.00    +0.000 A 
ATOM     19  N   UNL     1      48.264   6.214  14.902  0.00  0.00    +0.000 NA
ATOM     20  C   UNL     1      47.488   5.784  13.885  0.00  0.00    +0.000 A 
ATOM     21  C   UNL     1      46.734   4.616  14.042  0.00  0.00    +0.000 A 
ATOM     22  N   UNL     1      46.709   3.866  15.172  0.00  0.00    +0.000 NA
ENDBRANCH  14  20
ENDBRANCH  13  14
ENDBRANCH   1  13
TORSDOF 4
ENDMDL
MODEL 6
REMARK VINA RESULT:    -7.091      2.489      4.009
REMARK INTER + INTRA:          -9.258
REMARK INTER:                  -8.759
REMARK INTRA:                  -0.498
REMARK UNBOUND:                -0.508
REMARK  Name = 
REMARK  5 active torsions:
REMARK  status: ('A' for Active; 'I' for Inactive)
REMARK    1  A    between atoms: C_1  and  C_2
REMARK    2  A    between atoms: C_5  and  N_6
REMARK    3  A    between atoms: N_6  and  C_7
REMARK    4  A    between atoms: C_7  and  C_8
REMARK    5  A    between atoms: C_12  and  C_13
REMARK                            x       y       z     vdW  Elec       q    Type
REMARK                         _______ _______ _______ _____ _____    ______ ____
ROOT
ATOM      1  C   UNL     1      45.484   5.129  12.195  0.00  0.00    +0.000 A 
ATOM      2  C   UNL     1      46.082   6.238  11.586  0.00  0.00    +0.000 A 
ATOM      3  C   UNL     1      47.150   6.885  12.202  0.00  0.00    +0.000 A 
ATOM      4  C   UNL     1      47.634   6.432  13.433  0.00  0.00    +0.000 A 
ATOM      5  C   UNL     1      47.062   5.321  14.079  0.00  0.00    +0.000 A 
ATOM      6  C   UNL     1      45.995   4.673  13.425  0.00  0.00    +0.000 A 
ENDROOT
BRANCH   5   7
ATOM      7  C   UNL     1      47.541   4.871  15.406  0.00  0.00    +0.000 A 
ATOM      8  C   UNL     1      47.108   3.676  16.000  0.00  0.00    +0.000 A 
ATOM      9  C   UNL     1      47.556   3.305  17.268  0.00  0.00    +0.000 A 
ATOM     10  C   UNL     1      48.446   4.138  17.922  0.00  0.00    +0.000 A 
ATOM     11  N   UNL     1      48.905   5.290  17.400  0.00  0.00    +0.000 NA
ATOM     12  C   UNL     1      48.440   5.626  16.169  0.00  0.00    +0.000 A 
ENDBRANCH   5   7
BRANCH   1  13
ATOM     13  C   UNL     1      44.309   4.424  11.543  0.00  0.00    +0.000 C 
BRANCH  13  14
ATOM     14  N   UNL     1      44.247   4.795  10.137  0.00  0.00    +0.000 N 
ATOM     15  H   UNL     1      43.288   4.890   9.816  0.00  0.00    +0.000 HD
BRANCH  14  20
ATOM     16  C   UNL     1      47.327   1.644   6.639  0.00  0.00    +0.000 C 
ATOM     17  C   UNL     1      46.476   2.465   7.554  0.00  0.00    +0.000 A 
ATOM     18  C   UNL     1      45.713   1.891   8.565  0.00  0.00    +0.000 A 
ATOM     19  N   UNL     1      44.951   2.613   9.429  0.00  0.00    +0.000 NA
ATOM     20  C   UNL     1      44.958   3.953   9.266  0.00  0.00    +0.000 A 
ATOM     21  C   UNL     1      45.735   4.518   8.248  0.00  0.00    +0.000 A 
ATOM     22  N   UNL     1      46.492   3.804   7.378  0.00  0.00    +0.000 NA
ENDBRANCH  14  20
ENDBRANCH  13  14
ENDBRANCH   1  13
TORSDOF 4
ENDMDL
MODEL 7
REMARK VINA RESULT:    -6.882      3.565      7.364
REMARK INTER + INTRA:          -8.999
REMARK INTER:                  -8.569
REMARK INTRA:                  -0.431
REMARK UNBOUND:                -0.508
REMARK  Name = 
REMARK  5 active torsions:
REMARK  status: ('A' for Active; 'I' for Inactive)
REMARK    1  A    between atoms: C_1  and  C_2
REMARK    2  A    between atoms: C_5  and  N_6
REMARK    3  A    between atoms: N_6  and  C_7
REMARK    4  A    between atoms: C_7  and  C_8
REMARK    5  A    between atoms: C_12  and  C_13
REMARK                            x       y       z     vdW  Elec       q    Type
REMARK                         _______ _______ _______ _____ _____    ______ ____
ROOT
ATOM      1  C   UNL     1      45.110   5.025  12.811  0.00  0.00    +0.000 A 
ATOM      2  C   UNL     1      43.754   5.369  12.867  0.00  0.00    +0.000 A 
ATOM      3  C   UNL     1      42.924   5.126  11.776  0.00  0.00    +0.000 A 
ATOM      4  C   UNL     1      43.437   4.538  10.616  0.00  0.00    +0.000 A 
ATOM      5  C   UNL     1      44.793   4.177  10.518  0.00  0.00    +0.000 A 
ATOM      6  C   UNL     1      45.607   4.416  11.644  0.00  0.00    +0.000 A 
ENDROOT
BRANCH   5   7
ATOM      7  C   UNL     1      45.349   3.600   9.272  0.00  0.00    +0.000 A 
ATOM      8  C   UNL     1      45.512   2.219   9.088  0.00  0.00    +0.000 A 
ATOM      9  C   UNL     1      46.073   1.717   7.912  0.00  0.00    +0.000 A 
ATOM     10  C   UNL     1      46.453   2.612   6.929  0.00  0.00    +0.000 A 
ATOM     11  N   UNL     1      46.312   3.946   7.045  0.00  0.00    +0.000 NA
ATOM     12  C   UNL     1      45.773   4.400   8.205  0.00  0.00    +0.000 A 
ENDBRANCH   5   7
BRANCH   1  13
ATOM     13  C   UNL     1      46.029   5.298  13.987  0.00  0.00    +0.000 C 
BRANCH  13  14
ATOM     14  N   UNL     1      46.395   4.036  14.613  0.00  0.00    +0.000 N 
ATOM     15  H   UNL     1      45.585   3.442  14.763  0.00  0.00    +0.000 HD
BRANCH  14  20
ATOM     16  C   UNL     1      49.305   4.822  19.363  0.00  0.00    +0.000 C 
ATOM     17  C   UNL     1      48.550   4.579  18.095  0.00  0.00    +0.000 A 
ATOM     18  C   UNL     1      47.626   3.547  17.975  0.00  0.00    +0.000 A 
ATOM     19  N   UNL     1      46.904   3.318  16.845  0.00  0.00    +0.000 NA
ATOM     20  C   UNL     1      47.125   4.153  15.808  0.00  0.00    +0.000 A 
ATOM     21  C   UNL     1      48.054   5.190  15.945  0.00  0.00    +0.000 A 
ATOM     22  N   UNL     1      48.782   5.422  17.066  0.00  0.00    +0.000 NA
ENDBRANCH  14  20
ENDBRANCH  13  14
ENDBRANCH   1  13
TORSDOF 4
ENDMDL
MODEL 8
REMARK VINA RESULT:    -6.427      2.071      6.654
REMARK INTER + INTRA:          -8.438
REMARK INTER:                  -7.858
REMARK INTRA:                  -0.581
REMARK UNBOUND:                -0.508
REMARK  Name = 
REMARK  5 active torsions:
REMARK  status: ('A' for Active; 'I' for Inactive)
REMARK    1  A    between atoms: C_1  and  C_2
REMARK    2  A    between atoms: C_5  and  N_6
REMARK    3  A    between atoms: N_6  and  C_7
REMARK    4  A    between atoms: C_7  and  C_8
REMARK    5  A    between atoms: C_12  and  C_13
REMARK                            x       y       z     vdW  Elec       q    Type
REMARK                         _______ _______ _______ _____ _____    ______ ____
ROOT
ATOM      1  C   UNL     1      44.859   6.068  12.151  0.00  0.00    +0.000 A 
ATOM      2  C   UNL     1      43.541   5.763  12.510  0.00  0.00    +0.000 A 
ATOM      3  C   UNL     1      42.831   4.791  11.809  0.00  0.00    +0.000 A 
ATOM      4  C   UNL     1      43.428   4.113  10.742  0.00  0.00    +0.000 A 
ATOM      5  C   UNL     1      44.751   4.388  10.350  0.00  0.00    +0.000 A 
ATOM      6  C   UNL     1      45.453   5.362  11.087  0.00  0.00    +0.000 A 
ENDROOT
BRANCH   5   7
ATOM      7  C   UNL     1      45.367   3.706   9.189  0.00  0.00    +0.000 A 
ATOM      8  C   UNL     1      45.500   2.311   9.117  0.00  0.00    +0.000 A 
ATOM      9  C   UNL     1      46.120   1.709   8.021  0.00  0.00    +0.000 A 
ATOM     10  C   UNL     1      46.589   2.518   7.002  0.00  0.00    +0.000 A 
ATOM     11  N   UNL     1      46.481   3.860   7.011  0.00  0.00    +0.000 NA
ATOM     12  C   UNL     1      45.882   4.413   8.096  0.00  0.00    +0.000 A 
ENDBRANCH   5   7
BRANCH   1  13
ATOM     13  C   UNL     1      45.639   7.135  12.896  0.00  0.00    +0.000 C 
BRANCH  13  14
ATOM     14  N   UNL     1      46.701   6.504  13.665  0.00  0.00    +0.000 N 
ATOM     15  H   UNL     1      46.472   6.456  14.653  0.00  0.00    +0.000 HD
BRANCH  14  20
ATOM     16  C   UNL     1      51.905   8.602  13.246  0.00  0.00    +0.000 C 
ATOM     17  C   UNL     1      50.508   8.078  13.344  0.00  0.00    +0.000 A 
ATOM     18  C   UNL     1      49.716   7.876  12.219  0.00  0.00    +0.000 A 
ATOM     19  N   UNL     1      48.452   7.376  12.274  0.00  0.00    +0.000 NA
ATOM     20  C   UNL     1      47.975   7.074  13.501  0.00  0.00    +0.000 A 
ATOM     21  C   UNL     1      48.785   7.278  14.623  0.00  0.00    +0.000 A 
ATOM     22  N   UNL     1      50.044   7.782  14.578  0.00  0.00    +0.000 NA
ENDBRANCH  14  20
ENDBRANCH  13  14
ENDBRANCH   1  13
TORSDOF 4
ENDMDL
MODEL 9
REMARK VINA RESULT:    -6.239      3.531      7.319
REMARK INTER + INTRA:          -8.206
REMARK INTER:                  -7.735
REMARK INTRA:                  -0.471
REMARK UNBOUND:                -0.508
REMARK  Name = 
REMARK  5 active torsions:
REMARK  status: ('A' for Active; 'I' for Inactive)
REMARK    1  A    between atoms: C_1  and  C_2
REMARK    2  A    between atoms: C_5  and  N_6
REMARK    3  A    between atoms: N_6  and  C_7
REMARK    4  A    between atoms: C_7  and  C_8
REMARK    5  A    between atoms: C_12  and  C_13
REMARK                            x       y       z     vdW  Elec       q    Type
REMARK                         _______ _______ _______ _____ _____    ______ ____
ROOT
ATOM      1  C   UNL     1      47.157   7.379  12.922  0.00  0.00    +0.000 A 
ATOM      2  C   UNL     1      46.307   8.491  12.930  0.00  0.00    +0.000 A 
ATOM      3  C   UNL     1      45.140   8.487  12.170  0.00  0.00    +0.000 A 
ATOM      4  C   UNL     1      44.809   7.373  11.392  0.00  0.00    +0.000 A 
ATOM      5  C   UNL     1      45.634   6.235  11.355  0.00  0.00    +0.000 A 
ATOM      6  C   UNL     1      46.799   6.258  12.149  0.00  0.00    +0.000 A 
ENDROOT
BRANCH   5   7
ATOM      7  C   UNL     1      45.309   5.076  10.494  0.00  0.00    +0.000 A 
ATOM      8  C   UNL     1      45.681   5.013   9.142  0.00  0.00    +0.000 A 
ATOM      9  C   UNL     1      45.324   3.918   8.354  0.00  0.00    +0.000 A 
ATOM     10  C   UNL     1      44.606   2.891   8.939  0.00  0.00    +0.000 A 
ATOM     11  N   UNL     1      44.231   2.890  10.232  0.00  0.00    +0.000 NA
ATOM     12  C   UNL     1      44.585   3.976  10.966  0.00  0.00    +0.000 A 
ENDBRANCH   5   7
BRANCH   1  13
ATOM     13  C   UNL     1      48.439   7.375  13.733  0.00  0.00    +0.000 C 
BRANCH  13  14
ATOM     14  N   UNL     1      48.110   7.324  15.150  0.00  0.00    +0.000 N 
ATOM     15  H   UNL     1      48.106   8.250  15.568  0.00  0.00    +0.000 HD
BRANCH  14  20
ATOM     16  C   UNL     1      51.190   3.622  18.058  0.00  0.00    +0.000 C 
ATOM     17  C   UNL     1      50.372   4.630  17.316  0.00  0.00    +0.000 A 
ATOM     18  C   UNL     1      50.878   5.877  16.966  0.00  0.00    +0.000 A 
ATOM     19  N   UNL     1      50.168   6.803  16.268  0.00  0.00    +0.000 NA
ATOM     20  C   UNL     1      48.910   6.461  15.917  0.00  0.00    +0.000 A 
ATOM     21  C   UNL     1      48.416   5.201  16.270  0.00  0.00    +0.000 A 
ATOM     22  N   UNL     1      49.115   4.274  16.972  0.00  0.00    +0.000 NA
ENDBRANCH  14  20
ENDBRANCH  13  14
ENDBRANCH   1  13
TORSDOF 4
ENDMDL
