MODEL 1
REMARK VINA RESULT:    -8.704      0.000      0.000
REMARK INTER + INTRA:         -11.436
REMARK INTER:                 -10.740
REMARK INTRA:                  -0.696
REMARK UNBOUND:                -0.696
REMARK  Name = 
REMARK  4 active torsions:
REMARK  status: ('A' for Active; 'I' for Inactive)
REMARK    1  A    between atoms: C_2  and  C_4
REMARK    2  A    between atoms: N_8  and  C_9
REMARK    3  A    between atoms: C_9  and  C_10
REMARK    4  A    between atoms: C_15  and  N_16
REMARK                            x       y       z     vdW  Elec       q    Type
REMARK                         _______ _______ _______ _____ _____    ______ ____
ROOT
ATOM      1  C   UNL     1      43.429   3.843  11.019  0.00  0.00    +0.000 C 
ENDROOT
BRANCH   1   6
ATOM      2  C   UNL     1      46.589   2.502   7.182  0.00  0.00    +0.000 A 
ATOM      3  C   UNL     1      45.915   3.690   7.426  0.00  0.00    +0.000 A 
ATOM      4  C   UNL     1      45.078   3.777   8.534  0.00  0.00    +0.000 A 
ATOM      5  C   UNL     1      44.927   2.684   9.379  0.00  0.00    +0.000 A 
ATOM      6  N   UNL     1      44.191   2.721  10.529  0.00  0.00    +0.000 N 
ATOM      7  N   UNL     1      45.545   1.512   9.123  0.00  0.00    +0.000 NA
ATOM      8  C   UNL     1      46.356   1.437   8.034  0.00  0.00    +0.000 A 
ATOM      9  H   UNL     1      44.112   1.825  10.994  0.00  0.00    +0.000 HD
BRANCH   2  11
ATOM     10  N   UNL     1      47.483   3.297   5.072  0.00  0.00    +0.000 N 
ATOM     11  C   UNL     1      47.531   2.350   6.055  0.00  0.00    +0.000 C 
ATOM     12  O   UNL     1      48.344   1.437   6.022  0.00  0.00    +0.000 OA
ATOM     13  H   UNL     1      48.195   3.245   4.355  0.00  0.00    +0.000 HD
ATOM     14  H   UNL     1      47.003   4.182   5.187  0.00  0.00    +0.000 HD
ENDBRANCH   2  11
ENDBRANCH   1   6
BRANCH   1  15
ATOM     15  C   UNL     1      44.288   4.876  11.708  0.00  0.00    +0.000 A 
ATOM     16  C   UNL     1      44.327   6.191  11.240  0.00  0.00    +0.000 A 
ATOM     17  C   UNL     1      45.195   7.107  11.825  0.00  0.00    +0.000 A 
ATOM     18  F   UNL     1      45.231   8.361  11.357  0.00  0.00    +0.000 F 
ATOM     19  C   UNL     1      46.032   6.747  12.879  0.00  0.00    +0.000 A 
ATOM     20  C   UNL     1      46.002   5.449  13.391  0.00  0.00    +0.000 A 
ATOM     21  C   UNL     1      45.134   4.528  12.774  0.00  0.00    +0.000 A 
BRANCH  20  22
ATOM     22  N   UNL     1      46.800   5.004  14.441  0.00  0.00    +0.000 N 
ATOM     23  C   UNL     1      47.204   3.590  14.521  0.00  0.00    +0.000 C 
ATOM     24  C   UNL     1      47.730   3.309  15.941  0.00  0.00    +0.000 C 
ATOM     25  O   UNL     1      48.819   4.183  16.291  0.00  0.00    +0.000 OA
ATOM     26  C   UNL     1      48.403   5.558  16.213  0.00  0.00    +0.000 C 
ATOM     27  C   UNL     1      47.915   5.913  14.800  0.00  0.00    +0.000 C 
ENDBRANCH  20  22
ENDBRANCH   1  15
TORSDOF 4
ENDMDL
MODEL 2
REMARK VINA RESULT:    -8.455      2.746      4.033
REMARK INTER + INTRA:         -11.128
REMARK INTER:                 -10.544
REMARK INTRA:                  -0.585
REMARK UNBOUND:                -0.696
REMARK  Name = 
REMARK  4 active torsions:
REMARK  status: ('A' for Active; 'I' for Inactive)
REMARK    1  A    between atoms: C_2  and  C_4
REMARK    2  A    between atoms: N_8  and  C_9
REMARK    3  A    between atoms: C_9  and  C_10
REMARK    4  A    between atoms: C_15  and  N_16
REMARK                            x       y       z     vdW  Elec       q    Type
REMARK                         _______ _______ _______ _____ _____    ______ ____
ROOT
ATOM      1  C   UNL     1      43.393   3.734  11.154  0.00  0.00    +0.000 C 
ENDROOT
BRANCH   1   6
ATOM      2  C   UNL     1      46.542   2.487   7.275  0.00  0.00    +0.000 A 
ATOM      3  C   UNL     1      45.954   3.699   7.610  0.00  0.00    +0.000 A 
ATOM      4  C   UNL     1      45.098   3.755   8.705  0.00  0.00    +0.000 A 
ATOM      5  C   UNL     1      44.842   2.607   9.447  0.00  0.00    +0.000 A 
ATOM      6  N   UNL     1      44.081   2.602  10.581  0.00  0.00    +0.000 N 
ATOM      7  N   UNL     1      45.375   1.417   9.101  0.00  0.00    +0.000 NA
ATOM      8  C   UNL     1      46.207   1.374   8.026  0.00  0.00    +0.000 A 
ATOM      9  H   UNL     1      43.921   1.679  10.963  0.00  0.00    +0.000 HD
BRANCH   2  11
ATOM     10  N   UNL     1      47.421   3.292   5.163  0.00  0.00    +0.000 N 
ATOM     11  C   UNL     1      47.500   2.360   6.158  0.00  0.00    +0.000 C 
ATOM     12  O   UNL     1      48.350   1.481   6.144  0.00  0.00    +0.000 OA
ATOM     13  H   UNL     1      48.141   3.260   4.453  0.00  0.00    +0.000 HD
ATOM     14  H   UNL     1      46.904   4.157   5.263  0.00  0.00    +0.000 HD
ENDBRANCH   2  11
ENDBRANCH   1   6
BRANCH   1  15
ATOM     15  C   UNL     1      44.338   4.751  11.747  0.00  0.00    +0.000 A 
ATOM     16  C   UNL     1      45.245   4.379  12.742  0.00  0.00    +0.000 A 
ATOM     17  C   UNL     1      46.041   5.346  13.347  0.00  0.00    +0.000 A 
ATOM     18  F   UNL     1      46.897   4.977  14.308  0.00  0.00    +0.000 F 
ATOM     19  C   UNL     1      45.962   6.688  12.981  0.00  0.00    +0.000 A 
ATOM     20  C   UNL     1      45.087   7.093  11.973  0.00  0.00    +0.000 A 
ATOM     21  C   UNL     1      44.272   6.107  11.386  0.00  0.00    +0.000 A 
BRANCH  20  22
ATOM     22  N   UNL     1      44.945   8.410  11.544  0.00  0.00    +0.000 N 
ATOM     23  C   UNL     1      43.667   8.873  10.976  0.00  0.00    +0.000 C 
ATOM     24  C   UNL     1      43.909  10.209  10.247  0.00  0.00    +0.000 C 
ATOM     25  O   UNL     1      44.481  11.200  11.121  0.00  0.00    +0.000 OA
ATOM     26  C   UNL     1      45.731  10.730  11.660  0.00  0.00    +0.000 C 
ATOM     27  C   UNL     1      45.542   9.424  12.445  0.00  0.00    +0.000 C 
ENDBRANCH  20  22
ENDBRANCH   1  15
TORSDOF 4
ENDMDL
MODEL 3
REMARK VINA RESULT:    -7.547      1.392      1.910
REMARK INTER + INTRA:         -10.008
REMARK INTER:                  -9.361
REMARK INTRA:                  -0.647
REMARK UNBOUND:                -0.696
REMARK  Name = 
REMARK  4 active torsions:
REMARK  status: ('A' for Active; 'I' for Inactive)
REMARK    1  A    between atoms: C_2  and  C_4
REMARK    2  A    between atoms: N_8  and  C_9
REMARK    3  A    between atoms: C_9  and  C_10
REMARK    4  A    between atoms: C_15  and  N_16
REMARK                            x       y       z     vdW  Elec       q    Type
REMARK                         _______ _______ _______ _____ _____    ______ ____
ROOT
ATOM      1  C   UNL     1      44.355   5.441  11.706  0.00  0.00    +0.000 C 
ENDROOT
BRANCH   1   6
ATOM      2  C   UNL     1      46.296   2.919   7.658  0.00  0.00    +0.000 A 
ATOM      3  C   UNL     1      46.201   4.279   7.916  0.00  0.00    +0.000 A 
ATOM      4  C   UNL     1      45.585   4.703   9.090  0.00  0.00    +0.000 A 
ATOM      5  C   UNL     1      45.076   3.768   9.984  0.00  0.00    +0.000 A 
ATOM      6  N   UNL     1      44.534   4.104  11.192  0.00  0.00    +0.000 N 
ATOM      7  N   UNL     1      45.125   2.447   9.718  0.00  0.00    +0.000 NA
ATOM      8  C   UNL     1      45.725   2.045   8.566  0.00  0.00    +0.000 A 
ATOM      9  H   UNL     1      44.135   3.321  11.694  0.00  0.00    +0.000 HD
BRANCH   2  11
ATOM     10  N   UNL     1      48.049   1.569   6.665  0.00  0.00    +0.000 N 
ATOM     11  C   UNL     1      46.980   2.393   6.459  0.00  0.00    +0.000 C 
ATOM     12  O   UNL     1      46.583   2.654   5.332  0.00  0.00    +0.000 OA
ATOM     13  H   UNL     1      48.451   1.132   5.846  0.00  0.00    +0.000 HD
ATOM     14  H   UNL     1      48.248   1.144   7.563  0.00  0.00    +0.000 HD
ENDBRANCH   2  11
ENDBRANCH   1   6
BRANCH   1  15
ATOM     15  C   UNL     1      45.617   6.007  12.312  0.00  0.00    +0.000 A 
ATOM     16  C   UNL     1      46.285   7.068  11.696  0.00  0.00    +0.000 A 
ATOM     17  C   UNL     1      47.496   7.514  12.212  0.00  0.00    +0.000 A 
ATOM     18  F   UNL     1      48.131   8.524  11.604  0.00  0.00    +0.000 F 
ATOM     19  C   UNL     1      48.066   6.931  13.342  0.00  0.00    +0.000 A 
ATOM     20  C   UNL     1      47.416   5.886  14.000  0.00  0.00    +0.000 A 
ATOM     21  C   UNL     1      46.201   5.431  13.452  0.00  0.00    +0.000 A 
BRANCH  20  22
ATOM     22  N   UNL     1      47.910   5.247  15.133  0.00  0.00    +0.000 N 
ATOM     23  C   UNL     1      48.548   6.027  16.208  0.00  0.00    +0.000 C 
ATOM     24  C   UNL     1      49.328   5.061  17.120  0.00  0.00    +0.000 C 
ATOM     25  O   UNL     1      48.479   4.030  17.657  0.00  0.00    +0.000 OA
ATOM     26  C   UNL     1      47.871   3.276  16.591  0.00  0.00    +0.000 C 
ATOM     27  C   UNL     1      47.034   4.182  15.676  0.00  0.00    +0.000 C 
ENDBRANCH  20  22
ENDBRANCH   1  15
TORSDOF 4
ENDMDL
MODEL 4
REMARK VINA RESULT:    -7.028      2.382      8.269
REMARK INTER + INTRA:          -9.367
REMARK INTER:                  -8.950
REMARK INTRA:                  -0.417
REMARK UNBOUND:                -0.696
REMARK  Name = 
REMARK  4 active torsions:
REMARK  status: ('A' for Active; 'I' for Inactive)
REMARK    1  A    between atoms: C_2  and  C_4
REMARK    2  A    between atoms: N_8  and  C_9
REMARK    3  A    between atoms: C_9  and  C_10
REMARK    4  A    between atoms: C_15  and  N_16
REMARK                            x       y       z     vdW  Elec       q    Type
REMARK                         _______ _______ _______ _____ _____    ______ ____
ROOT
ATOM      1  C   UNL     1      46.338   5.551  13.824  0.00  0.00    +0.000 C 
ENDROOT
BRANCH   1   6
ATOM      2  C   UNL     1      48.643   4.368  18.275  0.00  0.00    +0.000 A 
ATOM      3  C   UNL     1      48.798   5.465  17.438  0.00  0.00    +0.000 A 
ATOM      4  C   UNL     1      48.069   5.521  16.255  0.00  0.00    +0.000 A 
ATOM      5  C   UNL     1      47.199   4.487  15.924  0.00  0.00    +0.000 A 
ATOM      6  N   UNL     1      46.390   4.511  14.825  0.00  0.00    +0.000 N 
ATOM      7  N   UNL     1      47.076   3.398  16.711  0.00  0.00    +0.000 NA
ATOM      8  C   UNL     1      47.798   3.352  17.863  0.00  0.00    +0.000 A 
ATOM      9  H   UNL     1      45.873   3.654  14.677  0.00  0.00    +0.000 HD
BRANCH   2  11
ATOM     10  N   UNL     1      50.710   4.222  19.535  0.00  0.00    +0.000 N 
ATOM     11  C   UNL     1      49.345   4.262  19.570  0.00  0.00    +0.000 C 
ATOM     12  O   UNL     1      48.732   4.247  20.628  0.00  0.00    +0.000 OA
ATOM     13  H   UNL     1      51.187   4.249  20.427  0.00  0.00    +0.000 HD
ATOM     14  H   UNL     1      51.244   4.474  18.713  0.00  0.00    +0.000 HD
ENDBRANCH   2  11
ENDBRANCH   1   6
BRANCH   1  15
ATOM     15  C   UNL     1      45.389   5.228  12.696  0.00  0.00    +0.000 A 
ATOM     16  C   UNL     1      44.030   5.533  12.804  0.00  0.00    +0.000 A 
ATOM     17  C   UNL     1      43.153   5.143  11.798  0.00  0.00    +0.000 A 
ATOM     18  F   UNL     1      41.851   5.431  11.921  0.00  0.00    +0.000 F 
ATOM     19  C   UNL     1      43.596   4.455  10.671  0.00  0.00    +0.000 A 
ATOM     20  C   UNL     1      44.950   4.155  10.515  0.00  0.00    +0.000 A 
ATOM     21  C   UNL     1      45.822   4.537  11.552  0.00  0.00    +0.000 A 
BRANCH  20  22
ATOM     22  N   UNL     1      45.479   3.473   9.423  0.00  0.00    +0.000 N 
ATOM     23  C   UNL     1      45.081   2.082   9.151  0.00  0.00    +0.000 C 
ATOM     24  C   UNL     1      46.083   1.470   8.153  0.00  0.00    +0.000 C 
ATOM     25  O   UNL     1      46.165   2.237   6.938  0.00  0.00    +0.000 OA
ATOM     26  C   UNL     1      46.561   3.591   7.226  0.00  0.00    +0.000 C 
ATOM     27  C   UNL     1      45.567   4.272   8.177  0.00  0.00    +0.000 C 
ENDBRANCH  20  22
ENDBRANCH   1  15
TORSDOF 4
ENDMDL
MODEL 5
REMARK VINA RESULT:    -7.026      2.839      7.421
REMARK INTER + INTRA:          -9.365
REMARK INTER:                  -8.728
REMARK INTRA:                  -0.637
REMARK UNBOUND:                -0.696
REMARK  Name = 
REMARK  4 active torsions:
REMARK  status: ('A' for Active; 'I' for Inactive)
REMARK    1  A    between atoms: C_2  and  C_4
REMARK    2  A    between atoms: N_8  and  C_9
REMARK    3  A    between atoms: C_9  and  C_10
REMARK    4  A    between atoms: C_15  and  N_16
REMARK                            x       y       z     vdW  Elec       q    Type
REMARK                         _______ _______ _______ _____ _____    ______ ____
ROOT
ATOM      1  C   UNL     1      45.128   6.545  11.085  0.00  0.00    +0.000 C 
ENDROOT
BRANCH   1   6
ATOM      2  C   UNL     1      49.715   7.746  13.092  0.00  0.00    +0.000 A 
ATOM      3  C   UNL     1      49.263   7.784  11.781  0.00  0.00    +0.000 A 
ATOM      4  C   UNL     1      47.968   7.361  11.500  0.00  0.00    +0.000 A 
ATOM      5  C   UNL     1      47.146   6.909  12.526  0.00  0.00    +0.000 A 
ATOM      6  N   UNL     1      45.839   6.558  12.341  0.00  0.00    +0.000 N 
ATOM      7  N   UNL     1      47.594   6.828  13.796  0.00  0.00    +0.000 NA
ATOM      8  C   UNL     1      48.863   7.239  14.057  0.00  0.00    +0.000 A 
ATOM      9  H   UNL     1      45.397   6.174  13.166  0.00  0.00    +0.000 HD
BRANCH   2  11
ATOM     10  N   UNL     1      51.622   7.671  14.589  0.00  0.00    +0.000 N 
ATOM     11  C   UNL     1      51.059   8.225  13.474  0.00  0.00    +0.000 C 
ATOM     12  O   UNL     1      51.656   9.054  12.802  0.00  0.00    +0.000 OA
ATOM     13  H   UNL     1      52.579   7.929  14.790  0.00  0.00    +0.000 HD
ATOM     14  H   UNL     1      51.268   6.825  15.018  0.00  0.00    +0.000 HD
ENDBRANCH   2  11
ENDBRANCH   1   6
BRANCH   1  15
ATOM     15  C   UNL     1      44.802   5.149  10.613  0.00  0.00    +0.000 A 
ATOM     16  C   UNL     1      43.926   4.341  11.341  0.00  0.00    +0.000 A 
ATOM     17  C   UNL     1      43.711   3.025  10.946  0.00  0.00    +0.000 A 
ATOM     18  F   UNL     1      42.878   2.258  11.661  0.00  0.00    +0.000 F 
ATOM     19  C   UNL     1      44.347   2.485   9.830  0.00  0.00    +0.000 A 
ATOM     20  C   UNL     1      45.209   3.269   9.063  0.00  0.00    +0.000 A 
ATOM     21  C   UNL     1      45.434   4.593   9.488  0.00  0.00    +0.000 A 
BRANCH  20  22
ATOM     22  N   UNL     1      45.884   2.814   7.934  0.00  0.00    +0.000 N 
ATOM     23  C   UNL     1      46.690   3.743   7.124  0.00  0.00    +0.000 C 
ATOM     24  C   UNL     1      46.989   3.079   5.766  0.00  0.00    +0.000 C 
ATOM     25  O   UNL     1      47.655   1.813   5.925  0.00  0.00    +0.000 OA
ATOM     26  C   UNL     1      46.850   0.918   6.714  0.00  0.00    +0.000 C 
ATOM     27  C   UNL     1      46.563   1.506   8.103  0.00  0.00    +0.000 C 
ENDBRANCH  20  22
ENDBRANCH   1  15
TORSDOF 4
ENDMDL
MODEL 6
REMARK VINA RESULT:    -6.795      3.987      8.351
REMARK INTER + INTRA:          -9.080
REMARK INTER:                  -8.450
REMARK INTRA:                  -0.630
REMARK UNBOUND:                -0.696
REMARK  Name = 
REMARK  4 active torsions:
REMARK  status: ('A' for Active; 'I' for Inactive)
REMARK    1  A    between atoms: C_2  and  C_4
REMARK    2  A    between atoms: N_8  and  C_9
REMARK    3  A    between atoms: C_9  and  C_10
REMARK    4  A    between atoms: C_15  and  N_16
REMARK                            x       y       z     vdW  Elec       q    Type
REMARK                         _______ _______ _______ _____ _____    ______ ____
ROOT
ATOM      1  C   UNL     1      47.530   4.029  16.808  0.00  0.00    +0.000 C 
ENDROOT
BRANCH   1   6
ATOM      2  C   UNL     1      52.281   2.354  17.872  0.00  0.00    +0.000 A 
ATOM      3  C   UNL     1      51.712   3.612  18.013  0.00  0.00    +0.000 A 
ATOM      4  C   UNL     1      50.396   3.808  17.605  0.00  0.00    +0.000 A 
ATOM      5  C   UNL     1      49.670   2.751  17.067  0.00  0.00    +0.000 A 
ATOM      6  N   UNL     1      48.351   2.846  16.724  0.00  0.00    +0.000 N 
ATOM      7  N   UNL     1      50.231   1.538  16.887  0.00  0.00    +0.000 NA
ATOM      8  C   UNL     1      51.519   1.359  17.284  0.00  0.00    +0.000 A 
ATOM      9  H   UNL     1      47.985   2.017  16.272  0.00  0.00    +0.000 HD
BRANCH   2  11
ATOM     10  N   UNL     1      54.609   1.906  17.362  0.00  0.00    +0.000 N 
ATOM     11  C   UNL     1      53.654   2.057  18.327  0.00  0.00    +0.000 C 
ATOM     12  O   UNL     1      53.931   1.986  19.516  0.00  0.00    +0.000 OA
ATOM     13  H   UNL     1      55.564   1.802  17.680  0.00  0.00    +0.000 HD
ATOM     14  H   UNL     1      54.468   2.195  16.402  0.00  0.00    +0.000 HD
ENDBRANCH   2  11
ENDBRANCH   1   6
BRANCH   1  15
ATOM     15  C   UNL     1      47.430   4.765  15.494  0.00  0.00    +0.000 A 
ATOM     16  C   UNL     1      48.250   5.867  15.236  0.00  0.00    +0.000 A 
ATOM     17  C   UNL     1      48.081   6.592  14.062  0.00  0.00    +0.000 A 
ATOM     18  F   UNL     1      48.865   7.654  13.833  0.00  0.00    +0.000 F 
ATOM     19  C   UNL     1      47.111   6.246  13.123  0.00  0.00    +0.000 A 
ATOM     20  C   UNL     1      46.291   5.136  13.334  0.00  0.00    +0.000 A 
ATOM     21  C   UNL     1      46.460   4.424  14.537  0.00  0.00    +0.000 A 
BRANCH  20  22
ATOM     22  N   UNL     1      45.300   4.718  12.452  0.00  0.00    +0.000 N 
ATOM     23  C   UNL     1      45.153   3.290  12.121  0.00  0.00    +0.000 C 
ATOM     24  C   UNL     1      44.270   3.164  10.864  0.00  0.00    +0.000 C 
ATOM     25  O   UNL     1      42.988   3.792  11.047  0.00  0.00    +0.000 OA
ATOM     26  C   UNL     1      43.153   5.187  11.363  0.00  0.00    +0.000 C 
ATOM     27  C   UNL     1      43.984   5.373  12.641  0.00  0.00    +0.000 C 
ENDBRANCH  20  22
ENDBRANCH   1  15
TORSDOF 4
ENDMDL
MODEL 7
REMARK VINA RESULT:    -6.422      3.553      6.975
REMARK INTER + INTRA:          -8.620
REMARK INTER:                  -7.919
REMARK INTRA:                  -0.701
REMARK UNBOUND:                -0.696
REMARK  Name = 
REMARK  4 active torsions:
REMARK  status: ('A' for Active; 'I' for Inactive)
REMARK    1  A    between atoms: C_2  and  C_4
REMARK    2  A    between atoms: N_8  and  C_9
REMARK    3  A    between atoms: C_9  and  C_10
REMARK    4  A    between atoms: C_15  and  N_16
REMARK                            x       y       z     vdW  Elec       q    Type
REMARK                         _______ _______ _______ _____ _____    ______ ____
ROOT
ATOM      1  C   UNL     1      46.192   5.866  13.674  0.00  0.00    +0.000 C 
ENDROOT
BRANCH   1   6
ATOM      2  C   UNL     1      49.736   9.087  11.783  0.00  0.00    +0.000 A 
ATOM      3  C   UNL     1      49.646   7.704  11.722  0.00  0.00    +0.000 A 
ATOM      4  C   UNL     1      48.588   7.067  12.362  0.00  0.00    +0.000 A 
ATOM      5  C   UNL     1      47.639   7.815  13.050  0.00  0.00    +0.000 A 
ATOM      6  N   UNL     1      46.530   7.268  13.631  0.00  0.00    +0.000 N 
ATOM      7  N   UNL     1      47.745   9.156  13.151  0.00  0.00    +0.000 NA
ATOM      8  C   UNL     1      48.786   9.767  12.525  0.00  0.00    +0.000 A 
ATOM      9  H   UNL     1      45.977   7.929  14.161  0.00  0.00    +0.000 HD
BRANCH   2  11
ATOM     10  N   UNL     1      51.875   9.121  10.639  0.00  0.00    +0.000 N 
ATOM     11  C   UNL     1      50.801   9.837  11.087  0.00  0.00    +0.000 C 
ATOM     12  O   UNL     1      50.709  11.041  10.889  0.00  0.00    +0.000 OA
ATOM     13  H   UNL     1      52.551   9.621  10.078  0.00  0.00    +0.000 HD
ATOM     14  H   UNL     1      51.868   8.111  10.570  0.00  0.00    +0.000 HD
ENDBRANCH   2  11
ENDBRANCH   1   6
BRANCH   1  15
ATOM     15  C   UNL     1      45.271   5.453  12.551  0.00  0.00    +0.000 A 
ATOM     16  C   UNL     1      43.902   5.718  12.625  0.00  0.00    +0.000 A 
ATOM     17  C   UNL     1      43.053   5.247  11.629  0.00  0.00    +0.000 A 
ATOM     18  F   UNL     1      41.740   5.498  11.719  0.00  0.00    +0.000 F 
ATOM     19  C   UNL     1      43.535   4.515  10.546  0.00  0.00    +0.000 A 
ATOM     20  C   UNL     1      44.900   4.253  10.425  0.00  0.00    +0.000 A 
ATOM     21  C   UNL     1      45.744   4.717  11.452  0.00  0.00    +0.000 A 
BRANCH  20  22
ATOM     22  N   UNL     1      45.468   3.532   9.378  0.00  0.00    +0.000 N 
ATOM     23  C   UNL     1      45.055   2.142   9.121  0.00  0.00    +0.000 C 
ATOM     24  C   UNL     1      46.092   1.485   8.190  0.00  0.00    +0.000 C 
ATOM     25  O   UNL     1      46.249   2.218   6.961  0.00  0.00    +0.000 OA
ATOM     26  C   UNL     1      46.658   3.571   7.234  0.00  0.00    +0.000 C 
ATOM     27  C   UNL     1      45.633   4.296   8.118  0.00  0.00    +0.000 C 
ENDBRANCH  20  22
ENDBRANCH   1  15
TORSDOF 4
ENDMDL
MODEL 8
REMARK VINA RESULT:    -6.378      3.191      8.338
REMARK INTER + INTRA:          -8.566
REMARK INTER:                  -7.892
REMARK INTRA:                  -0.674
REMARK UNBOUND:                -0.696
REMARK  Name = 
REMARK  4 active torsions:
REMARK  status: ('A' for Active; 'I' for Inactive)
REMARK    1  A    between atoms: C_2  and  C_4
REMARK    2  A    between atoms: N_8  and  C_9
REMARK    3  A    between atoms: C_9  and  C_10
REMARK    4  A    between atoms: C_15  and  N_16
REMARK                            x       y       z     vdW  Elec       q    Type
REMARK                         _______ _______ _______ _____ _____    ______ ____
ROOT
ATOM      1  C   UNL     1      49.017   6.986  13.515  0.00  0.00    +0.000 C 
ENDROOT
BRANCH   1   6
ATOM      2  C   UNL     1      48.458   5.583  18.438  0.00  0.00    +0.000 A 
ATOM      3  C   UNL     1      48.190   4.894  17.265  0.00  0.00    +0.000 A 
ATOM      4  C   UNL     1      48.397   5.529  16.045  0.00  0.00    +0.000 A 
ATOM      5  C   UNL     1      48.868   6.837  16.013  0.00  0.00    +0.000 A 
ATOM      6  N   UNL     1      49.174   7.496  14.856  0.00  0.00    +0.000 N 
ATOM      7  N   UNL     1      49.089   7.528  17.150  0.00  0.00    +0.000 NA
ATOM      8  C   UNL     1      48.878   6.898  18.336  0.00  0.00    +0.000 A 
ATOM      9  H   UNL     1      49.428   8.466  14.992  0.00  0.00    +0.000 HD
BRANCH   2  11
ATOM     10  N   UNL     1      48.573   3.622  19.860  0.00  0.00    +0.000 N 
ATOM     11  C   UNL     1      48.311   4.959  19.768  0.00  0.00    +0.000 C 
ATOM     12  O   UNL     1      48.002   5.618  20.751  0.00  0.00    +0.000 OA
ATOM     13  H   UNL     1      48.568   3.220  20.788  0.00  0.00    +0.000 HD
ATOM     14  H   UNL     1      49.058   3.108  19.134  0.00  0.00    +0.000 HD
ENDBRANCH   2  11
ENDBRANCH   1   6
BRANCH   1  15
ATOM     15  C   UNL     1      47.593   7.070  13.022  0.00  0.00    +0.000 A 
ATOM     16  C   UNL     1      46.900   8.281  13.064  0.00  0.00    +0.000 A 
ATOM     17  C   UNL     1      45.559   8.322  12.696  0.00  0.00    +0.000 A 
ATOM     18  F   UNL     1      44.903   9.489  12.753  0.00  0.00    +0.000 F 
ATOM     19  C   UNL     1      44.883   7.178  12.277  0.00  0.00    +0.000 A 
ATOM     20  C   UNL     1      45.549   5.956  12.197  0.00  0.00    +0.000 A 
ATOM     21  C   UNL     1      46.900   5.925  12.594  0.00  0.00    +0.000 A 
BRANCH  20  22
ATOM     22  N   UNL     1      44.954   4.765  11.789  0.00  0.00    +0.000 N 
ATOM     23  C   UNL     1      43.701   4.308  12.415  0.00  0.00    +0.000 C 
ATOM     24  C   UNL     1      43.490   2.823  12.062  0.00  0.00    +0.000 C 
ATOM     25  O   UNL     1      43.471   2.609  10.639  0.00  0.00    +0.000 OA
ATOM     26  C   UNL     1      44.705   3.056  10.048  0.00  0.00    +0.000 C 
ATOM     27  C   UNL     1      44.944   4.548  10.322  0.00  0.00    +0.000 C 
ENDBRANCH  20  22
ENDBRANCH   1  15
TORSDOF 4
ENDMDL
