MODEL 1
REMARK VINA RESULT:    -7.664      0.000      0.000
REMARK INTER + INTRA:         -10.379
REMARK INTER:                  -9.680
REMARK INTRA:                  -0.699
REMARK UNBOUND:                -0.699
REMARK  Name = 
REMARK  5 active torsions:
REMARK  status: ('A' for Active; 'I' for Inactive)
REMARK    1  A    between atoms: N_1  and  C_2
REMARK    2  A    between atoms: C_2  and  C_3
REMARK    3  A    between atoms: C_3  and  C_4
REMARK    4  A    between atoms: C_7  and  C_8
REMARK    5  A    between atoms: C_8  and  N_9
REMARK                            x       y       z     vdW  Elec       q    Type
REMARK                         _______ _______ _______ _____ _____    ______ ____
ROOT
ATOM      1  C   UNL     1      45.957   2.576   8.196  0.00  0.00    +0.000 A 
ATOM      2  C   UNL     1      46.024   3.975   8.159  0.00  0.00    +0.000 A 
ATOM      3  C   UNL     1      45.219   4.753   8.993  0.00  0.00    +0.000 A 
ATOM      4  C   UNL     1      44.315   4.150   9.879  0.00  0.00    +0.000 A 
ATOM      5  C   UNL     1      44.250   2.748   9.918  0.00  0.00    +0.000 A 
ATOM      6  C   UNL     1      45.065   1.972   9.089  0.00  0.00    +0.000 A 
ENDROOT
BRANCH   1   7
ATOM      7  C   UNL     1      46.782   1.730   7.251  0.00  0.00    +0.000 C 
BRANCH   7   8
ATOM      8  C   UNL     1      48.043   2.439   6.743  0.00  0.00    +0.000 C 
BRANCH   8   9
ATOM      9  N   UNL     1      48.528   1.826   5.504  0.00  0.00    +0.000 NA
ATOM     10  H   UNL     1      47.993   0.976   5.319  0.00  0.00    +0.000 HD
ATOM     11  H   UNL     1      49.497   1.533   5.621  0.00  0.00    +0.000 HD
ENDBRANCH   8   9
ENDBRANCH   7   8
ENDBRANCH   1   7
BRANCH   4  12
ATOM     12  C   UNL     1      43.342   4.980  10.692  0.00  0.00    +0.000 C 
BRANCH  12  13
ATOM     13  N   UNL     1      44.076   5.927  11.522  0.00  0.00    +0.000 N 
ATOM     14  N   UNL     1      44.037   7.247  11.224  0.00  0.00    +0.000 NA
ATOM     15  C   UNL     1      45.153   7.715  11.790  0.00  0.00    +0.000 A 
ATOM     16  C   UNL     1      45.846   6.734  12.531  0.00  0.00    +0.000 A 
ATOM     17  C   UNL     1      47.062   6.662  13.231  0.00  0.00    +0.000 A 
ATOM     18  C   UNL     1      47.380   5.480  13.910  0.00  0.00    +0.000 A 
ATOM     19  C   UNL     1      46.491   4.405  13.926  0.00  0.00    +0.000 A 
ATOM     20  C   UNL     1      45.297   4.442  13.200  0.00  0.00    +0.000 A 
ATOM     21  C   UNL     1      45.024   5.610  12.472  0.00  0.00    +0.000 A 
ENDBRANCH  12  13
ENDBRANCH   4  12
TORSDOF 5
ENDMDL
MODEL 2
REMARK VINA RESULT:    -7.099      1.325      2.452
REMARK INTER + INTRA:          -9.666
REMARK INTER:                  -9.088
REMARK INTRA:                  -0.578
REMARK UNBOUND:                -0.699
REMARK  Name = 
REMARK  5 active torsions:
REMARK  status: ('A' for Active; 'I' for Inactive)
REMARK    1  A    between atoms: N_1  and  C_2
REMARK    2  A    between atoms: C_2  and  C_3
REMARK    3  A    between atoms: C_3  and  C_4
REMARK    4  A    between atoms: C_7  and  C_8
REMARK    5  A    between atoms: C_8  and  N_9
REMARK                            x       y       z     vdW  Elec       q    Type
REMARK                         _______ _______ _______ _____ _____    ______ ____
ROOT
ATOM      1  C   UNL     1      45.881   2.604   7.902  0.00  0.00    +0.000 A 
ATOM      2  C   UNL     1      45.270   2.006   9.012  0.00  0.00    +0.000 A 
ATOM      3  C   UNL     1      44.830   2.777  10.090  0.00  0.00    +0.000 A 
ATOM      4  C   UNL     1      45.002   4.169  10.089  0.00  0.00    +0.000 A 
ATOM      5  C   UNL     1      45.612   4.768   8.976  0.00  0.00    +0.000 A 
ATOM      6  C   UNL     1      46.041   3.994   7.894  0.00  0.00    +0.000 A 
ENDROOT
BRANCH   1   7
ATOM      7  C   UNL     1      46.414   1.767   6.760  0.00  0.00    +0.000 C 
BRANCH   7   8
ATOM      8  C   UNL     1      47.213   2.578   5.732  0.00  0.00    +0.000 C 
BRANCH   8   9
ATOM      9  N   UNL     1      48.511   1.955   5.465  0.00  0.00    +0.000 NA
ATOM     10  H   UNL     1      48.509   1.004   5.836  0.00  0.00    +0.000 HD
ATOM     11  H   UNL     1      49.243   2.455   5.968  0.00  0.00    +0.000 HD
ENDBRANCH   8   9
ENDBRANCH   7   8
ENDBRANCH   1   7
BRANCH   4  12
ATOM     12  C   UNL     1      44.654   5.002  11.307  0.00  0.00    +0.000 C 
BRANCH  12  13
ATOM     13  N   UNL     1      45.770   4.994  12.245  0.00  0.00    +0.000 N 
ATOM     14  N   UNL     1      45.760   4.130  13.287  0.00  0.00    +0.000 NA
ATOM     15  C   UNL     1      46.576   4.715  14.168  0.00  0.00    +0.000 A 
ATOM     16  C   UNL     1      47.186   5.882  13.661  0.00  0.00    +0.000 A 
ATOM     17  C   UNL     1      48.032   6.886  14.163  0.00  0.00    +0.000 A 
ATOM     18  C   UNL     1      48.483   7.885  13.293  0.00  0.00    +0.000 A 
ATOM     19  C   UNL     1      48.132   7.868  11.943  0.00  0.00    +0.000 A 
ATOM     20  C   UNL     1      47.257   6.903  11.436  0.00  0.00    +0.000 A 
ATOM     21  C   UNL     1      46.763   5.946  12.335  0.00  0.00    +0.000 A 
ENDBRANCH  12  13
ENDBRANCH   4  12
TORSDOF 5
ENDMDL
MODEL 3
REMARK VINA RESULT:    -6.644      2.043      6.385
REMARK INTER + INTRA:          -9.091
REMARK INTER:                  -8.792
REMARK INTRA:                  -0.299
REMARK UNBOUND:                -0.699
REMARK  Name = 
REMARK  5 active torsions:
REMARK  status: ('A' for Active; 'I' for Inactive)
REMARK    1  A    between atoms: N_1  and  C_2
REMARK    2  A    between atoms: C_2  and  C_3
REMARK    3  A    between atoms: C_3  and  C_4
REMARK    4  A    between atoms: C_7  and  C_8
REMARK    5  A    between atoms: C_8  and  N_9
REMARK                            x       y       z     vdW  Elec       q    Type
REMARK                         _______ _______ _______ _____ _____    ______ ____
ROOT
ATOM      1  C   UNL     1      46.946   5.236  13.716  0.00  0.00    +0.000 A 
ATOM      2  C   UNL     1      46.051   4.193  13.447  0.00  0.00    +0.000 A 
ATOM      3  C   UNL     1      45.340   4.149  12.246  0.00  0.00    +0.000 A 
ATOM      4  C   UNL     1      45.500   5.159  11.285  0.00  0.00    +0.000 A 
ATOM      5  C   UNL     1      46.399   6.203  11.554  0.00  0.00    +0.000 A 
ATOM      6  C   UNL     1      47.117   6.237  12.752  0.00  0.00    +0.000 A 
ENDROOT
BRANCH   1   7
ATOM      7  C   UNL     1      47.672   5.321  15.041  0.00  0.00    +0.000 C 
BRANCH   7   8
ATOM      8  C   UNL     1      47.501   4.068  15.909  0.00  0.00    +0.000 C 
BRANCH   8   9
ATOM      9  N   UNL     1      46.721   4.364  17.112  0.00  0.00    +0.000 NA
ATOM     10  H   UNL     1      47.318   4.838  17.791  0.00  0.00    +0.000 HD
ATOM     11  H   UNL     1      46.422   3.494  17.552  0.00  0.00    +0.000 HD
ENDBRANCH   8   9
ENDBRANCH   7   8
ENDBRANCH   1   7
BRANCH   4  12
ATOM     12  C   UNL     1      44.638   5.197  10.039  0.00  0.00    +0.000 C 
BRANCH  12  13
ATOM     13  N   UNL     1      44.624   3.882   9.410  0.00  0.00    +0.000 N 
ATOM     14  N   UNL     1      43.842   2.904   9.925  0.00  0.00    +0.000 NA
ATOM     15  C   UNL     1      44.434   1.788   9.490  0.00  0.00    +0.000 A 
ATOM     16  C   UNL     1      45.517   2.044   8.621  0.00  0.00    +0.000 A 
ATOM     17  C   UNL     1      46.496   1.276   7.966  0.00  0.00    +0.000 A 
ATOM     18  C   UNL     1      47.396   1.921   7.110  0.00  0.00    +0.000 A 
ATOM     19  C   UNL     1      47.302   3.294   6.878  0.00  0.00    +0.000 A 
ATOM     20  C   UNL     1      46.364   4.079   7.554  0.00  0.00    +0.000 A 
ATOM     21  C   UNL     1      45.511   3.427   8.457  0.00  0.00    +0.000 A 
ENDBRANCH  12  13
ENDBRANCH   4  12
TORSDOF 5
ENDMDL
MODEL 4
REMARK VINA RESULT:    -6.306      2.126      5.612
REMARK INTER + INTRA:          -8.664
REMARK INTER:                  -7.928
REMARK INTRA:                  -0.736
REMARK UNBOUND:                -0.699
REMARK  Name = 
REMARK  5 active torsions:
REMARK  status: ('A' for Active; 'I' for Inactive)
REMARK    1  A    between atoms: N_1  and  C_2
REMARK    2  A    between atoms: C_2  and  C_3
REMARK    3  A    between atoms: C_3  and  C_4
REMARK    4  A    between atoms: C_7  and  C_8
REMARK    5  A    between atoms: C_8  and  N_9
REMARK                            x       y       z     vdW  Elec       q    Type
REMARK                         _______ _______ _______ _____ _____    ______ ____
ROOT
ATOM      1  C   UNL     1      47.283   6.411  12.933  0.00  0.00    +0.000 A 
ATOM      2  C   UNL     1      46.890   7.057  11.754  0.00  0.00    +0.000 A 
ATOM      3  C   UNL     1      45.644   6.802  11.177  0.00  0.00    +0.000 A 
ATOM      4  C   UNL     1      44.762   5.881  11.761  0.00  0.00    +0.000 A 
ATOM      5  C   UNL     1      45.156   5.236  12.945  0.00  0.00    +0.000 A 
ATOM      6  C   UNL     1      46.399   5.502  13.525  0.00  0.00    +0.000 A 
ENDROOT
BRANCH   1   7
ATOM      7  C   UNL     1      48.655   6.639  13.527  0.00  0.00    +0.000 C 
BRANCH   7   8
ATOM      8  C   UNL     1      49.389   7.842  12.922  0.00  0.00    +0.000 C 
BRANCH   8   9
ATOM      9  N   UNL     1      50.515   7.408  12.092  0.00  0.00    +0.000 NA
ATOM     10  H   UNL     1      51.389   7.625  12.572  0.00  0.00    +0.000 HD
ATOM     11  H   UNL     1      50.527   7.939  11.223  0.00  0.00    +0.000 HD
ENDBRANCH   8   9
ENDBRANCH   7   8
ENDBRANCH   1   7
BRANCH   4  12
ATOM     12  C   UNL     1      43.467   5.493  11.077  0.00  0.00    +0.000 C 
BRANCH  12  13
ATOM     13  N   UNL     1      43.573   4.136  10.556  0.00  0.00    +0.000 N 
ATOM     14  N   UNL     1      43.093   3.101  11.286  0.00  0.00    +0.000 NA
ATOM     15  C   UNL     1      43.785   2.058  10.817  0.00  0.00    +0.000 A 
ATOM     16  C   UNL     1      44.619   2.397   9.730  0.00  0.00    +0.000 A 
ATOM     17  C   UNL     1      45.579   1.736   8.944  0.00  0.00    +0.000 A 
ATOM     18  C   UNL     1      46.169   2.428   7.880  0.00  0.00    +0.000 A 
ATOM     19  C   UNL     1      45.787   3.735   7.578  0.00  0.00    +0.000 A 
ATOM     20  C   UNL     1      44.866   4.422   8.375  0.00  0.00    +0.000 A 
ATOM     21  C   UNL     1      44.332   3.736   9.476  0.00  0.00    +0.000 A 
ENDBRANCH  12  13
ENDBRANCH   4  12
TORSDOF 5
ENDMDL
MODEL 5
REMARK VINA RESULT:    -5.710      2.237      3.368
REMARK INTER + INTRA:          -7.911
REMARK INTER:                  -7.687
REMARK INTRA:                  -0.224
REMARK UNBOUND:                -0.699
REMARK  Name = 
REMARK  5 active torsions:
REMARK  status: ('A' for Active; 'I' for Inactive)
REMARK    1  A    between atoms: N_1  and  C_2
REMARK    2  A    between atoms: C_2  and  C_3
REMARK    3  A    between atoms: C_3  and  C_4
REMARK    4  A    between atoms: C_7  and  C_8
REMARK    5  A    between atoms: C_8  and  N_9
REMARK                            x       y       z     vdW  Elec       q    Type
REMARK                         _______ _______ _______ _____ _____    ______ ____
ROOT
ATOM      1  C   UNL     1      45.082   4.200   9.379  0.00  0.00    +0.000 A 
ATOM      2  C   UNL     1      44.767   3.496  10.548  0.00  0.00    +0.000 A 
ATOM      3  C   UNL     1      45.036   4.039  11.806  0.00  0.00    +0.000 A 
ATOM      4  C   UNL     1      45.639   5.300  11.925  0.00  0.00    +0.000 A 
ATOM      5  C   UNL     1      45.952   6.006  10.752  0.00  0.00    +0.000 A 
ATOM      6  C   UNL     1      45.672   5.463   9.495  0.00  0.00    +0.000 A 
ENDROOT
BRANCH   1   7
ATOM      7  C   UNL     1      44.849   3.589   8.014  0.00  0.00    +0.000 C 
BRANCH   7   8
ATOM      8  C   UNL     1      46.127   3.037   7.368  0.00  0.00    +0.000 C 
BRANCH   8   9
ATOM      9  N   UNL     1      46.768   4.048   6.525  0.00  0.00    +0.000 NA
ATOM     10  H   UNL     1      46.205   4.899   6.533  0.00  0.00    +0.000 HD
ATOM     11  H   UNL     1      46.787   3.727   5.557  0.00  0.00    +0.000 HD
ENDBRANCH   8   9
ENDBRANCH   7   8
ENDBRANCH   1   7
BRANCH   4  12
ATOM     12  C   UNL     1      46.059   5.844  13.276  0.00  0.00    +0.000 C 
BRANCH  12  13
ATOM     13  N   UNL     1      46.505   7.224  13.134  0.00  0.00    +0.000 N 
ATOM     14  N   UNL     1      45.590   8.221  13.089  0.00  0.00    +0.000 NA
ATOM     15  C   UNL     1      46.244   9.200  12.457  0.00  0.00    +0.000 A 
ATOM     16  C   UNL     1      47.592   8.878  12.193  0.00  0.00    +0.000 A 
ATOM     17  C   UNL     1      48.665   9.480  11.514  0.00  0.00    +0.000 A 
ATOM     18  C   UNL     1      49.913   8.845  11.527  0.00  0.00    +0.000 A 
ATOM     19  C   UNL     1      50.101   7.656  12.231  0.00  0.00    +0.000 A 
ATOM     20  C   UNL     1      49.036   7.020  12.876  0.00  0.00    +0.000 A 
ATOM     21  C   UNL     1      47.778   7.637  12.799  0.00  0.00    +0.000 A 
ENDBRANCH  12  13
ENDBRANCH   4  12
TORSDOF 5
ENDMDL
MODEL 6
REMARK VINA RESULT:    -5.607      2.528      6.436
REMARK INTER + INTRA:          -7.780
REMARK INTER:                  -7.218
REMARK INTRA:                  -0.563
REMARK UNBOUND:                -0.699
REMARK  Name = 
REMARK  5 active torsions:
REMARK  status: ('A' for Active; 'I' for Inactive)
REMARK    1  A    between atoms: N_1  and  C_2
REMARK    2  A    between atoms: C_2  and  C_3
REMARK    3  A    between atoms: C_3  and  C_4
REMARK    4  A    between atoms: C_7  and  C_8
REMARK    5  A    between atoms: C_8  and  N_9
REMARK                            x       y       z     vdW  Elec       q    Type
REMARK                         _______ _______ _______ _____ _____    ______ ____
ROOT
ATOM      1  C   UNL     1      46.467   9.464  12.157  0.00  0.00    +0.000 A 
ATOM      2  C   UNL     1      45.298   8.802  12.555  0.00  0.00    +0.000 A 
ATOM      3  C   UNL     1      45.318   7.443  12.877  0.00  0.00    +0.000 A 
ATOM      4  C   UNL     1      46.510   6.709  12.798  0.00  0.00    +0.000 A 
ATOM      5  C   UNL     1      47.682   7.374  12.403  0.00  0.00    +0.000 A 
ATOM      6  C   UNL     1      47.660   8.736  12.091  0.00  0.00    +0.000 A 
ENDROOT
BRANCH   1   7
ATOM      7  C   UNL     1      46.438  10.921  11.748  0.00  0.00    +0.000 C 
BRANCH   7   8
ATOM      8  C   UNL     1      45.025  11.442  11.453  0.00  0.00    +0.000 C 
BRANCH   8   9
ATOM      9  N   UNL     1      44.690  11.279  10.038  0.00  0.00    +0.000 NA
ATOM     10  H   UNL     1      45.483  10.861   9.550  0.00  0.00    +0.000 HD
ATOM     11  H   UNL     1      44.542  12.193   9.611  0.00  0.00    +0.000 HD
ENDBRANCH   8   9
ENDBRANCH   7   8
ENDBRANCH   1   7
BRANCH   4  12
ATOM     12  C   UNL     1      46.522   5.209  13.014  0.00  0.00    +0.000 C 
BRANCH  12  13
ATOM     13  N   UNL     1      45.381   4.605  12.336  0.00  0.00    +0.000 N 
ATOM     14  N   UNL     1      44.485   3.884  13.050  0.00  0.00    +0.000 NA
ATOM     15  C   UNL     1      43.934   3.092  12.125  0.00  0.00    +0.000 A 
ATOM     16  C   UNL     1      44.392   3.371  10.820  0.00  0.00    +0.000 A 
ATOM     17  C   UNL     1      44.212   2.816   9.541  0.00  0.00    +0.000 A 
ATOM     18  C   UNL     1      44.815   3.442   8.444  0.00  0.00    +0.000 A 
ATOM     19  C   UNL     1      45.550   4.617   8.607  0.00  0.00    +0.000 A 
ATOM     20  C   UNL     1      45.775   5.159   9.876  0.00  0.00    +0.000 A 
ATOM     21  C   UNL     1      45.218   4.483  10.972  0.00  0.00    +0.000 A 
ENDBRANCH  12  13
ENDBRANCH   4  12
TORSDOF 5
ENDMDL
MODEL 7
REMARK VINA RESULT:    -5.403      4.930      7.747
REMARK INTER + INTRA:          -7.523
REMARK INTER:                  -7.306
REMARK INTRA:                  -0.218
REMARK UNBOUND:                -0.699
REMARK  Name = 
REMARK  5 active torsions:
REMARK  status: ('A' for Active; 'I' for Inactive)
REMARK    1  A    between atoms: N_1  and  C_2
REMARK    2  A    between atoms: C_2  and  C_3
REMARK    3  A    between atoms: C_3  and  C_4
REMARK    4  A    between atoms: C_7  and  C_8
REMARK    5  A    between atoms: C_8  and  N_9
REMARK                            x       y       z     vdW  Elec       q    Type
REMARK                         _______ _______ _______ _____ _____    ______ ____
ROOT
ATOM      1  C   UNL     1      50.929   2.857  17.642  0.00  0.00    +0.000 A 
ATOM      2  C   UNL     1      50.583   4.201  17.832  0.00  0.00    +0.000 A 
ATOM      3  C   UNL     1      49.353   4.694  17.390  0.00  0.00    +0.000 A 
ATOM      4  C   UNL     1      48.441   3.854  16.734  0.00  0.00    +0.000 A 
ATOM      5  C   UNL     1      48.788   2.507  16.546  0.00  0.00    +0.000 A 
ATOM      6  C   UNL     1      50.015   2.014  16.999  0.00  0.00    +0.000 A 
ENDROOT
BRANCH   1   7
ATOM      7  C   UNL     1      52.284   2.333  18.064  0.00  0.00    +0.000 C 
BRANCH   7   8
ATOM      8  C   UNL     1      52.658   1.004  17.394  0.00  0.00    +0.000 C 
BRANCH   8   9
ATOM      9  N   UNL     1      52.516  -0.113  18.330  0.00  0.00    +0.000 NA
ATOM     10  H   UNL     1      52.230   0.246  19.241  0.00  0.00    +0.000 HD
ATOM     11  H   UNL     1      53.422  -0.561  18.471  0.00  0.00    +0.000 HD
ENDBRANCH   8   9
ENDBRANCH   7   8
ENDBRANCH   1   7
BRANCH   4  12
ATOM     12  C   UNL     1      47.164   4.403  16.131  0.00  0.00    +0.000 C 
BRANCH  12  13
ATOM     13  N   UNL     1      47.447   4.981  14.823  0.00  0.00    +0.000 N 
ATOM     14  N   UNL     1      48.286   6.038  14.726  0.00  0.00    +0.000 NA
ATOM     15  C   UNL     1      47.920   6.607  13.574  0.00  0.00    +0.000 A 
ATOM     16  C   UNL     1      46.933   5.868  12.886  0.00  0.00    +0.000 A 
ATOM     17  C   UNL     1      46.166   6.039  11.721  0.00  0.00    +0.000 A 
ATOM     18  C   UNL     1      45.302   5.011  11.327  0.00  0.00    +0.000 A 
ATOM     19  C   UNL     1      45.228   3.822  12.053  0.00  0.00    +0.000 A 
ATOM     20  C   UNL     1      45.950   3.653  13.238  0.00  0.00    +0.000 A 
ATOM     21  C   UNL     1      46.763   4.718  13.653  0.00  0.00    +0.000 A 
ENDBRANCH  12  13
ENDBRANCH   4  12
TORSDOF 5
ENDMDL
MODEL 8
REMARK VINA RESULT:    -5.227      3.097      4.589
REMARK INTER + INTRA:          -7.301
REMARK INTER:                  -6.745
REMARK INTRA:                  -0.556
REMARK UNBOUND:                -0.699
REMARK  Name = 
REMARK  5 active torsions:
REMARK  status: ('A' for Active; 'I' for Inactive)
REMARK    1  A    between atoms: N_1  and  C_2
REMARK    2  A    between atoms: C_2  and  C_3
REMARK    3  A    between atoms: C_3  and  C_4
REMARK    4  A    between atoms: C_7  and  C_8
REMARK    5  A    between atoms: C_8  and  N_9
REMARK                            x       y       z     vdW  Elec       q    Type
REMARK                         _______ _______ _______ _____ _____    ______ ____
ROOT
ATOM      1  C   UNL     1      44.903   4.007  11.140  0.00  0.00    +0.000 A 
ATOM      2  C   UNL     1      45.266   5.159  10.431  0.00  0.00    +0.000 A 
ATOM      3  C   UNL     1      45.871   6.238  11.080  0.00  0.00    +0.000 A 
ATOM      4  C   UNL     1      46.118   6.195  12.459  0.00  0.00    +0.000 A 
ATOM      5  C   UNL     1      45.757   5.038  13.168  0.00  0.00    +0.000 A 
ATOM      6  C   UNL     1      45.161   3.956  12.515  0.00  0.00    +0.000 A 
ENDROOT
BRANCH   1   7
ATOM      7  C   UNL     1      44.192   2.861  10.455  0.00  0.00    +0.000 C 
BRANCH   7   8
ATOM      8  C   UNL     1      44.657   2.632   9.011  0.00  0.00    +0.000 C 
BRANCH   8   9
ATOM      9  N   UNL     1      45.626   1.537   8.938  0.00  0.00    +0.000 NA
ATOM     10  H   UNL     1      45.255   0.799   8.339  0.00  0.00    +0.000 HD
ATOM     11  H   UNL     1      45.746   1.122   9.862  0.00  0.00    +0.000 HD
ENDBRANCH   8   9
ENDBRANCH   7   8
ENDBRANCH   1   7
BRANCH   4  12
ATOM     12  C   UNL     1      46.649   7.407  13.199  0.00  0.00    +0.000 C 
BRANCH  12  13
ATOM     13  N   UNL     1      48.027   7.167  13.610  0.00  0.00    +0.000 N 
ATOM     14  N   UNL     1      48.287   6.783  14.882  0.00  0.00    +0.000 NA
ATOM     15  C   UNL     1      49.558   7.156  15.054  0.00  0.00    +0.000 A 
ATOM     16  C   UNL     1      50.141   7.676  13.878  0.00  0.00    +0.000 A 
ATOM     17  C   UNL     1      51.369   8.264  13.529  0.00  0.00    +0.000 A 
ATOM     18  C   UNL     1      51.595   8.608  12.191  0.00  0.00    +0.000 A 
ATOM     19  C   UNL     1      50.637   8.339  11.213  0.00  0.00    +0.000 A 
ATOM     20  C   UNL     1      49.393   7.794  11.549  0.00  0.00    +0.000 A 
ATOM     21  C   UNL     1      49.159   7.515  12.903  0.00  0.00    +0.000 A 
ENDBRANCH  12  13
ENDBRANCH   4  12
TORSDOF 5
ENDMDL
MODEL 9
REMARK VINA RESULT:    -5.058      4.150      6.732
REMARK INTER + INTRA:          -7.087
REMARK INTER:                  -6.366
REMARK INTRA:                  -0.721
REMARK UNBOUND:                -0.699
REMARK  Name = 
REMARK  5 active torsions:
REMARK  status: ('A' for Active; 'I' for Inactive)
REMARK    1  A    between atoms: N_1  and  C_2
REMARK    2  A    between atoms: C_2  and  C_3
REMARK    3  A    between atoms: C_3  and  C_4
REMARK    4  A    between atoms: C_7  and  C_8
REMARK    5  A    between atoms: C_8  and  N_9
REMARK                            x       y       z     vdW  Elec       q    Type
REMARK                         _______ _______ _______ _____ _____    ______ ____
ROOT
ATOM      1  C   UNL     1      45.418   6.596  12.373  0.00  0.00    +0.000 A 
ATOM      2  C   UNL     1      46.329   5.551  12.576  0.00  0.00    +0.000 A 
ATOM      3  C   UNL     1      47.546   5.778  13.223  0.00  0.00    +0.000 A 
ATOM      4  C   UNL     1      47.887   7.061  13.673  0.00  0.00    +0.000 A 
ATOM      5  C   UNL     1      46.973   8.107  13.472  0.00  0.00    +0.000 A 
ATOM      6  C   UNL     1      45.751   7.875  12.834  0.00  0.00    +0.000 A 
ENDROOT
BRANCH   1   7
ATOM      7  C   UNL     1      44.126   6.369  11.619  0.00  0.00    +0.000 C 
BRANCH   7   8
ATOM      8  C   UNL     1      43.345   5.142  12.105  0.00  0.00    +0.000 C 
BRANCH   8   9
ATOM      9  N   UNL     1      42.687   5.411  13.385  0.00  0.00    +0.000 NA
ATOM     10  H   UNL     1      41.701   5.614  13.220  0.00  0.00    +0.000 HD
ATOM     11  H   UNL     1      43.085   6.250  13.807  0.00  0.00    +0.000 HD
ENDBRANCH   8   9
ENDBRANCH   7   8
ENDBRANCH   1   7
BRANCH   4  12
ATOM     12  C   UNL     1      49.257   7.349  14.255  0.00  0.00    +0.000 C 
BRANCH  12  13
ATOM     13  N   UNL     1      49.271   7.010  15.672  0.00  0.00    +0.000 N 
ATOM     14  N   UNL     1      49.550   5.741  16.053  0.00  0.00    +0.000 NA
ATOM     15  C   UNL     1      48.985   5.660  17.261  0.00  0.00    +0.000 A 
ATOM     16  C   UNL     1      48.445   6.888  17.698  0.00  0.00    +0.000 A 
ATOM     17  C   UNL     1      47.701   7.334  18.804  0.00  0.00    +0.000 A 
ATOM     18  C   UNL     1      47.395   8.696  18.906  0.00  0.00    +0.000 A 
ATOM     19  C   UNL     1      47.850   9.603  17.949  0.00  0.00    +0.000 A 
ATOM     20  C   UNL     1      48.553   9.172  16.821  0.00  0.00    +0.000 A 
ATOM     21  C   UNL     1      48.796   7.796  16.701  0.00  0.00    +0.000 A 
ENDBRANCH  12  13
ENDBRANCH   4  12
TORSDOF 5
ENDMDL
