MODEL 1
REMARK VINA RESULT:    -8.429      0.000      0.000
REMARK INTER + INTRA:         -11.656
REMARK INTER:                 -10.893
REMARK INTRA:                  -0.762
REMARK UNBOUND:                -0.762
REMARK  Name = 
REMARK  7 active torsions:
REMARK  status: ('A' for Active; 'I' for Inactive)
REMARK    1  A    between atoms: C_1  and  C_2
REMARK    2  A    between atoms: C_2  and  C_3
REMARK    3  A    between atoms: C_2  and  C_4
REMARK    4  A    between atoms: C_2  and  C_18
REMARK    5  A    between atoms: C_5  and  C_6
REMARK    6  A    between atoms: C_10  and  N_11
REMARK    7  A    between atoms: C_21  and  C_22
REMARK                            x       y       z     vdW  Elec       q    Type
REMARK                         _______ _______ _______ _____ _____    ______ ____
ROOT
ATOM      1  C   UNL     1      43.393   2.826  11.507  0.00  0.00    +0.000 C 
ATOM      2  C   UNL     1      44.297   3.953  10.949  0.00  0.00    +0.000 C 
ATOM      3  C   UNL     1      43.367   5.161  10.662  0.00  0.00    +0.000 C 
ENDROOT
BRANCH   2   4
ATOM      4  C   UNL     1      45.020   3.506   9.680  0.00  0.00    +0.000 A 
ATOM      5  C   UNL     1      45.297   2.177   9.387  0.00  0.00    +0.000 A 
ATOM      6  N   UNL     1      45.982   1.752   8.304  0.00  0.00    +0.000 NA
ATOM      7  C   UNL     1      46.388   2.727   7.458  0.00  0.00    +0.000 A 
ATOM      8  N   UNL     1      46.149   4.038   7.599  0.00  0.00    +0.000 NA
ATOM      9  C   UNL     1      45.468   4.390   8.708  0.00  0.00    +0.000 A 
BRANCH   7  10
ATOM     10  C   UNL     1      47.214   2.289   6.270  0.00  0.00    +0.000 C 
ATOM     11  N   UNL     1      47.140   3.109   5.168  0.00  0.00    +0.000 N 
ATOM     12  O   UNL     1      47.901   1.278   6.246  0.00  0.00    +0.000 OA
ATOM     13  H   UNL     1      46.542   3.927   5.185  0.00  0.00    +0.000 HD
ATOM     14  H   UNL     1      47.641   2.850   4.332  0.00  0.00    +0.000 HD
ENDBRANCH   7  10
ENDBRANCH   2   4
BRANCH   2  15
ATOM     15  C   UNL     1      45.236   4.383  12.071  0.00  0.00    +0.000 C 
ATOM     16  C   UNL     1      46.042   5.456  12.102  0.00  0.00    +0.000 C 
BRANCH  16  17
ATOM     17  C   UNL     1      46.969   5.759  13.208  0.00  0.00    +0.000 A 
ATOM     18  C   UNL     1      47.801   6.883  13.215  0.00  0.00    +0.000 A 
ATOM     19  C   UNL     1      48.605   7.152  14.317  0.00  0.00    +0.000 A 
ATOM     20  C   UNL     1      48.554   6.319  15.435  0.00  0.00    +0.000 A 
ATOM     21  C   UNL     1      47.712   5.199  15.487  0.00  0.00    +0.000 A 
ATOM     22  C   UNL     1      46.945   4.932  14.342  0.00  0.00    +0.000 A 
BRANCH  21  23
ATOM     23  N   UNL     1      47.636   4.415  16.617  0.00  0.00    +0.000 N 
ATOM     24  C   UNL     1      47.175   4.912  17.922  0.00  0.00    +0.000 C 
ATOM     25  C   UNL     1      48.260   4.695  18.984  0.00  0.00    +0.000 C 
ATOM     26  O   UNL     1      48.674   3.319  19.042  0.00  0.00    +0.000 OA
ATOM     27  C   UNL     1      49.202   2.906  17.771  0.00  0.00    +0.000 C 
ATOM     28  C   UNL     1      48.162   3.041  16.646  0.00  0.00    +0.000 C 
ENDBRANCH  21  23
ENDBRANCH  16  17
ENDBRANCH   2  15
TORSDOF 5
ENDMDL
MODEL 2
REMARK VINA RESULT:    -7.936      2.364      3.669
REMARK INTER + INTRA:         -11.018
REMARK INTER:                 -10.166
REMARK INTRA:                  -0.851
REMARK UNBOUND:                -0.762
REMARK  Name = 
REMARK  7 active torsions:
REMARK  status: ('A' for Active; 'I' for Inactive)
REMARK    1  A    between atoms: C_1  and  C_2
REMARK    2  A    between atoms: C_2  and  C_3
REMARK    3  A    between atoms: C_2  and  C_4
REMARK    4  A    between atoms: C_2  and  C_18
REMARK    5  A    between atoms: C_5  and  C_6
REMARK    6  A    between atoms: C_10  and  N_11
REMARK    7  A    between atoms: C_21  and  C_22
REMARK                            x       y       z     vdW  Elec       q    Type
REMARK                         _______ _______ _______ _____ _____    ______ ____
ROOT
ATOM      1  C   UNL     1      43.662   2.899  11.716  0.00  0.00    +0.000 C 
ATOM      2  C   UNL     1      44.373   4.079  11.008  0.00  0.00    +0.000 C 
ATOM      3  C   UNL     1      43.273   5.126  10.687  0.00  0.00    +0.000 C 
ENDROOT
BRANCH   2   4
ATOM      4  C   UNL     1      45.077   3.618   9.734  0.00  0.00    +0.000 A 
ATOM      5  C   UNL     1      45.283   2.282   9.416  0.00  0.00    +0.000 A 
ATOM      6  N   UNL     1      45.950   1.841   8.328  0.00  0.00    +0.000 NA
ATOM      7  C   UNL     1      46.412   2.808   7.502  0.00  0.00    +0.000 A 
ATOM      8  N   UNL     1      46.243   4.128   7.668  0.00  0.00    +0.000 NA
ATOM      9  C   UNL     1      45.576   4.495   8.780  0.00  0.00    +0.000 A 
BRANCH   7  10
ATOM     10  C   UNL     1      47.219   2.348   6.310  0.00  0.00    +0.000 C 
ATOM     11  N   UNL     1      47.145   3.161   5.202  0.00  0.00    +0.000 N 
ATOM     12  O   UNL     1      47.891   1.328   6.287  0.00  0.00    +0.000 OA
ATOM     13  H   UNL     1      46.559   3.987   5.218  0.00  0.00    +0.000 HD
ATOM     14  H   UNL     1      47.633   2.888   4.363  0.00  0.00    +0.000 HD
ENDBRANCH   7  10
ENDBRANCH   2   4
BRANCH   2  15
ATOM     15  C   UNL     1      45.306   4.727  12.025  0.00  0.00    +0.000 C 
ATOM     16  C   UNL     1      45.965   4.131  13.032  0.00  0.00    +0.000 C 
BRANCH  16  17
ATOM     17  C   UNL     1      46.798   4.851  14.012  0.00  0.00    +0.000 A 
ATOM     18  C   UNL     1      47.108   4.332  15.273  0.00  0.00    +0.000 A 
ATOM     19  C   UNL     1      47.954   5.028  16.129  0.00  0.00    +0.000 A 
ATOM     20  C   UNL     1      48.527   6.231  15.714  0.00  0.00    +0.000 A 
ATOM     21  C   UNL     1      48.272   6.774  14.447  0.00  0.00    +0.000 A 
ATOM     22  C   UNL     1      47.380   6.068  13.624  0.00  0.00    +0.000 A 
BRANCH  21  23
ATOM     23  N   UNL     1      48.885   7.937  14.033  0.00  0.00    +0.000 N 
ATOM     24  C   UNL     1      48.209   9.241  13.990  0.00  0.00    +0.000 C 
ATOM     25  C   UNL     1      48.260   9.816  12.568  0.00  0.00    +0.000 C 
ATOM     26  O   UNL     1      49.610   9.887  12.077  0.00  0.00    +0.000 OA
ATOM     27  C   UNL     1      50.198   8.576  12.051  0.00  0.00    +0.000 C 
ATOM     28  C   UNL     1      50.236   7.936  13.449  0.00  0.00    +0.000 C 
ENDBRANCH  21  23
ENDBRANCH  16  17
ENDBRANCH   2  15
TORSDOF 5
ENDMDL
MODEL 3
REMARK VINA RESULT:    -7.362      3.078      8.387
REMARK INTER + INTRA:         -10.276
REMARK INTER:                  -9.449
REMARK INTRA:                  -0.827
REMARK UNBOUND:                -0.762
REMARK  Name = 
REMARK  7 active torsions:
REMARK  status: ('A' for Active; 'I' for Inactive)
REMARK    1  A    between atoms: C_1  and  C_2
REMARK    2  A    between atoms: C_2  and  C_3
REMARK    3  A    between atoms: C_2  and  C_4
REMARK    4  A    between atoms: C_2  and  C_18
REMARK    5  A    between atoms: C_5  and  C_6
REMARK    6  A    between atoms: C_10  and  N_11
REMARK    7  A    between atoms: C_21  and  C_22
REMARK                            x       y       z     vdW  Elec       q    Type
REMARK                         _______ _______ _______ _____ _____    ______ ____
ROOT
ATOM      1  C   UNL     1      47.959   5.175  18.241  0.00  0.00    +0.000 C 
ATOM      2  C   UNL     1      48.020   3.949  17.297  0.00  0.00    +0.000 C 
ATOM      3  C   UNL     1      46.905   2.977  17.768  0.00  0.00    +0.000 C 
ENDROOT
BRANCH   2   4
ATOM      4  C   UNL     1      49.389   3.276  17.350  0.00  0.00    +0.000 A 
ATOM      5  C   UNL     1      49.623   1.985  16.891  0.00  0.00    +0.000 A 
ATOM      6  N   UNL     1      50.806   1.340  16.974  0.00  0.00    +0.000 NA
ATOM      7  C   UNL     1      51.815   2.050  17.529  0.00  0.00    +0.000 A 
ATOM      8  N   UNL     1      51.735   3.314  17.969  0.00  0.00    +0.000 NA
ATOM      9  C   UNL     1      50.522   3.892  17.863  0.00  0.00    +0.000 A 
BRANCH   7  10
ATOM     10  C   UNL     1      53.135   1.332  17.695  0.00  0.00    +0.000 C 
ATOM     11  N   UNL     1      53.044   0.028  18.123  0.00  0.00    +0.000 N 
ATOM     12  O   UNL     1      54.225   1.843  17.486  0.00  0.00    +0.000 OA
ATOM     13  H   UNL     1      52.138  -0.377  18.326  0.00  0.00    +0.000 HD
ATOM     14  H   UNL     1      53.893  -0.492  18.287  0.00  0.00    +0.000 HD
ENDBRANCH   7  10
ENDBRANCH   2   4
BRANCH   2  15
ATOM     15  C   UNL     1      47.622   4.425  15.904  0.00  0.00    +0.000 C 
ATOM     16  C   UNL     1      48.020   5.541  15.273  0.00  0.00    +0.000 C 
BRANCH  16  17
ATOM     17  C   UNL     1      47.530   5.956  13.946  0.00  0.00    +0.000 A 
ATOM     18  C   UNL     1      48.222   6.855  13.127  0.00  0.00    +0.000 A 
ATOM     19  C   UNL     1      47.744   7.158  11.857  0.00  0.00    +0.000 A 
ATOM     20  C   UNL     1      46.590   6.533  11.382  0.00  0.00    +0.000 A 
ATOM     21  C   UNL     1      45.881   5.601  12.153  0.00  0.00    +0.000 A 
ATOM     22  C   UNL     1      46.366   5.351  13.446  0.00  0.00    +0.000 A 
BRANCH  21  23
ATOM     23  N   UNL     1      44.772   4.956  11.650  0.00  0.00    +0.000 N 
ATOM     24  C   UNL     1      43.678   4.446  12.489  0.00  0.00    +0.000 C 
ATOM     25  C   UNL     1      43.496   2.940  12.261  0.00  0.00    +0.000 C 
ATOM     26  O   UNL     1      43.299   2.637  10.869  0.00  0.00    +0.000 OA
ATOM     27  C   UNL     1      44.435   3.072  10.102  0.00  0.00    +0.000 C 
ATOM     28  C   UNL     1      44.667   4.587  10.229  0.00  0.00    +0.000 C 
ENDBRANCH  21  23
ENDBRANCH  16  17
ENDBRANCH   2  15
TORSDOF 5
ENDMDL
MODEL 4
REMARK VINA RESULT:    -6.719      2.134      2.424
REMARK INTER + INTRA:          -9.445
REMARK INTER:                  -8.695
REMARK INTRA:                  -0.750
REMARK UNBOUND:                -0.762
REMARK  Name = 
REMARK  7 active torsions:
REMARK  status: ('A' for Active; 'I' for Inactive)
REMARK    1  A    between atoms: C_1  and  C_2
REMARK    2  A    between atoms: C_2  and  C_3
REMARK    3  A    between atoms: C_2  and  C_4
REMARK    4  A    between atoms: C_2  and  C_18
REMARK    5  A    between atoms: C_5  and  C_6
REMARK    6  A    between atoms: C_10  and  N_11
REMARK    7  A    between atoms: C_21  and  C_22
REMARK                            x       y       z     vdW  Elec       q    Type
REMARK                         _______ _______ _______ _____ _____    ______ ____
ROOT
ATOM      1  C   UNL     1      44.103   3.641  12.444  0.00  0.00    +0.000 C 
ATOM      2  C   UNL     1      44.356   4.717  11.360  0.00  0.00    +0.000 C 
ATOM      3  C   UNL     1      42.986   5.388  11.078  0.00  0.00    +0.000 C 
ENDROOT
BRANCH   2   4
ATOM      4  C   UNL     1      44.933   4.099  10.089  0.00  0.00    +0.000 A 
ATOM      5  C   UNL     1      44.960   2.730   9.849  0.00  0.00    +0.000 A 
ATOM      6  N   UNL     1      45.513   2.148   8.764  0.00  0.00    +0.000 NA
ATOM      7  C   UNL     1      46.045   3.000   7.858  0.00  0.00    +0.000 A 
ATOM      8  N   UNL     1      46.045   4.338   7.945  0.00  0.00    +0.000 NA
ATOM      9  C   UNL     1      45.485   4.849   9.059  0.00  0.00    +0.000 A 
BRANCH   7  10
ATOM     10  C   UNL     1      46.729   2.375   6.664  0.00  0.00    +0.000 C 
ATOM     11  N   UNL     1      47.375   1.186   6.912  0.00  0.00    +0.000 N 
ATOM     12  O   UNL     1      46.739   2.865   5.544  0.00  0.00    +0.000 OA
ATOM     13  H   UNL     1      47.390   0.804   7.851  0.00  0.00    +0.000 HD
ATOM     14  H   UNL     1      47.880   0.739   6.163  0.00  0.00    +0.000 HD
ENDBRANCH   7  10
ENDBRANCH   2   4
BRANCH   2  15
ATOM     15  C   UNL     1      45.246   5.789  11.980  0.00  0.00    +0.000 C 
ATOM     16  C   UNL     1      46.429   5.622  12.592  0.00  0.00    +0.000 C 
BRANCH  16  17
ATOM     17  C   UNL     1      47.192   6.713  13.224  0.00  0.00    +0.000 A 
ATOM     18  C   UNL     1      47.107   8.044  12.800  0.00  0.00    +0.000 A 
ATOM     19  C   UNL     1      47.800   9.040  13.477  0.00  0.00    +0.000 A 
ATOM     20  C   UNL     1      48.552   8.719  14.608  0.00  0.00    +0.000 A 
ATOM     21  C   UNL     1      48.641   7.406  15.090  0.00  0.00    +0.000 A 
ATOM     22  C   UNL     1      47.965   6.417  14.358  0.00  0.00    +0.000 A 
BRANCH  21  23
ATOM     23  N   UNL     1      49.347   7.112  16.236  0.00  0.00    +0.000 N 
ATOM     24  C   UNL     1      48.815   7.311  17.592  0.00  0.00    +0.000 C 
ATOM     25  C   UNL     1      49.734   8.246  18.389  0.00  0.00    +0.000 C 
ATOM     26  O   UNL     1      51.090   7.767  18.402  0.00  0.00    +0.000 OA
ATOM     27  C   UNL     1      51.598   7.676  17.060  0.00  0.00    +0.000 C 
ATOM     28  C   UNL     1      50.764   6.716  16.195  0.00  0.00    +0.000 C 
ENDBRANCH  21  23
ENDBRANCH  16  17
ENDBRANCH   2  15
TORSDOF 5
ENDMDL
MODEL 5
REMARK VINA RESULT:    -6.646      1.933      2.659
REMARK INTER + INTRA:          -9.351
REMARK INTER:                  -8.610
REMARK INTRA:                  -0.741
REMARK UNBOUND:                -0.762
REMARK  Name = 
REMARK  7 active torsions:
REMARK  status: ('A' for Active; 'I' for Inactive)
REMARK    1  A    between atoms: C_1  and  C_2
REMARK    2  A    between atoms: C_2  and  C_3
REMARK    3  A    between atoms: C_2  and  C_4
REMARK    4  A    between atoms: C_2  and  C_18
REMARK    5  A    between atoms: C_5  and  C_6
REMARK    6  A    between atoms: C_10  and  N_11
REMARK    7  A    between atoms: C_21  and  C_22
REMARK                            x       y       z     vdW  Elec       q    Type
REMARK                         _______ _______ _______ _____ _____    ______ ____
ROOT
ATOM      1  C   UNL     1      43.108   4.713  11.370  0.00  0.00    +0.000 C 
ATOM      2  C   UNL     1      44.599   5.057  11.126  0.00  0.00    +0.000 C 
ATOM      3  C   UNL     1      44.664   6.590  10.895  0.00  0.00    +0.000 C 
ENDROOT
BRANCH   2   4
ATOM      4  C   UNL     1      45.153   4.299   9.922  0.00  0.00    +0.000 A 
ATOM      5  C   UNL     1      45.096   2.916   9.798  0.00  0.00    +0.000 A 
ATOM      6  N   UNL     1      45.626   2.211   8.776  0.00  0.00    +0.000 NA
ATOM      7  C   UNL     1      46.223   2.949   7.812  0.00  0.00    +0.000 A 
ATOM      8  N   UNL     1      46.307   4.286   7.787  0.00  0.00    +0.000 NA
ATOM      9  C   UNL     1      45.765   4.924   8.844  0.00  0.00    +0.000 A 
BRANCH   7  10
ATOM     10  C   UNL     1      46.882   2.184   6.687  0.00  0.00    +0.000 C 
ATOM     11  N   UNL     1      47.197   2.930   5.575  0.00  0.00    +0.000 N 
ATOM     12  O   UNL     1      47.122   0.986   6.720  0.00  0.00    +0.000 OA
ATOM     13  H   UNL     1      46.964   3.915   5.544  0.00  0.00    +0.000 HD
ATOM     14  H   UNL     1      47.606   2.468   4.777  0.00  0.00    +0.000 HD
ENDBRANCH   7  10
ENDBRANCH   2   4
BRANCH   2  15
ATOM     15  C   UNL     1      45.350   4.780  12.424  0.00  0.00    +0.000 C 
ATOM     16  C   UNL     1      46.157   5.613  13.100  0.00  0.00    +0.000 C 
BRANCH  16  17
ATOM     17  C   UNL     1      46.896   5.236  14.318  0.00  0.00    +0.000 A 
ATOM     18  C   UNL     1      46.765   3.986  14.931  0.00  0.00    +0.000 A 
ATOM     19  C   UNL     1      47.539   3.664  16.040  0.00  0.00    +0.000 A 
ATOM     20  C   UNL     1      48.478   4.577  16.521  0.00  0.00    +0.000 A 
ATOM     21  C   UNL     1      48.669   5.830  15.921  0.00  0.00    +0.000 A 
ATOM     22  C   UNL     1      47.842   6.140  14.829  0.00  0.00    +0.000 A 
BRANCH  21  23
ATOM     23  N   UNL     1      49.635   6.700  16.377  0.00  0.00    +0.000 N 
ATOM     24  C   UNL     1      50.628   7.342  15.505  0.00  0.00    +0.000 C 
ATOM     25  C   UNL     1      52.047   6.999  15.977  0.00  0.00    +0.000 C 
ATOM     26  O   UNL     1      52.238   7.341  17.361  0.00  0.00    +0.000 OA
ATOM     27  C   UNL     1      51.305   6.619  18.183  0.00  0.00    +0.000 C 
ATOM     28  C   UNL     1      49.847   6.939  17.813  0.00  0.00    +0.000 C 
ENDBRANCH  21  23
ENDBRANCH  16  17
ENDBRANCH   2  15
TORSDOF 5
ENDMDL
MODEL 6
REMARK VINA RESULT:    -6.419      2.804      4.365
REMARK INTER + INTRA:          -9.058
REMARK INTER:                  -8.242
REMARK INTRA:                  -0.816
REMARK UNBOUND:                -0.762
REMARK  Name = 
REMARK  7 active torsions:
REMARK  status: ('A' for Active; 'I' for Inactive)
REMARK    1  A    between atoms: C_1  and  C_2
REMARK    2  A    between atoms: C_2  and  C_3
REMARK    3  A    between atoms: C_2  and  C_4
REMARK    4  A    between atoms: C_2  and  C_18
REMARK    5  A    between atoms: C_5  and  C_6
REMARK    6  A    between atoms: C_10  and  N_11
REMARK    7  A    between atoms: C_21  and  C_22
REMARK                            x       y       z     vdW  Elec       q    Type
REMARK                         _______ _______ _______ _____ _____    ______ ____
ROOT
ATOM      1  C   UNL     1      46.053   8.601  12.747  0.00  0.00    +0.000 C 
ATOM      2  C   UNL     1      46.983   7.363  12.693  0.00  0.00    +0.000 C 
ATOM      3  C   UNL     1      48.147   7.730  11.734  0.00  0.00    +0.000 C 
ENDROOT
BRANCH   2   4
ATOM      4  C   UNL     1      46.235   6.128  12.197  0.00  0.00    +0.000 A 
ATOM      5  C   UNL     1      45.552   6.083  10.988  0.00  0.00    +0.000 A 
ATOM      6  N   UNL     1      44.834   5.029  10.546  0.00  0.00    +0.000 NA
ATOM      7  C   UNL     1      44.828   3.950  11.362  0.00  0.00    +0.000 A 
ATOM      8  N   UNL     1      45.479   3.846  12.530  0.00  0.00    +0.000 NA
ATOM      9  C   UNL     1      46.167   4.940  12.912  0.00  0.00    +0.000 A 
BRANCH   7  10
ATOM     10  C   UNL     1      43.980   2.778  10.925  0.00  0.00    +0.000 C 
ATOM     11  N   UNL     1      44.448   2.091   9.828  0.00  0.00    +0.000 N 
ATOM     12  O   UNL     1      42.942   2.439  11.472  0.00  0.00    +0.000 OA
ATOM     13  H   UNL     1      45.292   2.399   9.360  0.00  0.00    +0.000 HD
ATOM     14  H   UNL     1      43.906   1.321   9.467  0.00  0.00    +0.000 HD
ENDBRANCH   7  10
ENDBRANCH   2   4
BRANCH   2  15
ATOM     15  C   UNL     1      47.598   7.194  14.078  0.00  0.00    +0.000 C 
ATOM     16  C   UNL     1      48.443   8.025  14.709  0.00  0.00    +0.000 C 
BRANCH  16  17
ATOM     17  C   UNL     1      49.042   7.746  16.027  0.00  0.00    +0.000 A 
ATOM     18  C   UNL     1      49.334   8.750  16.956  0.00  0.00    +0.000 A 
ATOM     19  C   UNL     1      49.837   8.420  18.210  0.00  0.00    +0.000 A 
ATOM     20  C   UNL     1      50.014   7.080  18.557  0.00  0.00    +0.000 A 
ATOM     21  C   UNL     1      49.705   6.038  17.672  0.00  0.00    +0.000 A 
ATOM     22  C   UNL     1      49.240   6.407  16.399  0.00  0.00    +0.000 A 
BRANCH  21  23
ATOM     23  N   UNL     1      49.838   4.719  18.047  0.00  0.00    +0.000 N 
ATOM     24  C   UNL     1      51.127   4.094  18.377  0.00  0.00    +0.000 C 
ATOM     25  C   UNL     1      51.376   2.884  17.468  0.00  0.00    +0.000 C 
ATOM     26  O   UNL     1      50.286   1.947  17.528  0.00  0.00    +0.000 OA
ATOM     27  C   UNL     1      49.065   2.578  17.109  0.00  0.00    +0.000 C 
ATOM     28  C   UNL     1      48.706   3.781  17.999  0.00  0.00    +0.000 C 
ENDBRANCH  21  23
ENDBRANCH  16  17
ENDBRANCH   2  15
TORSDOF 5
ENDMDL
MODEL 7
REMARK VINA RESULT:    -6.151      4.418      7.596
REMARK INTER + INTRA:          -8.712
REMARK INTER:                  -8.049
REMARK INTRA:                  -0.662
REMARK UNBOUND:                -0.762
REMARK  Name = 
REMARK  7 active torsions:
REMARK  status: ('A' for Active; 'I' for Inactive)
REMARK    1  A    between atoms: C_1  and  C_2
REMARK    2  A    between atoms: C_2  and  C_3
REMARK    3  A    between atoms: C_2  and  C_4
REMARK    4  A    between atoms: C_2  and  C_18
REMARK    5  A    between atoms: C_5  and  C_6
REMARK    6  A    between atoms: C_10  and  N_11
REMARK    7  A    between atoms: C_21  and  C_22
REMARK                            x       y       z     vdW  Elec       q    Type
REMARK                         _______ _______ _______ _____ _____    ______ ____
ROOT
ATOM      1  C   UNL     1      45.525   7.473  12.830  0.00  0.00    +0.000 C 
ATOM      2  C   UNL     1      46.543   6.434  12.299  0.00  0.00    +0.000 C 
ATOM      3  C   UNL     1      45.844   5.693  11.128  0.00  0.00    +0.000 C 
ENDROOT
BRANCH   2   4
ATOM      4  C   UNL     1      46.959   5.454  13.394  0.00  0.00    +0.000 A 
ATOM      5  C   UNL     1      47.556   5.849  14.585  0.00  0.00    +0.000 A 
ATOM      6  N   UNL     1      47.987   5.007  15.548  0.00  0.00    +0.000 NA
ATOM      7  C   UNL     1      47.778   3.692  15.303  0.00  0.00    +0.000 A 
ATOM      8  N   UNL     1      47.175   3.183  14.220  0.00  0.00    +0.000 NA
ATOM      9  C   UNL     1      46.779   4.081  13.296  0.00  0.00    +0.000 A 
BRANCH   7  10
ATOM     10  C   UNL     1      48.307   2.721  16.334  0.00  0.00    +0.000 C 
ATOM     11  N   UNL     1      47.803   2.879  17.604  0.00  0.00    +0.000 N 
ATOM     12  O   UNL     1      49.133   1.852  16.098  0.00  0.00    +0.000 OA
ATOM     13  H   UNL     1      47.143   3.624  17.798  0.00  0.00    +0.000 HD
ATOM     14  H   UNL     1      48.145   2.284  18.343  0.00  0.00    +0.000 HD
ENDBRANCH   7  10
ENDBRANCH   2   4
BRANCH   2  15
ATOM     15  C   UNL     1      47.709   7.206  11.691  0.00  0.00    +0.000 C 
ATOM     16  C   UNL     1      48.428   8.188  12.257  0.00  0.00    +0.000 C 
BRANCH  16  17
ATOM     17  C   UNL     1      49.501   8.927  11.567  0.00  0.00    +0.000 A 
ATOM     18  C   UNL     1      49.440  10.303  11.323  0.00  0.00    +0.000 A 
ATOM     19  C   UNL     1      50.512  10.957  10.726  0.00  0.00    +0.000 A 
ATOM     20  C   UNL     1      51.669  10.246  10.405  0.00  0.00    +0.000 A 
ATOM     21  C   UNL     1      51.789   8.872  10.661  0.00  0.00    +0.000 A 
ATOM     22  C   UNL     1      50.673   8.234  11.224  0.00  0.00    +0.000 A 
BRANCH  21  23
ATOM     23  N   UNL     1      52.956   8.195  10.384  0.00  0.00    +0.000 N 
ATOM     24  C   UNL     1      53.066   7.151   9.355  0.00  0.00    +0.000 C 
ATOM     25  C   UNL     1      53.557   5.840   9.982  0.00  0.00    +0.000 C 
ATOM     26  O   UNL     1      54.790   6.027  10.699  0.00  0.00    +0.000 OA
ATOM     27  C   UNL     1      54.609   6.988  11.752  0.00  0.00    +0.000 C 
ATOM     28  C   UNL     1      54.163   8.357  11.211  0.00  0.00    +0.000 C 
ENDBRANCH  21  23
ENDBRANCH  16  17
ENDBRANCH   2  15
TORSDOF 5
ENDMDL
MODEL 8
REMARK VINA RESULT:    -6.115      4.698      8.287
REMARK INTER + INTRA:          -8.664
REMARK INTER:                  -8.089
REMARK INTRA:                  -0.575
REMARK UNBOUND:                -0.762
REMARK  Name = 
REMARK  7 active torsions:
REMARK  status: ('A' for Active; 'I' for Inactive)
REMARK    1  A    between atoms: C_1  and  C_2
REMARK    2  A    between atoms: C_2  and  C_3
REMARK    3  A    between atoms: C_2  and  C_4
REMARK    4  A    between atoms: C_2  and  C_18
REMARK    5  A    between atoms: C_5  and  C_6
REMARK    6  A    between atoms: C_10  and  N_11
REMARK    7  A    between atoms: C_21  and  C_22
REMARK                            x       y       z     vdW  Elec       q    Type
REMARK                         _______ _______ _______ _____ _____    ______ ____
ROOT
ATOM      1  C   UNL     1      46.400   8.355  12.857  0.00  0.00    +0.000 C 
ATOM      2  C   UNL     1      47.017   7.014  12.390  0.00  0.00    +0.000 C 
ATOM      3  C   UNL     1      46.048   6.432  11.325  0.00  0.00    +0.000 C 
ENDROOT
BRANCH   2   4
ATOM      4  C   UNL     1      47.189   6.046  13.557  0.00  0.00    +0.000 A 
ATOM      5  C   UNL     1      46.453   4.875  13.694  0.00  0.00    +0.000 A 
ATOM      6  N   UNL     1      46.540   4.027  14.741  0.00  0.00    +0.000 NA
ATOM      7  C   UNL     1      47.442   4.370  15.690  0.00  0.00    +0.000 A 
ATOM      8  N   UNL     1      48.244   5.443  15.658  0.00  0.00    +0.000 NA
ATOM      9  C   UNL     1      48.096   6.250  14.589  0.00  0.00    +0.000 A 
BRANCH   7  10
ATOM     10  C   UNL     1      47.516   3.474  16.905  0.00  0.00    +0.000 C 
ATOM     11  N   UNL     1      48.779   3.275  17.412  0.00  0.00    +0.000 N 
ATOM     12  O   UNL     1      46.548   2.937  17.423  0.00  0.00    +0.000 OA
ATOM     13  H   UNL     1      49.580   3.698  16.957  0.00  0.00    +0.000 HD
ATOM     14  H   UNL     1      48.897   2.658  18.201  0.00  0.00    +0.000 HD
ENDBRANCH   7  10
ENDBRANCH   2   4
BRANCH   2  15
ATOM     15  C   UNL     1      48.318   7.338  11.663  0.00  0.00    +0.000 C 
ATOM     16  C   UNL     1      49.326   8.115  12.090  0.00  0.00    +0.000 C 
BRANCH  16  17
ATOM     17  C   UNL     1      50.522   8.427  11.289  0.00  0.00    +0.000 A 
ATOM     18  C   UNL     1      51.076   9.710  11.218  0.00  0.00    +0.000 A 
ATOM     19  C   UNL     1      52.245   9.929  10.498  0.00  0.00    +0.000 A 
ATOM     20  C   UNL     1      52.890   8.860   9.876  0.00  0.00    +0.000 A 
ATOM     21  C   UNL     1      52.391   7.551   9.947  0.00  0.00    +0.000 A 
ATOM     22  C   UNL     1      51.187   7.371  10.645  0.00  0.00    +0.000 A 
BRANCH  21  23
ATOM     23  N   UNL     1      53.066   6.498   9.370  0.00  0.00    +0.000 N 
ATOM     24  C   UNL     1      53.963   5.602  10.113  0.00  0.00    +0.000 C 
ATOM     25  C   UNL     1      55.364   5.619   9.489  0.00  0.00    +0.000 C 
ATOM     26  O   UNL     1      55.321   5.303   8.087  0.00  0.00    +0.000 OA
ATOM     27  C   UNL     1      54.508   6.260   7.388  0.00  0.00    +0.000 C 
ATOM     28  C   UNL     1      53.063   6.278   7.914  0.00  0.00    +0.000 C 
ENDBRANCH  21  23
ENDBRANCH  16  17
ENDBRANCH   2  15
TORSDOF 5
ENDMDL
MODEL 9
REMARK VINA RESULT:    -5.872      3.211      8.959
REMARK INTER + INTRA:          -8.350
REMARK INTER:                  -7.518
REMARK INTRA:                  -0.832
REMARK UNBOUND:                -0.762
REMARK  Name = 
REMARK  7 active torsions:
REMARK  status: ('A' for Active; 'I' for Inactive)
REMARK    1  A    between atoms: C_1  and  C_2
REMARK    2  A    between atoms: C_2  and  C_3
REMARK    3  A    between atoms: C_2  and  C_4
REMARK    4  A    between atoms: C_2  and  C_18
REMARK    5  A    between atoms: C_5  and  C_6
REMARK    6  A    between atoms: C_10  and  N_11
REMARK    7  A    between atoms: C_21  and  C_22
REMARK                            x       y       z     vdW  Elec       q    Type
REMARK                         _______ _______ _______ _____ _____    ______ ____
ROOT
ATOM      1  C   UNL     1      47.159   4.952  18.323  0.00  0.00    +0.000 C 
ATOM      2  C   UNL     1      48.235   4.383  17.365  0.00  0.00    +0.000 C 
ATOM      3  C   UNL     1      48.116   2.837  17.440  0.00  0.00    +0.000 C 
ENDROOT
BRANCH   2   4
ATOM      4  C   UNL     1      49.634   4.843  17.767  0.00  0.00    +0.000 A 
ATOM      5  C   UNL     1      49.874   5.970  18.543  0.00  0.00    +0.000 A 
ATOM      6  N   UNL     1      51.099   6.437  18.868  0.00  0.00    +0.000 NA
ATOM      7  C   UNL     1      52.138   5.706  18.404  0.00  0.00    +0.000 A 
ATOM      8  N   UNL     1      52.045   4.578  17.685  0.00  0.00    +0.000 NA
ATOM      9  C   UNL     1      50.793   4.177  17.390  0.00  0.00    +0.000 A 
BRANCH   7  10
ATOM     10  C   UNL     1      53.522   6.239  18.697  0.00  0.00    +0.000 C 
ATOM     11  N   UNL     1      53.821   7.449  18.116  0.00  0.00    +0.000 N 
ATOM     12  O   UNL     1      54.349   5.659  19.385  0.00  0.00    +0.000 OA
ATOM     13  H   UNL     1      53.141   7.907  17.520  0.00  0.00    +0.000 HD
ATOM     14  H   UNL     1      54.742   7.839  18.246  0.00  0.00    +0.000 HD
ENDBRANCH   7  10
ENDBRANCH   2   4
BRANCH   2  15
ATOM     15  C   UNL     1      47.841   4.782  15.947  0.00  0.00    +0.000 C 
ATOM     16  C   UNL     1      48.183   5.897  15.282  0.00  0.00    +0.000 C 
BRANCH  16  17
ATOM     17  C   UNL     1      47.699   6.231  13.931  0.00  0.00    +0.000 A 
ATOM     18  C   UNL     1      48.412   7.050  13.049  0.00  0.00    +0.000 A 
ATOM     19  C   UNL     1      47.936   7.277  11.763  0.00  0.00    +0.000 A 
ATOM     20  C   UNL     1      46.763   6.653  11.335  0.00  0.00    +0.000 A 
ATOM     21  C   UNL     1      46.032   5.798  12.172  0.00  0.00    +0.000 A 
ATOM     22  C   UNL     1      46.516   5.625  13.478  0.00  0.00    +0.000 A 
BRANCH  21  23
ATOM     23  N   UNL     1      44.903   5.151  11.719  0.00  0.00    +0.000 N 
ATOM     24  C   UNL     1      43.843   4.649  12.604  0.00  0.00    +0.000 C 
ATOM     25  C   UNL     1      43.649   3.142  12.396  0.00  0.00    +0.000 C 
ATOM     26  O   UNL     1      43.397   2.828  11.015  0.00  0.00    +0.000 OA
ATOM     27  C   UNL     1      44.502   3.255  10.200  0.00  0.00    +0.000 C 
ATOM     28  C   UNL     1      44.741   4.771  10.306  0.00  0.00    +0.000 C 
ENDBRANCH  21  23
ENDBRANCH  16  17
ENDBRANCH   2  15
TORSDOF 5
ENDMDL
