MODEL 1
REMARK VINA RESULT:    -8.326      0.000      0.000
REMARK INTER + INTRA:         -12.558
REMARK INTER:                 -11.246
REMARK INTRA:                  -1.312
REMARK UNBOUND:                -1.312
REMARK  Name = 
REMARK  6 active torsions:
REMARK  status: ('A' for Active; 'I' for Inactive)
REMARK    1  A    between atoms: C_2  and  C_4
REMARK    2  A    between atoms: N_9  and  C_10
REMARK    3  A    between atoms: C_10  and  C_11
REMARK    4  A    between atoms: C_16  and  C_17
REMARK    5  A    between atoms: C_21  and  O_22
REMARK    6  A    between atoms: O_22  and  C_23
REMARK                            x       y       z     vdW  Elec       q    Type
REMARK                         _______ _______ _______ _____ _____    ______ ____
ROOT
ATOM      1  C   UNL     1      47.465   7.433  12.841  0.00  0.00    +0.000 A 
ATOM      2  C   UNL     1      46.575   8.486  13.068  0.00  0.00    +0.000 A 
ATOM      3  C   UNL     1      45.301   8.449  12.507  0.00  0.00    +0.000 A 
ATOM      4  C   UNL     1      44.909   7.359  11.730  0.00  0.00    +0.000 A 
ATOM      5  F   UNL     1      43.665   7.383  11.224  0.00  0.00    +0.000 F 
ATOM      6  C   UNL     1      45.764   6.272  11.478  0.00  0.00    +0.000 A 
ATOM      7  C   UNL     1      47.046   6.338  12.063  0.00  0.00    +0.000 A 
ENDROOT
BRANCH   6   8
ATOM      8  C   UNL     1      45.389   5.126  10.614  0.00  0.00    +0.000 A 
ATOM      9  C   UNL     1      44.554   4.092  11.070  0.00  0.00    +0.000 A 
ATOM     10  C   UNL     1      44.161   3.045  10.232  0.00  0.00    +0.000 A 
ATOM     11  C   UNL     1      44.566   3.018   8.899  0.00  0.00    +0.000 A 
ATOM     12  C   UNL     1      45.378   4.037   8.409  0.00  0.00    +0.000 A 
ATOM     13  C   UNL     1      45.811   5.052   9.271  0.00  0.00    +0.000 A 
BRANCH  12  14
ATOM     14  O   UNL     1      45.833   4.139   7.123  0.00  0.00    +0.000 OA
BRANCH  14  15
ATOM     15  C   UNL     1      46.498   2.992   6.617  0.00  0.00    +0.000 C 
ATOM     16  F   UNL     1      46.854   3.207   5.325  0.00  0.00    +0.000 F 
ATOM     17  F   UNL     1      47.653   2.854   7.316  0.00  0.00    +0.000 F 
ENDBRANCH  14  15
ENDBRANCH  12  14
ENDBRANCH   6   8
BRANCH   1  18
ATOM     18  C   UNL     1      48.869   7.473  13.389  0.00  0.00    +0.000 C 
BRANCH  18  24
ATOM     19  C   UNL     1      48.097   4.928  16.790  0.00  0.00    +0.000 A 
ATOM     20  C   UNL     1      48.164   5.496  18.055  0.00  0.00    +0.000 A 
ATOM     21  C   UNL     1      48.461   6.841  18.125  0.00  0.00    +0.000 A 
ATOM     22  N   UNL     1      48.681   7.622  17.042  0.00  0.00    +0.000 NA
ATOM     23  C   UNL     1      48.635   7.060  15.821  0.00  0.00    +0.000 A 
ATOM     24  N   UNL     1      48.878   7.900  14.765  0.00  0.00    +0.000 N 
ATOM     25  C   UNL     1      48.356   5.710  15.664  0.00  0.00    +0.000 A 
ATOM     26  H   UNL     1      49.025   8.870  15.009  0.00  0.00    +0.000 HD
BRANCH  19  28
ATOM     27  N   UNL     1      46.955   2.900  17.493  0.00  0.00    +0.000 N 
ATOM     28  C   UNL     1      47.767   3.499  16.573  0.00  0.00    +0.000 C 
ATOM     29  O   UNL     1      48.158   2.896  15.585  0.00  0.00    +0.000 OA
ATOM     30  H   UNL     1      46.629   1.974  17.250  0.00  0.00    +0.000 HD
ATOM     31  H   UNL     1      46.400   3.430  18.149  0.00  0.00    +0.000 HD
ENDBRANCH  19  28
ENDBRANCH  18  24
ENDBRANCH   1  18
TORSDOF 6
ENDMDL
MODEL 2
REMARK VINA RESULT:    -7.905      1.652      1.994
REMARK INTER + INTRA:         -11.990
REMARK INTER:                 -10.794
REMARK INTRA:                  -1.196
REMARK UNBOUND:                -1.312
REMARK  Name = 
REMARK  6 active torsions:
REMARK  status: ('A' for Active; 'I' for Inactive)
REMARK    1  A    between atoms: C_2  and  C_4
REMARK    2  A    between atoms: N_9  and  C_10
REMARK    3  A    between atoms: C_10  and  C_11
REMARK    4  A    between atoms: C_16  and  C_17
REMARK    5  A    between atoms: C_21  and  O_22
REMARK    6  A    between atoms: O_22  and  C_23
REMARK                            x       y       z     vdW  Elec       q    Type
REMARK                         _______ _______ _______ _____ _____    ______ ____
ROOT
ATOM      1  C   UNL     1      47.799   7.214  13.840  0.00  0.00    +0.000 A 
ATOM      2  C   UNL     1      47.552   8.480  13.301  0.00  0.00    +0.000 A 
ATOM      3  C   UNL     1      46.536   8.648  12.365  0.00  0.00    +0.000 A 
ATOM      4  C   UNL     1      45.756   7.559  11.975  0.00  0.00    +0.000 A 
ATOM      5  F   UNL     1      44.787   7.791  11.074  0.00  0.00    +0.000 F 
ATOM      6  C   UNL     1      45.959   6.268  12.492  0.00  0.00    +0.000 A 
ATOM      7  C   UNL     1      46.994   6.132  13.441  0.00  0.00    +0.000 A 
ENDROOT
BRANCH   6   8
ATOM      8  C   UNL     1      45.177   5.085  12.054  0.00  0.00    +0.000 A 
ATOM      9  C   UNL     1      44.398   4.336  12.951  0.00  0.00    +0.000 A 
ATOM     10  C   UNL     1      43.622   3.256  12.521  0.00  0.00    +0.000 A 
ATOM     11  C   UNL     1      43.577   2.913  11.170  0.00  0.00    +0.000 A 
ATOM     12  C   UNL     1      44.321   3.648  10.252  0.00  0.00    +0.000 A 
ATOM     13  C   UNL     1      45.138   4.693  10.701  0.00  0.00    +0.000 A 
BRANCH  12  14
ATOM     14  O   UNL     1      44.356   3.427   8.903  0.00  0.00    +0.000 OA
BRANCH  14  15
ATOM     15  C   UNL     1      45.650   3.336   8.330  0.00  0.00    +0.000 C 
ATOM     16  F   UNL     1      46.103   2.061   8.430  0.00  0.00    +0.000 F 
ATOM     17  F   UNL     1      45.524   3.597   7.004  0.00  0.00    +0.000 F 
ENDBRANCH  14  15
ENDBRANCH  12  14
ENDBRANCH   6   8
BRANCH   1  18
ATOM     18  C   UNL     1      48.930   6.993  14.813  0.00  0.00    +0.000 C 
BRANCH  18  24
ATOM     19  C   UNL     1      49.198   3.619  17.493  0.00  0.00    +0.000 A 
ATOM     20  C   UNL     1      48.702   3.771  18.781  0.00  0.00    +0.000 A 
ATOM     21  C   UNL     1      48.148   4.993  19.101  0.00  0.00    +0.000 A 
ATOM     22  N   UNL     1      48.059   6.031  18.235  0.00  0.00    +0.000 NA
ATOM     23  C   UNL     1      48.560   5.882  16.996  0.00  0.00    +0.000 A 
ATOM     24  N   UNL     1      48.451   6.971  16.171  0.00  0.00    +0.000 N 
ATOM     25  C   UNL     1      49.146   4.689  16.599  0.00  0.00    +0.000 A 
ATOM     26  H   UNL     1      47.964   7.765  16.564  0.00  0.00    +0.000 HD
BRANCH  19  28
ATOM     27  N   UNL     1      50.803   1.815  17.770  0.00  0.00    +0.000 N 
ATOM     28  C   UNL     1      49.800   2.351  17.015  0.00  0.00    +0.000 C 
ATOM     29  O   UNL     1      49.379   1.780  16.021  0.00  0.00    +0.000 OA
ATOM     30  H   UNL     1      51.098   0.883  17.506  0.00  0.00    +0.000 HD
ATOM     31  H   UNL     1      50.976   2.103  18.722  0.00  0.00    +0.000 HD
ENDBRANCH  19  28
ENDBRANCH  18  24
ENDBRANCH   1  18
TORSDOF 6
ENDMDL
MODEL 3
REMARK VINA RESULT:    -7.627      1.984      2.691
REMARK INTER + INTRA:         -11.614
REMARK INTER:                 -10.336
REMARK INTRA:                  -1.278
REMARK UNBOUND:                -1.312
REMARK  Name = 
REMARK  6 active torsions:
REMARK  status: ('A' for Active; 'I' for Inactive)
REMARK    1  A    between atoms: C_2  and  C_4
REMARK    2  A    between atoms: N_9  and  C_10
REMARK    3  A    between atoms: C_10  and  C_11
REMARK    4  A    between atoms: C_16  and  C_17
REMARK    5  A    between atoms: C_21  and  O_22
REMARK    6  A    between atoms: O_22  and  C_23
REMARK                            x       y       z     vdW  Elec       q    Type
REMARK                         _______ _______ _______ _____ _____    ______ ____
ROOT
ATOM      1  C   UNL     1      47.470   7.821  12.303  0.00  0.00    +0.000 A 
ATOM      2  C   UNL     1      46.528   8.828  12.532  0.00  0.00    +0.000 A 
ATOM      3  C   UNL     1      45.206   8.642  12.141  0.00  0.00    +0.000 A 
ATOM      4  C   UNL     1      44.817   7.448  11.532  0.00  0.00    +0.000 A 
ATOM      5  F   UNL     1      43.525   7.330  11.185  0.00  0.00    +0.000 F 
ATOM      6  C   UNL     1      45.723   6.403  11.286  0.00  0.00    +0.000 A 
ATOM      7  C   UNL     1      47.055   6.621  11.697  0.00  0.00    +0.000 A 
ENDROOT
BRANCH   6   8
ATOM      8  C   UNL     1      45.345   5.146  10.593  0.00  0.00    +0.000 A 
ATOM      9  C   UNL     1      44.651   4.116  11.249  0.00  0.00    +0.000 A 
ATOM     10  C   UNL     1      44.250   2.959  10.575  0.00  0.00    +0.000 A 
ATOM     11  C   UNL     1      44.506   2.812   9.212  0.00  0.00    +0.000 A 
ATOM     12  C   UNL     1      45.175   3.822   8.528  0.00  0.00    +0.000 A 
ATOM     13  C   UNL     1      45.620   4.952   9.224  0.00  0.00    +0.000 A 
BRANCH  12  14
ATOM     14  O   UNL     1      45.475   3.810   7.194  0.00  0.00    +0.000 OA
BRANCH  14  15
ATOM     15  C   UNL     1      46.824   3.510   6.872  0.00  0.00    +0.000 C 
ATOM     16  F   UNL     1      47.205   2.379   7.518  0.00  0.00    +0.000 F 
ATOM     17  F   UNL     1      46.869   3.229   5.545  0.00  0.00    +0.000 F 
ENDBRANCH  14  15
ENDBRANCH  12  14
ENDBRANCH   6   8
BRANCH   1  18
ATOM     18  C   UNL     1      48.921   8.019  12.665  0.00  0.00    +0.000 C 
BRANCH  18  24
ATOM     19  C   UNL     1      48.591   8.365  16.955  0.00  0.00    +0.000 A 
ATOM     20  C   UNL     1      49.047   7.307  17.730  0.00  0.00    +0.000 A 
ATOM     21  C   UNL     1      49.586   6.226  17.063  0.00  0.00    +0.000 A 
ATOM     22  N   UNL     1      49.695   6.150  15.715  0.00  0.00    +0.000 NA
ATOM     23  C   UNL     1      49.231   7.170  14.972  0.00  0.00    +0.000 A 
ATOM     24  N   UNL     1      49.359   7.028  13.614  0.00  0.00    +0.000 N 
ATOM     25  C   UNL     1      48.663   8.288  15.564  0.00  0.00    +0.000 A 
ATOM     26  H   UNL     1      49.830   6.188  13.310  0.00  0.00    +0.000 HD
BRANCH  19  28
ATOM     27  N   UNL     1      48.134  10.750  16.833  0.00  0.00    +0.000 N 
ATOM     28  C   UNL     1      48.009   9.594  17.548  0.00  0.00    +0.000 C 
ATOM     29  O   UNL     1      47.394   9.564  18.602  0.00  0.00    +0.000 OA
ATOM     30  H   UNL     1      47.608  11.540  17.184  0.00  0.00    +0.000 HD
ATOM     31  H   UNL     1      48.379  10.755  15.853  0.00  0.00    +0.000 HD
ENDBRANCH  19  28
ENDBRANCH  18  24
ENDBRANCH   1  18
TORSDOF 6
ENDMDL
MODEL 4
REMARK VINA RESULT:    -7.258      3.260      4.750
REMARK INTER + INTRA:         -11.116
REMARK INTER:                  -9.861
REMARK INTRA:                  -1.256
REMARK UNBOUND:                -1.312
REMARK  Name = 
REMARK  6 active torsions:
REMARK  status: ('A' for Active; 'I' for Inactive)
REMARK    1  A    between atoms: C_2  and  C_4
REMARK    2  A    between atoms: N_9  and  C_10
REMARK    3  A    between atoms: C_10  and  C_11
REMARK    4  A    between atoms: C_16  and  C_17
REMARK    5  A    between atoms: C_21  and  O_22
REMARK    6  A    between atoms: O_22  and  C_23
REMARK                            x       y       z     vdW  Elec       q    Type
REMARK                         _______ _______ _______ _____ _____    ______ ____
ROOT
ATOM      1  C   UNL     1      47.502   7.641  12.639  0.00  0.00    +0.000 A 
ATOM      2  C   UNL     1      46.642   8.737  12.753  0.00  0.00    +0.000 A 
ATOM      3  C   UNL     1      45.355   8.664  12.228  0.00  0.00    +0.000 A 
ATOM      4  C   UNL     1      44.919   7.497  11.599  0.00  0.00    +0.000 A 
ATOM      5  F   UNL     1      43.665   7.491  11.121  0.00  0.00    +0.000 F 
ATOM      6  C   UNL     1      45.743   6.366  11.465  0.00  0.00    +0.000 A 
ATOM      7  C   UNL     1      47.040   6.471  12.010  0.00  0.00    +0.000 A 
ENDROOT
BRANCH   6   8
ATOM      8  C   UNL     1      45.321   5.133  10.756  0.00  0.00    +0.000 A 
ATOM      9  C   UNL     1      44.575   4.128  11.393  0.00  0.00    +0.000 A 
ATOM     10  C   UNL     1      44.135   2.995  10.702  0.00  0.00    +0.000 A 
ATOM     11  C   UNL     1      44.401   2.850   9.342  0.00  0.00    +0.000 A 
ATOM     12  C   UNL     1      45.121   3.837   8.676  0.00  0.00    +0.000 A 
ATOM     13  C   UNL     1      45.604   4.941   9.389  0.00  0.00    +0.000 A 
BRANCH  12  14
ATOM     14  O   UNL     1      45.437   3.825   7.345  0.00  0.00    +0.000 OA
BRANCH  14  15
ATOM     15  C   UNL     1      46.718   3.307   7.025  0.00  0.00    +0.000 C 
ATOM     16  F   UNL     1      46.776   1.995   7.364  0.00  0.00    +0.000 F 
ATOM     17  F   UNL     1      46.849   3.362   5.674  0.00  0.00    +0.000 F 
ENDBRANCH  14  15
ENDBRANCH  12  14
ENDBRANCH   6   8
BRANCH   1  18
ATOM     18  C   UNL     1      48.920   7.713  13.147  0.00  0.00    +0.000 C 
BRANCH  18  24
ATOM     19  C   UNL     1      52.107   8.092  10.259  0.00  0.00    +0.000 A 
ATOM     20  C   UNL     1      52.590   9.365   9.988  0.00  0.00    +0.000 A 
ATOM     21  C   UNL     1      52.018  10.414  10.677  0.00  0.00    +0.000 A 
ATOM     22  N   UNL     1      51.032  10.267  11.593  0.00  0.00    +0.000 NA
ATOM     23  C   UNL     1      50.555   9.033  11.834  0.00  0.00    +0.000 A 
ATOM     24  N   UNL     1      49.549   8.950  12.762  0.00  0.00    +0.000 N 
ATOM     25  C   UNL     1      51.066   7.925  11.174  0.00  0.00    +0.000 A 
ATOM     26  H   UNL     1      49.296   9.823  13.205  0.00  0.00    +0.000 HD
BRANCH  19  28
ATOM     27  N   UNL     1      53.180   5.916  10.412  0.00  0.00    +0.000 N 
ATOM     28  C   UNL     1      52.647   6.877   9.603  0.00  0.00    +0.000 C 
ATOM     29  O   UNL     1      52.568   6.716   8.395  0.00  0.00    +0.000 OA
ATOM     30  H   UNL     1      53.409   5.041   9.960  0.00  0.00    +0.000 HD
ATOM     31  H   UNL     1      53.008   5.892  11.407  0.00  0.00    +0.000 HD
ENDBRANCH  19  28
ENDBRANCH  18  24
ENDBRANCH   1  18
TORSDOF 6
ENDMDL
MODEL 5
REMARK VINA RESULT:    -7.113      1.700      2.405
REMARK INTER + INTRA:         -10.921
REMARK INTER:                  -9.838
REMARK INTRA:                  -1.083
REMARK UNBOUND:                -1.312
REMARK  Name = 
REMARK  6 active torsions:
REMARK  status: ('A' for Active; 'I' for Inactive)
REMARK    1  A    between atoms: C_2  and  C_4
REMARK    2  A    between atoms: N_9  and  C_10
REMARK    3  A    between atoms: C_10  and  C_11
REMARK    4  A    between atoms: C_16  and  C_17
REMARK    5  A    between atoms: C_21  and  O_22
REMARK    6  A    between atoms: O_22  and  C_23
REMARK                            x       y       z     vdW  Elec       q    Type
REMARK                         _______ _______ _______ _____ _____    ______ ____
ROOT
ATOM      1  C   UNL     1      47.072   7.376  13.336  0.00  0.00    +0.000 A 
ATOM      2  C   UNL     1      46.324   8.555  13.277  0.00  0.00    +0.000 A 
ATOM      3  C   UNL     1      45.240   8.645  12.408  0.00  0.00    +0.000 A 
ATOM      4  C   UNL     1      44.892   7.556  11.607  0.00  0.00    +0.000 A 
ATOM      5  F   UNL     1      43.832   7.706  10.796  0.00  0.00    +0.000 F 
ATOM      6  C   UNL     1      45.608   6.347  11.635  0.00  0.00    +0.000 A 
ATOM      7  C   UNL     1      46.698   6.287  12.527  0.00  0.00    +0.000 A 
ENDROOT
BRANCH   6   8
ATOM      8  C   UNL     1      45.290   5.194  10.755  0.00  0.00    +0.000 A 
ATOM      9  C   UNL     1      44.443   4.153  11.172  0.00  0.00    +0.000 A 
ATOM     10  C   UNL     1      44.105   3.099  10.318  0.00  0.00    +0.000 A 
ATOM     11  C   UNL     1      44.580   3.073   9.008  0.00  0.00    +0.000 A 
ATOM     12  C   UNL     1      45.405   4.099   8.557  0.00  0.00    +0.000 A 
ATOM     13  C   UNL     1      45.782   5.121   9.437  0.00  0.00    +0.000 A 
BRANCH  12  14
ATOM     14  O   UNL     1      45.926   4.201   7.297  0.00  0.00    +0.000 OA
BRANCH  14  15
ATOM     15  C   UNL     1      46.465   3.005   6.758  0.00  0.00    +0.000 C 
ATOM     16  F   UNL     1      46.657   3.153   5.423  0.00  0.00    +0.000 F 
ATOM     17  F   UNL     1      47.695   2.834   7.307  0.00  0.00    +0.000 F 
ENDBRANCH  14  15
ENDBRANCH  12  14
ENDBRANCH   6   8
BRANCH   1  18
ATOM     18  C   UNL     1      48.285   7.271  14.226  0.00  0.00    +0.000 C 
BRANCH  18  24
ATOM     19  C   UNL     1      49.283   6.624  18.376  0.00  0.00    +0.000 A 
ATOM     20  C   UNL     1      49.276   5.319  18.850  0.00  0.00    +0.000 A 
ATOM     21  C   UNL     1      48.961   4.324  17.949  0.00  0.00    +0.000 A 
ATOM     22  N   UNL     1      48.669   4.552  16.646  0.00  0.00    +0.000 NA
ATOM     23  C   UNL     1      48.658   5.821  16.200  0.00  0.00    +0.000 A 
ATOM     24  N   UNL     1      48.344   5.987  14.876  0.00  0.00    +0.000 N 
ATOM     25  C   UNL     1      48.950   6.880  17.046  0.00  0.00    +0.000 A 
ATOM     26  H   UNL     1      48.194   5.133  14.356  0.00  0.00    +0.000 HD
BRANCH  19  28
ATOM     27  N   UNL     1      50.825   8.391  19.015  0.00  0.00    +0.000 N 
ATOM     28  C   UNL     1      49.623   7.783  19.236  0.00  0.00    +0.000 C 
ATOM     29  O   UNL     1      48.839   8.213  20.068  0.00  0.00    +0.000 OA
ATOM     30  H   UNL     1      50.973   9.261  19.511  0.00  0.00    +0.000 HD
ATOM     31  H   UNL     1      51.357   8.244  18.170  0.00  0.00    +0.000 HD
ENDBRANCH  19  28
ENDBRANCH  18  24
ENDBRANCH   1  18
TORSDOF 6
ENDMDL
MODEL 6
REMARK VINA RESULT:    -6.815      2.510      3.724
REMARK INTER + INTRA:         -10.518
REMARK INTER:                  -9.221
REMARK INTRA:                  -1.297
REMARK UNBOUND:                -1.312
REMARK  Name = 
REMARK  6 active torsions:
REMARK  status: ('A' for Active; 'I' for Inactive)
REMARK    1  A    between atoms: C_2  and  C_4
REMARK    2  A    between atoms: N_9  and  C_10
REMARK    3  A    between atoms: C_10  and  C_11
REMARK    4  A    between atoms: C_16  and  C_17
REMARK    5  A    between atoms: C_21  and  O_22
REMARK    6  A    between atoms: O_22  and  C_23
REMARK                            x       y       z     vdW  Elec       q    Type
REMARK                         _______ _______ _______ _____ _____    ______ ____
ROOT
ATOM      1  C   UNL     1      49.536   8.073  14.877  0.00  0.00    +0.000 A 
ATOM      2  C   UNL     1      50.592   8.296  13.990  0.00  0.00    +0.000 A 
ATOM      3  C   UNL     1      50.398   8.119  12.623  0.00  0.00    +0.000 A 
ATOM      4  C   UNL     1      49.149   7.732  12.137  0.00  0.00    +0.000 A 
ATOM      5  F   UNL     1      49.027   7.586  10.808  0.00  0.00    +0.000 F 
ATOM      6  C   UNL     1      48.053   7.503  12.987  0.00  0.00    +0.000 A 
ATOM      7  C   UNL     1      48.281   7.693  14.366  0.00  0.00    +0.000 A 
ENDROOT
BRANCH   6   8
ATOM      8  C   UNL     1      46.729   7.041  12.500  0.00  0.00    +0.000 A 
ATOM      9  C   UNL     1      45.785   7.929  11.960  0.00  0.00    +0.000 A 
ATOM     10  C   UNL     1      44.562   7.479  11.453  0.00  0.00    +0.000 A 
ATOM     11  C   UNL     1      44.262   6.118  11.440  0.00  0.00    +0.000 A 
ATOM     12  C   UNL     1      45.184   5.208  11.950  0.00  0.00    +0.000 A 
ATOM     13  C   UNL     1      46.382   5.675  12.505  0.00  0.00    +0.000 A 
BRANCH  12  14
ATOM     14  O   UNL     1      45.022   3.851  11.985  0.00  0.00    +0.000 OA
BRANCH  14  15
ATOM     15  C   UNL     1      44.348   3.285  10.873  0.00  0.00    +0.000 C 
ATOM     16  F   UNL     1      45.214   2.528  10.153  0.00  0.00    +0.000 F 
ATOM     17  F   UNL     1      43.408   2.436  11.360  0.00  0.00    +0.000 F 
ENDBRANCH  14  15
ENDBRANCH  12  14
ENDBRANCH   6   8
BRANCH   1  18
ATOM     18  C   UNL     1      49.733   8.202  16.367  0.00  0.00    +0.000 C 
BRANCH  18  24
ATOM     19  C   UNL     1      48.709   4.066  17.063  0.00  0.00    +0.000 A 
ATOM     20  C   UNL     1      49.707   3.219  17.524  0.00  0.00    +0.000 A 
ATOM     21  C   UNL     1      50.953   3.771  17.738  0.00  0.00    +0.000 A 
ATOM     22  N   UNL     1      51.244   5.077  17.529  0.00  0.00    +0.000 NA
ATOM     23  C   UNL     1      50.277   5.887  17.062  0.00  0.00    +0.000 A 
ATOM     24  N   UNL     1      50.637   7.194  16.860  0.00  0.00    +0.000 N 
ATOM     25  C   UNL     1      49.001   5.407  16.809  0.00  0.00    +0.000 A 
ATOM     26  H   UNL     1      51.584   7.428  17.125  0.00  0.00    +0.000 HD
BRANCH  19  28
ATOM     27  N   UNL     1      46.743   3.982  15.636  0.00  0.00    +0.000 N 
ATOM     28  C   UNL     1      47.323   3.604  16.812  0.00  0.00    +0.000 C 
ATOM     29  O   UNL     1      46.745   2.867  17.596  0.00  0.00    +0.000 OA
ATOM     30  H   UNL     1      45.858   3.540  15.423  0.00  0.00    +0.000 HD
ATOM     31  H   UNL     1      47.279   4.343  14.861  0.00  0.00    +0.000 HD
ENDBRANCH  19  28
ENDBRANCH  18  24
ENDBRANCH   1  18
TORSDOF 6
ENDMDL
MODEL 7
REMARK VINA RESULT:    -6.429      2.103      2.648
REMARK INTER + INTRA:          -9.996
REMARK INTER:                  -9.335
REMARK INTRA:                  -0.661
REMARK UNBOUND:                -1.312
REMARK  Name = 
REMARK  6 active torsions:
REMARK  status: ('A' for Active; 'I' for Inactive)
REMARK    1  A    between atoms: C_2  and  C_4
REMARK    2  A    between atoms: N_9  and  C_10
REMARK    3  A    between atoms: C_10  and  C_11
REMARK    4  A    between atoms: C_16  and  C_17
REMARK    5  A    between atoms: C_21  and  O_22
REMARK    6  A    between atoms: O_22  and  C_23
REMARK                            x       y       z     vdW  Elec       q    Type
REMARK                         _______ _______ _______ _____ _____    ______ ____
ROOT
ATOM      1  C   UNL     1      48.449   7.560  14.191  0.00  0.00    +0.000 A 
ATOM      2  C   UNL     1      49.231   8.078  13.155  0.00  0.00    +0.000 A 
ATOM      3  C   UNL     1      48.895   7.808  11.832  0.00  0.00    +0.000 A 
ATOM      4  C   UNL     1      47.773   7.032  11.539  0.00  0.00    +0.000 A 
ATOM      5  F   UNL     1      47.500   6.814  10.242  0.00  0.00    +0.000 F 
ATOM      6  C   UNL     1      46.950   6.494  12.544  0.00  0.00    +0.000 A 
ATOM      7  C   UNL     1      47.317   6.788  13.874  0.00  0.00    +0.000 A 
ENDROOT
BRANCH   6   8
ATOM      8  C   UNL     1      45.783   5.623  12.259  0.00  0.00    +0.000 A 
ATOM      9  C   UNL     1      44.967   5.115  13.283  0.00  0.00    +0.000 A 
ATOM     10  C   UNL     1      43.837   4.341  13.003  0.00  0.00    +0.000 A 
ATOM     11  C   UNL     1      43.472   4.078  11.684  0.00  0.00    +0.000 A 
ATOM     12  C   UNL     1      44.248   4.582  10.645  0.00  0.00    +0.000 A 
ATOM     13  C   UNL     1      45.408   5.310  10.937  0.00  0.00    +0.000 A 
BRANCH  12  14
ATOM     14  O   UNL     1      43.994   4.411   9.312  0.00  0.00    +0.000 OA
BRANCH  14  15
ATOM     15  C   UNL     1      45.002   3.733   8.579  0.00  0.00    +0.000 C 
ATOM     16  F   UNL     1      44.462   3.187   7.460  0.00  0.00    +0.000 F 
ATOM     17  F   UNL     1      45.893   4.667   8.159  0.00  0.00    +0.000 F 
ENDBRANCH  14  15
ENDBRANCH  12  14
ENDBRANCH   6   8
BRANCH   1  18
ATOM     18  C   UNL     1      48.823   7.790  15.634  0.00  0.00    +0.000 C 
BRANCH  18  24
ATOM     19  C   UNL     1      49.402   4.073  17.753  0.00  0.00    +0.000 A 
ATOM     20  C   UNL     1      50.704   3.633  17.950  0.00  0.00    +0.000 A 
ATOM     21  C   UNL     1      51.717   4.431  17.461  0.00  0.00    +0.000 A 
ATOM     22  N   UNL     1      51.510   5.603  16.815  0.00  0.00    +0.000 NA
ATOM     23  C   UNL     1      50.245   6.011  16.610  0.00  0.00    +0.000 A 
ATOM     24  N   UNL     1      50.100   7.198  15.941  0.00  0.00    +0.000 N 
ATOM     25  C   UNL     1      49.169   5.261  17.059  0.00  0.00    +0.000 A 
ATOM     26  H   UNL     1      50.962   7.671  15.706  0.00  0.00    +0.000 HD
BRANCH  19  28
ATOM     27  N   UNL     1      48.227   2.947  19.559  0.00  0.00    +0.000 N 
ATOM     28  C   UNL     1      48.223   3.321  18.247  0.00  0.00    +0.000 C 
ATOM     29  O   UNL     1      47.263   3.096  17.526  0.00  0.00    +0.000 OA
ATOM     30  H   UNL     1      47.357   2.565  19.908  0.00  0.00    +0.000 HD
ATOM     31  H   UNL     1      48.858   3.354  20.235  0.00  0.00    +0.000 HD
ENDBRANCH  19  28
ENDBRANCH  18  24
ENDBRANCH   1  18
TORSDOF 6
ENDMDL
MODEL 8
REMARK VINA RESULT:    -6.326      3.249      4.802
REMARK INTER + INTRA:          -9.857
REMARK INTER:                  -8.600
REMARK INTRA:                  -1.257
REMARK UNBOUND:                -1.312
REMARK  Name = 
REMARK  6 active torsions:
REMARK  status: ('A' for Active; 'I' for Inactive)
REMARK    1  A    between atoms: C_2  and  C_4
REMARK    2  A    between atoms: N_9  and  C_10
REMARK    3  A    between atoms: C_10  and  C_11
REMARK    4  A    between atoms: C_16  and  C_17
REMARK    5  A    between atoms: C_21  and  O_22
REMARK    6  A    between atoms: O_22  and  C_23
REMARK                            x       y       z     vdW  Elec       q    Type
REMARK                         _______ _______ _______ _____ _____    ______ ____
ROOT
ATOM      1  C   UNL     1      49.723   7.132  15.839  0.00  0.00    +0.000 A 
ATOM      2  C   UNL     1      50.876   7.625  15.223  0.00  0.00    +0.000 A 
ATOM      3  C   UNL     1      50.832   8.025  13.890  0.00  0.00    +0.000 A 
ATOM      4  C   UNL     1      49.637   7.944  13.174  0.00  0.00    +0.000 A 
ATOM      5  F   UNL     1      49.662   8.352  11.895  0.00  0.00    +0.000 F 
ATOM      6  C   UNL     1      48.449   7.462  13.750  0.00  0.00    +0.000 A 
ATOM      7  C   UNL     1      48.527   7.068  15.102  0.00  0.00    +0.000 A 
ENDROOT
BRANCH   6   8
ATOM      8  C   UNL     1      47.180   7.318  12.994  0.00  0.00    +0.000 A 
ATOM      9  C   UNL     1      46.350   8.417  12.720  0.00  0.00    +0.000 A 
ATOM     10  C   UNL     1      45.184   8.283  11.961  0.00  0.00    +0.000 A 
ATOM     11  C   UNL     1      44.831   7.046  11.424  0.00  0.00    +0.000 A 
ATOM     12  C   UNL     1      45.642   5.940  11.660  0.00  0.00    +0.000 A 
ATOM     13  C   UNL     1      46.778   6.074  12.468  0.00  0.00    +0.000 A 
BRANCH  12  14
ATOM     14  O   UNL     1      45.419   4.678  11.183  0.00  0.00    +0.000 OA
BRANCH  14  15
ATOM     15  C   UNL     1      45.085   3.704  12.159  0.00  0.00    +0.000 C 
ATOM     16  F   UNL     1      44.203   4.232  13.045  0.00  0.00    +0.000 F 
ATOM     17  F   UNL     1      44.433   2.699  11.520  0.00  0.00    +0.000 F 
ENDBRANCH  14  15
ENDBRANCH  12  14
ENDBRANCH   6   8
BRANCH   1  18
ATOM     18  C   UNL     1      49.756   6.639  17.264  0.00  0.00    +0.000 C 
BRANCH  18  24
ATOM     19  C   UNL     1      51.822   2.865  17.624  0.00  0.00    +0.000 A 
ATOM     20  C   UNL     1      53.137   2.884  18.070  0.00  0.00    +0.000 A 
ATOM     21  C   UNL     1      53.679   4.115  18.376  0.00  0.00    +0.000 A 
ATOM     22  N   UNL     1      53.003   5.284  18.272  0.00  0.00    +0.000 NA
ATOM     23  C   UNL     1      51.737   5.259  17.820  0.00  0.00    +0.000 A 
ATOM     24  N   UNL     1      51.111   6.474  17.726  0.00  0.00    +0.000 N 
ATOM     25  C   UNL     1      51.123   4.063  17.477  0.00  0.00    +0.000 A 
ATOM     26  H   UNL     1      51.651   7.265  18.048  0.00  0.00    +0.000 HD
BRANCH  19  28
ATOM     27  N   UNL     1      51.492   0.479  17.947  0.00  0.00    +0.000 N 
ATOM     28  C   UNL     1      51.115   1.609  17.280  0.00  0.00    +0.000 C 
ATOM     29  O   UNL     1      50.195   1.593  16.477  0.00  0.00    +0.000 OA
ATOM     30  H   UNL     1      50.903  -0.331  17.802  0.00  0.00    +0.000 HD
ATOM     31  H   UNL     1      52.037   0.509  18.796  0.00  0.00    +0.000 HD
ENDBRANCH  19  28
ENDBRANCH  18  24
ENDBRANCH   1  18
TORSDOF 6
ENDMDL
MODEL 9
REMARK VINA RESULT:    -6.277      2.491      2.961
REMARK INTER + INTRA:          -9.792
REMARK INTER:                  -8.805
REMARK INTRA:                  -0.987
REMARK UNBOUND:                -1.312
REMARK  Name = 
REMARK  6 active torsions:
REMARK  status: ('A' for Active; 'I' for Inactive)
REMARK    1  A    between atoms: C_2  and  C_4
REMARK    2  A    between atoms: N_9  and  C_10
REMARK    3  A    between atoms: C_10  and  C_11
REMARK    4  A    between atoms: C_16  and  C_17
REMARK    5  A    between atoms: C_21  and  O_22
REMARK    6  A    between atoms: O_22  and  C_23
REMARK                            x       y       z     vdW  Elec       q    Type
REMARK                         _______ _______ _______ _____ _____    ______ ____
ROOT
ATOM      1  C   UNL     1      47.304   7.466  13.723  0.00  0.00    +0.000 A 
ATOM      2  C   UNL     1      46.800   8.684  13.259  0.00  0.00    +0.000 A 
ATOM      3  C   UNL     1      45.713   8.697  12.389  0.00  0.00    +0.000 A 
ATOM      4  C   UNL     1      45.120   7.499  11.990  0.00  0.00    +0.000 A 
ATOM      5  F   UNL     1      44.072   7.583  11.156  0.00  0.00    +0.000 F 
ATOM      6  C   UNL     1      45.585   6.249  12.434  0.00  0.00    +0.000 A 
ATOM      7  C   UNL     1      46.686   6.270  13.316  0.00  0.00    +0.000 A 
ENDROOT
BRANCH   6   8
ATOM      8  C   UNL     1      45.005   4.960  11.983  0.00  0.00    +0.000 A 
ATOM      9  C   UNL     1      43.946   4.341  12.669  0.00  0.00    +0.000 A 
ATOM     10  C   UNL     1      43.369   3.155  12.207  0.00  0.00    +0.000 A 
ATOM     11  C   UNL     1      43.814   2.568  11.023  0.00  0.00    +0.000 A 
ATOM     12  C   UNL     1      44.848   3.165  10.309  0.00  0.00    +0.000 A 
ATOM     13  C   UNL     1      45.456   4.323  10.809  0.00  0.00    +0.000 A 
BRANCH  12  14
ATOM     14  O   UNL     1      45.368   2.703   9.132  0.00  0.00    +0.000 OA
BRANCH  14  15
ATOM     15  C   UNL     1      44.887   3.338   7.958  0.00  0.00    +0.000 C 
ATOM     16  F   UNL     1      44.015   4.322   8.298  0.00  0.00    +0.000 F 
ATOM     17  F   UNL     1      45.945   3.950   7.368  0.00  0.00    +0.000 F 
ENDBRANCH  14  15
ENDBRANCH  12  14
ENDBRANCH   6   8
BRANCH   1  18
ATOM     18  C   UNL     1      48.515   7.420  14.620  0.00  0.00    +0.000 C 
BRANCH  18  24
ATOM     19  C   UNL     1      51.621   5.716  17.088  0.00  0.00    +0.000 A 
ATOM     20  C   UNL     1      51.237   4.904  18.147  0.00  0.00    +0.000 A 
ATOM     21  C   UNL     1      49.885   4.694  18.321  0.00  0.00    +0.000 A 
ATOM     22  N   UNL     1      48.931   5.226  17.520  0.00  0.00    +0.000 NA
ATOM     23  C   UNL     1      49.310   6.028  16.510  0.00  0.00    +0.000 A 
ATOM     24  N   UNL     1      48.297   6.544  15.743  0.00  0.00    +0.000 N 
ATOM     25  C   UNL     1      50.649   6.300  16.275  0.00  0.00    +0.000 A 
ATOM     26  H   UNL     1      47.367   6.235  15.989  0.00  0.00    +0.000 HD
BRANCH  19  28
ATOM     27  N   UNL     1      53.302   6.695  15.632  0.00  0.00    +0.000 N 
ATOM     28  C   UNL     1      53.042   6.006  16.780  0.00  0.00    +0.000 C 
ATOM     29  O   UNL     1      53.938   5.692  17.549  0.00  0.00    +0.000 OA
ATOM     30  H   UNL     1      54.259   7.005  15.515  0.00  0.00    +0.000 HD
ATOM     31  H   UNL     1      52.586   7.203  15.132  0.00  0.00    +0.000 HD
ENDBRANCH  19  28
ENDBRANCH  18  24
ENDBRANCH   1  18
TORSDOF 6
ENDMDL
