MODEL 1
REMARK VINA RESULT:    -8.167      0.000      0.000
REMARK INTER + INTRA:         -11.883
REMARK INTER:                 -11.031
REMARK INTRA:                  -0.852
REMARK UNBOUND:                -0.852
REMARK  Name = 
REMARK  7 active torsions:
REMARK  status: ('A' for Active; 'I' for Inactive)
REMARK    1  A    between atoms: C_1  and  N_2
REMARK    2  A    between atoms: N_2  and  C_3
REMARK    3  A    between atoms: C_3  and  C_4
REMARK    4  A    between atoms: C_7  and  C_8
REMARK    5  A    between atoms: C_8  and  N_9
REMARK    6  A    between atoms: C_10  and  C_12
REMARK    7  A    between atoms: C_19  and  C_21
REMARK                            x       y       z     vdW  Elec       q    Type
REMARK                         _______ _______ _______ _____ _____    ______ ____
ROOT
ATOM      1  C   UNL     1      47.387   5.640  13.763  0.00  0.00    +0.000 A 
ATOM      2  C   UNL     1      48.167   6.266  14.746  0.00  0.00    +0.000 A 
ATOM      3  C   UNL     1      48.320   5.678  16.006  0.00  0.00    +0.000 A 
ATOM      4  C   UNL     1      47.703   4.454  16.289  0.00  0.00    +0.000 A 
ATOM      5  C   UNL     1      46.926   3.836  15.302  0.00  0.00    +0.000 A 
ATOM      6  C   UNL     1      46.767   4.420  14.046  0.00  0.00    +0.000 A 
ENDROOT
BRANCH   1   7
ATOM      7  C   UNL     1      47.189   6.274  12.417  0.00  0.00    +0.000 C 
BRANCH   7   9
ATOM      8  C   UNL     1      46.336   8.652  12.343  0.00  0.00    +0.000 C 
ATOM      9  N   UNL     1      46.081   7.221  12.260  0.00  0.00    +0.000 N 
ATOM     10  C   UNL     1      44.873   6.857  11.634  0.00  0.00    +0.000 C 
ATOM     11  O   UNL     1      44.084   7.707  11.228  0.00  0.00    +0.000 OA
BRANCH  10  12
ATOM     12  C   UNL     1      44.541   5.429  11.510  0.00  0.00    +0.000 A 
ATOM     13  C   UNL     1      43.793   4.721  12.435  0.00  0.00    +0.000 A 
ATOM     14  S   UNL     1      43.517   3.097  12.008  0.00  0.00    +0.000 S 
ATOM     15  C   UNL     1      44.288   3.314  10.512  0.00  0.00    +0.000 A 
ATOM     16  N   UNL     1      44.319   2.309   9.598  0.00  0.00    +0.000 NA
ATOM     17  C   UNL     1      44.893   2.625   8.489  0.00  0.00    +0.000 A 
ATOM     18  N   UNL     1      45.469   3.840   8.224  0.00  0.00    +0.000 N 
ATOM     19  C   UNL     1      45.580   4.844   9.162  0.00  0.00    +0.000 A 
ATOM     20  O   UNL     1      46.313   5.802   8.978  0.00  0.00    +0.000 OA
ATOM     21  C   UNL     1      44.832   4.576  10.386  0.00  0.00    +0.000 A 
ATOM     22  H   UNL     1      45.966   3.996   7.359  0.00  0.00    +0.000 HD
ENDBRANCH  10  12
ENDBRANCH   7   9
ENDBRANCH   1   7
BRANCH   4  23
ATOM     23  C   UNL     1      47.904   3.758  17.612  0.00  0.00    +0.000 C 
BRANCH  23  24
ATOM     24  N   UNL     1      49.263   3.363  17.866  0.00  0.00    +0.000 N 
ATOM     25  C   UNL     1      49.842   2.374  17.100  0.00  0.00    +0.000 C 
ATOM     26  O   UNL     1      49.239   1.764  16.221  0.00  0.00    +0.000 OA
ATOM     27  H   UNL     1      49.850   3.828  18.552  0.00  0.00    +0.000 HD
BRANCH  25  28
ATOM     28  C   UNL     1      51.245   2.119  17.422  0.00  0.00    +0.000 A 
ATOM     29  C   UNL     1      52.163   3.051  17.864  0.00  0.00    +0.000 A 
ATOM     30  N   UNL     1      53.331   2.365  18.035  0.00  0.00    +0.000 N 
ATOM     31  C   UNL     1      53.100   1.065  17.686  0.00  0.00    +0.000 A 
ATOM     32  N   UNL     1      51.851   0.874  17.322  0.00  0.00    +0.000 NA
ATOM     33  H   UNL     1      54.212   2.748  18.355  0.00  0.00    +0.000 HD
ENDBRANCH  25  28
ENDBRANCH  23  24
ENDBRANCH   4  23
TORSDOF 6
ENDMDL
MODEL 2
REMARK VINA RESULT:    -7.749      3.507      8.292
REMARK INTER + INTRA:         -11.319
REMARK INTER:                 -10.136
REMARK INTRA:                  -1.183
REMARK UNBOUND:                -0.852
REMARK  Name = 
REMARK  7 active torsions:
REMARK  status: ('A' for Active; 'I' for Inactive)
REMARK    1  A    between atoms: C_1  and  N_2
REMARK    2  A    between atoms: N_2  and  C_3
REMARK    3  A    between atoms: C_3  and  C_4
REMARK    4  A    between atoms: C_7  and  C_8
REMARK    5  A    between atoms: C_8  and  N_9
REMARK    6  A    between atoms: C_10  and  C_12
REMARK    7  A    between atoms: C_19  and  C_21
REMARK                            x       y       z     vdW  Elec       q    Type
REMARK                         _______ _______ _______ _____ _____    ______ ____
ROOT
ATOM      1  C   UNL     1      46.690   6.666  13.116  0.00  0.00    +0.000 A 
ATOM      2  C   UNL     1      46.692   5.363  13.633  0.00  0.00    +0.000 A 
ATOM      3  C   UNL     1      45.888   4.373  13.056  0.00  0.00    +0.000 A 
ATOM      4  C   UNL     1      45.084   4.678  11.951  0.00  0.00    +0.000 A 
ATOM      5  C   UNL     1      45.089   5.983  11.441  0.00  0.00    +0.000 A 
ATOM      6  C   UNL     1      45.886   6.972  12.016  0.00  0.00    +0.000 A 
ENDROOT
BRANCH   1   7
ATOM      7  C   UNL     1      47.525   7.744  13.743  0.00  0.00    +0.000 C 
BRANCH   7   9
ATOM      8  C   UNL     1      49.658   7.324  12.452  0.00  0.00    +0.000 C 
ATOM      9  N   UNL     1      48.983   7.589  13.715  0.00  0.00    +0.000 N 
ATOM     10  C   UNL     1      49.803   8.080  14.749  0.00  0.00    +0.000 C 
ATOM     11  O   UNL     1      51.012   8.230  14.586  0.00  0.00    +0.000 OA
BRANCH  10  12
ATOM     12  C   UNL     1      49.198   8.374  16.057  0.00  0.00    +0.000 A 
ATOM     13  C   UNL     1      48.894   9.648  16.505  0.00  0.00    +0.000 A 
ATOM     14  S   UNL     1      48.150   9.686  18.035  0.00  0.00    +0.000 S 
ATOM     15  C   UNL     1      48.098   7.991  18.101  0.00  0.00    +0.000 A 
ATOM     16  N   UNL     1      47.484   7.359  19.135  0.00  0.00    +0.000 NA
ATOM     17  C   UNL     1      47.477   6.073  19.035  0.00  0.00    +0.000 A 
ATOM     18  N   UNL     1      48.057   5.365  18.015  0.00  0.00    +0.000 N 
ATOM     19  C   UNL     1      48.802   5.952  17.015  0.00  0.00    +0.000 A 
ATOM     20  O   UNL     1      49.507   5.284  16.277  0.00  0.00    +0.000 OA
ATOM     21  C   UNL     1      48.728   7.410  17.020  0.00  0.00    +0.000 A 
ATOM     22  H   UNL     1      48.076   4.356  18.036  0.00  0.00    +0.000 HD
ENDBRANCH  10  12
ENDBRANCH   7   9
ENDBRANCH   1   7
BRANCH   4  23
ATOM     23  C   UNL     1      44.259   3.621  11.262  0.00  0.00    +0.000 C 
BRANCH  23  24
ATOM     24  N   UNL     1      45.007   2.792  10.357  0.00  0.00    +0.000 N 
ATOM     25  C   UNL     1      45.093   3.138   9.025  0.00  0.00    +0.000 C 
ATOM     26  O   UNL     1      44.519   4.112   8.544  0.00  0.00    +0.000 OA
ATOM     27  H   UNL     1      45.538   1.983  10.665  0.00  0.00    +0.000 HD
BRANCH  25  28
ATOM     28  C   UNL     1      45.936   2.245   8.232  0.00  0.00    +0.000 A 
ATOM     29  C   UNL     1      46.790   2.621   7.214  0.00  0.00    +0.000 A 
ATOM     30  N   UNL     1      47.366   1.465   6.769  0.00  0.00    +0.000 N 
ATOM     31  C   UNL     1      46.846   0.438   7.505  0.00  0.00    +0.000 A 
ATOM     32  N   UNL     1      45.990   0.869   8.405  0.00  0.00    +0.000 NA
ATOM     33  H   UNL     1      48.047   1.380   6.026  0.00  0.00    +0.000 HD
ENDBRANCH  25  28
ENDBRANCH  23  24
ENDBRANCH   4  23
TORSDOF 6
ENDMDL
MODEL 3
REMARK VINA RESULT:    -7.609      3.645      8.444
REMARK INTER + INTRA:         -11.130
REMARK INTER:                  -9.877
REMARK INTRA:                  -1.253
REMARK UNBOUND:                -0.852
REMARK  Name = 
REMARK  7 active torsions:
REMARK  status: ('A' for Active; 'I' for Inactive)
REMARK    1  A    between atoms: C_1  and  N_2
REMARK    2  A    between atoms: N_2  and  C_3
REMARK    3  A    between atoms: C_3  and  C_4
REMARK    4  A    between atoms: C_7  and  C_8
REMARK    5  A    between atoms: C_8  and  N_9
REMARK    6  A    between atoms: C_10  and  C_12
REMARK    7  A    between atoms: C_19  and  C_21
REMARK                            x       y       z     vdW  Elec       q    Type
REMARK                         _______ _______ _______ _____ _____    ______ ____
ROOT
ATOM      1  C   UNL     1      46.684   6.622  13.142  0.00  0.00    +0.000 A 
ATOM      2  C   UNL     1      46.592   5.278  13.528  0.00  0.00    +0.000 A 
ATOM      3  C   UNL     1      45.777   4.393  12.815  0.00  0.00    +0.000 A 
ATOM      4  C   UNL     1      45.056   4.843  11.703  0.00  0.00    +0.000 A 
ATOM      5  C   UNL     1      45.154   6.188  11.324  0.00  0.00    +0.000 A 
ATOM      6  C   UNL     1      45.962   7.075  12.034  0.00  0.00    +0.000 A 
ENDROOT
BRANCH   1   7
ATOM      7  C   UNL     1      47.530   7.591  13.915  0.00  0.00    +0.000 C 
BRANCH   7   9
ATOM      8  C   UNL     1      49.779   7.801  12.779  0.00  0.00    +0.000 C 
ATOM      9  N   UNL     1      48.981   7.382  13.923  0.00  0.00    +0.000 N 
ATOM     10  C   UNL     1      49.698   7.178  15.118  0.00  0.00    +0.000 C 
ATOM     11  O   UNL     1      50.919   7.313  15.160  0.00  0.00    +0.000 OA
BRANCH  10  12
ATOM     12  C   UNL     1      48.965   6.753  16.321  0.00  0.00    +0.000 A 
ATOM     13  C   UNL     1      48.745   5.432  16.672  0.00  0.00    +0.000 A 
ATOM     14  S   UNL     1      47.915   5.234  18.144  0.00  0.00    +0.000 S 
ATOM     15  C   UNL     1      47.926   6.907  18.426  0.00  0.00    +0.000 A 
ATOM     16  N   UNL     1      47.441   7.415  19.589  0.00  0.00    +0.000 NA
ATOM     17  C   UNL     1      47.554   8.696  19.691  0.00  0.00    +0.000 A 
ATOM     18  N   UNL     1      48.074   9.514  18.722  0.00  0.00    +0.000 N 
ATOM     19  C   UNL     1      48.456   9.065  17.477  0.00  0.00    +0.000 A 
ATOM     20  O   UNL     1      48.672   9.843  16.562  0.00  0.00    +0.000 OA
ATOM     21  C   UNL     1      48.464   7.609  17.366  0.00  0.00    +0.000 A 
ATOM     22  H   UNL     1      48.067  10.517  18.839  0.00  0.00    +0.000 HD
ENDBRANCH  10  12
ENDBRANCH   7   9
ENDBRANCH   1   7
BRANCH   4  23
ATOM     23  C   UNL     1      44.224   3.901  10.870  0.00  0.00    +0.000 C 
BRANCH  23  24
ATOM     24  N   UNL     1      44.995   3.003  10.054  0.00  0.00    +0.000 N 
ATOM     25  C   UNL     1      45.350   3.375   8.776  0.00  0.00    +0.000 C 
ATOM     26  O   UNL     1      45.003   4.435   8.262  0.00  0.00    +0.000 OA
ATOM     27  H   UNL     1      45.352   2.117  10.401  0.00  0.00    +0.000 HD
BRANCH  25  28
ATOM     28  C   UNL     1      46.187   2.396   8.083  0.00  0.00    +0.000 A 
ATOM     29  C   UNL     1      47.177   2.677   7.161  0.00  0.00    +0.000 A 
ATOM     30  N   UNL     1      47.686   1.467   6.787  0.00  0.00    +0.000 N 
ATOM     31  C   UNL     1      46.997   0.502   7.467  0.00  0.00    +0.000 A 
ATOM     32  N   UNL     1      46.093   1.024   8.267  0.00  0.00    +0.000 NA
ATOM     33  H   UNL     1      48.432   1.308   6.123  0.00  0.00    +0.000 HD
ENDBRANCH  25  28
ENDBRANCH  23  24
ENDBRANCH   4  23
TORSDOF 6
ENDMDL
MODEL 4
REMARK VINA RESULT:    -7.074      3.029      8.354
REMARK INTER + INTRA:         -10.408
REMARK INTER:                  -9.421
REMARK INTRA:                  -0.987
REMARK UNBOUND:                -0.852
REMARK  Name = 
REMARK  7 active torsions:
REMARK  status: ('A' for Active; 'I' for Inactive)
REMARK    1  A    between atoms: C_1  and  N_2
REMARK    2  A    between atoms: N_2  and  C_3
REMARK    3  A    between atoms: C_3  and  C_4
REMARK    4  A    between atoms: C_7  and  C_8
REMARK    5  A    between atoms: C_8  and  N_9
REMARK    6  A    between atoms: C_10  and  C_12
REMARK    7  A    between atoms: C_19  and  C_21
REMARK                            x       y       z     vdW  Elec       q    Type
REMARK                         _______ _______ _______ _____ _____    ______ ____
ROOT
ATOM      1  C   UNL     1      48.218   7.708  14.427  0.00  0.00    +0.000 A 
ATOM      2  C   UNL     1      47.500   8.777  13.871  0.00  0.00    +0.000 A 
ATOM      3  C   UNL     1      46.521   8.540  12.900  0.00  0.00    +0.000 A 
ATOM      4  C   UNL     1      46.245   7.232  12.485  0.00  0.00    +0.000 A 
ATOM      5  C   UNL     1      46.967   6.170  13.046  0.00  0.00    +0.000 A 
ATOM      6  C   UNL     1      47.947   6.402  14.011  0.00  0.00    +0.000 A 
ENDROOT
BRANCH   1   7
ATOM      7  C   UNL     1      49.292   7.949  15.447  0.00  0.00    +0.000 C 
BRANCH   7   9
ATOM      8  C   UNL     1      47.917   9.291  17.090  0.00  0.00    +0.000 C 
ATOM      9  N   UNL     1      48.880   8.231  16.825  0.00  0.00    +0.000 N 
ATOM     10  C   UNL     1      49.040   7.287  17.858  0.00  0.00    +0.000 C 
ATOM     11  O   UNL     1      48.427   7.392  18.918  0.00  0.00    +0.000 OA
BRANCH  10  12
ATOM     12  C   UNL     1      49.994   6.183  17.669  0.00  0.00    +0.000 A 
ATOM     13  C   UNL     1      51.360   6.293  17.867  0.00  0.00    +0.000 A 
ATOM     14  S   UNL     1      52.215   4.841  17.627  0.00  0.00    +0.000 S 
ATOM     15  C   UNL     1      50.773   3.984  17.366  0.00  0.00    +0.000 A 
ATOM     16  N   UNL     1      50.793   2.637  17.190  0.00  0.00    +0.000 NA
ATOM     17  C   UNL     1      49.625   2.109  17.050  0.00  0.00    +0.000 A 
ATOM     18  N   UNL     1      48.447   2.808  17.034  0.00  0.00    +0.000 N 
ATOM     19  C   UNL     1      48.383   4.184  17.076  0.00  0.00    +0.000 A 
ATOM     20  O   UNL     1      47.353   4.779  16.808  0.00  0.00    +0.000 OA
ATOM     21  C   UNL     1      49.669   4.813  17.363  0.00  0.00    +0.000 A 
ATOM     22  H   UNL     1      47.572   2.339  16.848  0.00  0.00    +0.000 HD
ENDBRANCH  10  12
ENDBRANCH   7   9
ENDBRANCH   1   7
BRANCH   4  23
ATOM     23  C   UNL     1      45.150   6.935  11.493  0.00  0.00    +0.000 C 
BRANCH  23  24
ATOM     24  N   UNL     1      45.509   5.961  10.497  0.00  0.00    +0.000 N 
ATOM     25  C   UNL     1      44.718   4.848  10.313  0.00  0.00    +0.000 C 
ATOM     26  O   UNL     1      43.723   4.609  10.992  0.00  0.00    +0.000 OA
ATOM     27  H   UNL     1      46.297   6.086   9.868  0.00  0.00    +0.000 HD
BRANCH  25  28
ATOM     28  C   UNL     1      45.163   3.977   9.226  0.00  0.00    +0.000 A 
ATOM     29  C   UNL     1      45.175   2.596   9.242  0.00  0.00    +0.000 A 
ATOM     30  N   UNL     1      45.663   2.217   8.024  0.00  0.00    +0.000 N 
ATOM     31  C   UNL     1      45.941   3.356   7.321  0.00  0.00    +0.000 A 
ATOM     32  N   UNL     1      45.642   4.436   8.007  0.00  0.00    +0.000 NA
ATOM     33  H   UNL     1      45.802   1.269   7.700  0.00  0.00    +0.000 HD
ENDBRANCH  25  28
ENDBRANCH  23  24
ENDBRANCH   4  23
TORSDOF 6
ENDMDL
MODEL 5
REMARK VINA RESULT:    -7.055      3.016      8.351
REMARK INTER + INTRA:         -10.381
REMARK INTER:                  -9.383
REMARK INTRA:                  -0.998
REMARK UNBOUND:                -0.852
REMARK  Name = 
REMARK  7 active torsions:
REMARK  status: ('A' for Active; 'I' for Inactive)
REMARK    1  A    between atoms: C_1  and  N_2
REMARK    2  A    between atoms: N_2  and  C_3
REMARK    3  A    between atoms: C_3  and  C_4
REMARK    4  A    between atoms: C_7  and  C_8
REMARK    5  A    between atoms: C_8  and  N_9
REMARK    6  A    between atoms: C_10  and  C_12
REMARK    7  A    between atoms: C_19  and  C_21
REMARK                            x       y       z     vdW  Elec       q    Type
REMARK                         _______ _______ _______ _____ _____    ______ ____
ROOT
ATOM      1  C   UNL     1      47.842   6.455  13.110  0.00  0.00    +0.000 A 
ATOM      2  C   UNL     1      47.183   5.312  13.584  0.00  0.00    +0.000 A 
ATOM      3  C   UNL     1      46.147   4.736  12.841  0.00  0.00    +0.000 A 
ATOM      4  C   UNL     1      45.769   5.293  11.614  0.00  0.00    +0.000 A 
ATOM      5  C   UNL     1      46.432   6.435  11.148  0.00  0.00    +0.000 A 
ATOM      6  C   UNL     1      47.463   7.015  11.887  0.00  0.00    +0.000 A 
ENDROOT
BRANCH   1   7
ATOM      7  C   UNL     1      48.935   7.102  13.910  0.00  0.00    +0.000 C 
BRANCH   7   9
ATOM      8  C   UNL     1      47.452   8.920  14.851  0.00  0.00    +0.000 C 
ATOM      9  N   UNL     1      48.548   7.978  15.020  0.00  0.00    +0.000 N 
ATOM     10  C   UNL     1      48.894   7.685  16.354  0.00  0.00    +0.000 C 
ATOM     11  O   UNL     1      48.322   8.230  17.295  0.00  0.00    +0.000 OA
BRANCH  10  12
ATOM     12  C   UNL     1      49.993   6.741  16.612  0.00  0.00    +0.000 A 
ATOM     13  C   UNL     1      51.332   7.093  16.635  0.00  0.00    +0.000 A 
ATOM     14  S   UNL     1      52.381   5.807  17.012  0.00  0.00    +0.000 S 
ATOM     15  C   UNL     1      51.072   4.759  17.276  0.00  0.00    +0.000 A 
ATOM     16  N   UNL     1      51.280   3.494  17.725  0.00  0.00    +0.000 NA
ATOM     17  C   UNL     1      50.197   2.824  17.928  0.00  0.00    +0.000 A 
ATOM     18  N   UNL     1      48.932   3.291  17.687  0.00  0.00    +0.000 N 
ATOM     19  C   UNL     1      48.674   4.515  17.109  0.00  0.00    +0.000 A 
ATOM     20  O   UNL     1      47.567   4.792  16.680  0.00  0.00    +0.000 OA
ATOM     21  C   UNL     1      49.862   5.355  16.983  0.00  0.00    +0.000 A 
ATOM     22  H   UNL     1      48.130   2.687  17.800  0.00  0.00    +0.000 HD
ENDBRANCH  10  12
ENDBRANCH   7   9
ENDBRANCH   1   7
BRANCH   4  23
ATOM     23  C   UNL     1      44.704   4.658  10.756  0.00  0.00    +0.000 C 
BRANCH  23  24
ATOM     24  N   UNL     1      45.175   3.560   9.955  0.00  0.00    +0.000 N 
ATOM     25  C   UNL     1      45.676   3.800   8.694  0.00  0.00    +0.000 C 
ATOM     26  O   UNL     1      45.706   4.916   8.181  0.00  0.00    +0.000 OA
ATOM     27  H   UNL     1      45.217   2.607  10.302  0.00  0.00    +0.000 HD
BRANCH  25  28
ATOM     28  C   UNL     1      46.179   2.605   8.017  0.00  0.00    +0.000 A 
ATOM     29  C   UNL     1      46.854   2.573   6.812  0.00  0.00    +0.000 A 
ATOM     30  N   UNL     1      47.127   1.256   6.577  0.00  0.00    +0.000 N 
ATOM     31  C   UNL     1      46.608   0.537   7.617  0.00  0.00    +0.000 A 
ATOM     32  N   UNL     1      46.040   1.315   8.511  0.00  0.00    +0.000 NA
ATOM     33  H   UNL     1      47.616   0.877   5.777  0.00  0.00    +0.000 HD
ENDBRANCH  25  28
ENDBRANCH  23  24
ENDBRANCH   4  23
TORSDOF 6
ENDMDL
MODEL 6
REMARK VINA RESULT:    -6.967      2.610      8.372
REMARK INTER + INTRA:         -10.262
REMARK INTER:                  -9.263
REMARK INTRA:                  -0.999
REMARK UNBOUND:                -0.852
REMARK  Name = 
REMARK  7 active torsions:
REMARK  status: ('A' for Active; 'I' for Inactive)
REMARK    1  A    between atoms: C_1  and  N_2
REMARK    2  A    between atoms: N_2  and  C_3
REMARK    3  A    between atoms: C_3  and  C_4
REMARK    4  A    between atoms: C_7  and  C_8
REMARK    5  A    between atoms: C_8  and  N_9
REMARK    6  A    between atoms: C_10  and  C_12
REMARK    7  A    between atoms: C_19  and  C_21
REMARK                            x       y       z     vdW  Elec       q    Type
REMARK                         _______ _______ _______ _____ _____    ______ ____
ROOT
ATOM      1  C   UNL     1      48.244   7.215  14.592  0.00  0.00    +0.000 A 
ATOM      2  C   UNL     1      47.652   8.382  14.088  0.00  0.00    +0.000 A 
ATOM      3  C   UNL     1      46.700   8.305  13.065  0.00  0.00    +0.000 A 
ATOM      4  C   UNL     1      46.326   7.060  12.546  0.00  0.00    +0.000 A 
ATOM      5  C   UNL     1      46.924   5.900  13.056  0.00  0.00    +0.000 A 
ATOM      6  C   UNL     1      47.875   5.972  14.072  0.00  0.00    +0.000 A 
ENDROOT
BRANCH   1   7
ATOM      7  C   UNL     1      49.288   7.284  15.668  0.00  0.00    +0.000 C 
BRANCH   7   9
ATOM      8  C   UNL     1      48.659   9.080  17.332  0.00  0.00    +0.000 C 
ATOM      9  N   UNL     1      48.862   7.673  17.016  0.00  0.00    +0.000 N 
ATOM     10  C   UNL     1      48.249   6.760  17.895  0.00  0.00    +0.000 C 
ATOM     11  O   UNL     1      47.621   7.146  18.879  0.00  0.00    +0.000 OA
BRANCH  10  12
ATOM     12  C   UNL     1      48.406   5.319  17.645  0.00  0.00    +0.000 A 
ATOM     13  C   UNL     1      47.396   4.496  17.176  0.00  0.00    +0.000 A 
ATOM     14  S   UNL     1      47.875   2.882  16.926  0.00  0.00    +0.000 S 
ATOM     15  C   UNL     1      49.483   3.252  17.323  0.00  0.00    +0.000 A 
ATOM     16  N   UNL     1      50.455   2.309  17.218  0.00  0.00    +0.000 NA
ATOM     17  C   UNL     1      51.637   2.738  17.505  0.00  0.00    +0.000 A 
ATOM     18  N   UNL     1      51.927   4.011  17.920  0.00  0.00    +0.000 N 
ATOM     19  C   UNL     1      50.963   4.965  18.168  0.00  0.00    +0.000 A 
ATOM     20  O   UNL     1      51.229   5.991  18.771  0.00  0.00    +0.000 OA
ATOM     21  C   UNL     1      49.629   4.561  17.735  0.00  0.00    +0.000 A 
ATOM     22  H   UNL     1      52.866   4.260  18.197  0.00  0.00    +0.000 HD
ENDBRANCH  10  12
ENDBRANCH   7   9
ENDBRANCH   1   7
BRANCH   4  23
ATOM     23  C   UNL     1      45.255   6.936  11.493  0.00  0.00    +0.000 C 
BRANCH  23  24
ATOM     24  N   UNL     1      45.556   5.980  10.461  0.00  0.00    +0.000 N 
ATOM     25  C   UNL     1      44.793   4.839  10.343  0.00  0.00    +0.000 C 
ATOM     26  O   UNL     1      43.877   4.558  11.112  0.00  0.00    +0.000 OA
ATOM     27  H   UNL     1      46.275   6.138   9.762  0.00  0.00    +0.000 HD
BRANCH  25  28
ATOM     28  C   UNL     1      45.166   3.989   9.213  0.00  0.00    +0.000 A 
ATOM     29  C   UNL     1      45.078   2.611   9.165  0.00  0.00    +0.000 A 
ATOM     30  N   UNL     1      45.529   2.256   7.926  0.00  0.00    +0.000 N 
ATOM     31  C   UNL     1      45.886   3.403   7.274  0.00  0.00    +0.000 A 
ATOM     32  N   UNL     1      45.671   4.469   8.013  0.00  0.00    +0.000 NA
ATOM     33  H   UNL     1      45.596   1.317   7.557  0.00  0.00    +0.000 HD
ENDBRANCH  25  28
ENDBRANCH  23  24
ENDBRANCH   4  23
TORSDOF 6
ENDMDL
MODEL 7
REMARK VINA RESULT:    -6.685      3.167      8.013
REMARK INTER + INTRA:          -9.882
REMARK INTER:                  -8.462
REMARK INTRA:                  -1.420
REMARK UNBOUND:                -0.852
REMARK  Name = 
REMARK  7 active torsions:
REMARK  status: ('A' for Active; 'I' for Inactive)
REMARK    1  A    between atoms: C_1  and  N_2
REMARK    2  A    between atoms: N_2  and  C_3
REMARK    3  A    between atoms: C_3  and  C_4
REMARK    4  A    between atoms: C_7  and  C_8
REMARK    5  A    between atoms: C_8  and  N_9
REMARK    6  A    between atoms: C_10  and  C_12
REMARK    7  A    between atoms: C_19  and  C_21
REMARK                            x       y       z     vdW  Elec       q    Type
REMARK                         _______ _______ _______ _____ _____    ______ ____
ROOT
ATOM      1  C   UNL     1      49.059   8.091  16.090  0.00  0.00    +0.000 A 
ATOM      2  C   UNL     1      48.226   9.095  15.576  0.00  0.00    +0.000 A 
ATOM      3  C   UNL     1      47.734   9.003  14.269  0.00  0.00    +0.000 A 
ATOM      4  C   UNL     1      48.063   7.902  13.470  0.00  0.00    +0.000 A 
ATOM      5  C   UNL     1      48.896   6.904  13.992  0.00  0.00    +0.000 A 
ATOM      6  C   UNL     1      49.391   6.993  15.293  0.00  0.00    +0.000 A 
ENDROOT
BRANCH   1   7
ATOM      7  C   UNL     1      49.618   8.191  17.479  0.00  0.00    +0.000 C 
BRANCH   7   9
ATOM      8  C   UNL     1      47.706   8.774  19.027  0.00  0.00    +0.000 C 
ATOM      9  N   UNL     1      48.740   7.842  18.600  0.00  0.00    +0.000 N 
ATOM     10  C   UNL     1      48.566   6.510  19.023  0.00  0.00    +0.000 C 
ATOM     11  O   UNL     1      47.618   6.186  19.735  0.00  0.00    +0.000 OA
BRANCH  10  12
ATOM     12  C   UNL     1      49.567   5.505  18.633  0.00  0.00    +0.000 A 
ATOM     13  C   UNL     1      50.862   5.466  19.123  0.00  0.00    +0.000 A 
ATOM     14  S   UNL     1      51.786   4.161  18.540  0.00  0.00    +0.000 S 
ATOM     15  C   UNL     1      50.449   3.532  17.704  0.00  0.00    +0.000 A 
ATOM     16  N   UNL     1      50.540   2.343  17.052  0.00  0.00    +0.000 NA
ATOM     17  C   UNL     1      49.439   1.962  16.500  0.00  0.00    +0.000 A 
ATOM     18  N   UNL     1      48.270   2.677  16.510  0.00  0.00    +0.000 N 
ATOM     19  C   UNL     1      48.163   3.944  17.042  0.00  0.00    +0.000 A 
ATOM     20  O   UNL     1      47.192   4.646  16.813  0.00  0.00    +0.000 OA
ATOM     21  C   UNL     1      49.348   4.359  17.787  0.00  0.00    +0.000 A 
ATOM     22  H   UNL     1      47.464   2.352  15.996  0.00  0.00    +0.000 HD
ENDBRANCH  10  12
ENDBRANCH   7   9
ENDBRANCH   1   7
BRANCH   4  23
ATOM     23  C   UNL     1      47.495   7.737  12.084  0.00  0.00    +0.000 C 
BRANCH  23  24
ATOM     24  N   UNL     1      46.955   6.429  11.824  0.00  0.00    +0.000 N 
ATOM     25  C   UNL     1      45.654   6.145  12.176  0.00  0.00    +0.000 C 
ATOM     26  O   UNL     1      44.922   6.945  12.753  0.00  0.00    +0.000 OA
ATOM     27  H   UNL     1      47.474   5.711  11.326  0.00  0.00    +0.000 HD
BRANCH  25  28
ATOM     28  C   UNL     1      45.215   4.803  11.795  0.00  0.00    +0.000 A 
ATOM     29  C   UNL     1      45.389   3.648  12.533  0.00  0.00    +0.000 A 
ATOM     30  N   UNL     1      44.824   2.649  11.793  0.00  0.00    +0.000 N 
ATOM     31  C   UNL     1      44.344   3.211  10.643  0.00  0.00    +0.000 A 
ATOM     32  N   UNL     1      44.551   4.508  10.613  0.00  0.00    +0.000 NA
ATOM     33  H   UNL     1      44.773   1.671  12.043  0.00  0.00    +0.000 HD
ENDBRANCH  25  28
ENDBRANCH  23  24
ENDBRANCH   4  23
TORSDOF 6
ENDMDL
MODEL 8
REMARK VINA RESULT:    -6.506      2.922      8.522
REMARK INTER + INTRA:          -9.640
REMARK INTER:                  -8.495
REMARK INTRA:                  -1.145
REMARK UNBOUND:                -0.852
REMARK  Name = 
REMARK  7 active torsions:
REMARK  status: ('A' for Active; 'I' for Inactive)
REMARK    1  A    between atoms: C_1  and  N_2
REMARK    2  A    between atoms: N_2  and  C_3
REMARK    3  A    between atoms: C_3  and  C_4
REMARK    4  A    between atoms: C_7  and  C_8
REMARK    5  A    between atoms: C_8  and  N_9
REMARK    6  A    between atoms: C_10  and  C_12
REMARK    7  A    between atoms: C_19  and  C_21
REMARK                            x       y       z     vdW  Elec       q    Type
REMARK                         _______ _______ _______ _____ _____    ______ ____
ROOT
ATOM      1  C   UNL     1      49.573   7.657  16.519  0.00  0.00    +0.000 A 
ATOM      2  C   UNL     1      48.810   8.830  16.601  0.00  0.00    +0.000 A 
ATOM      3  C   UNL     1      48.016   9.232  15.521  0.00  0.00    +0.000 A 
ATOM      4  C   UNL     1      47.971   8.459  14.356  0.00  0.00    +0.000 A 
ATOM      5  C   UNL     1      48.738   7.288  14.282  0.00  0.00    +0.000 A 
ATOM      6  C   UNL     1      49.533   6.886  15.354  0.00  0.00    +0.000 A 
ENDROOT
BRANCH   1   7
ATOM      7  C   UNL     1      50.452   7.228  17.657  0.00  0.00    +0.000 C 
BRANCH   7   9
ATOM      8  C   UNL     1      49.983   8.312  19.892  0.00  0.00    +0.000 C 
ATOM      9  N   UNL     1      49.862   7.170  18.998  0.00  0.00    +0.000 N 
ATOM     10  C   UNL     1      48.846   6.250  19.325  0.00  0.00    +0.000 C 
ATOM     11  O   UNL     1      48.146   6.402  20.324  0.00  0.00    +0.000 OA
BRANCH  10  12
ATOM     12  C   UNL     1      48.658   5.067  18.470  0.00  0.00    +0.000 A 
ATOM     13  C   UNL     1      47.534   4.839  17.695  0.00  0.00    +0.000 A 
ATOM     14  S   UNL     1      47.610   3.415  16.764  0.00  0.00    +0.000 S 
ATOM     15  C   UNL     1      49.201   3.116  17.275  0.00  0.00    +0.000 A 
ATOM     16  N   UNL     1      49.904   2.071  16.764  0.00  0.00    +0.000 NA
ATOM     17  C   UNL     1      51.114   1.988  17.203  0.00  0.00    +0.000 A 
ATOM     18  N   UNL     1      51.669   2.831  18.130  0.00  0.00    +0.000 N 
ATOM     19  C   UNL     1      50.959   3.821  18.774  0.00  0.00    +0.000 A 
ATOM     20  O   UNL     1      51.405   4.379  19.762  0.00  0.00    +0.000 OA
ATOM     21  C   UNL     1      49.626   4.031  18.215  0.00  0.00    +0.000 A 
ATOM     22  H   UNL     1      52.601   2.665  18.483  0.00  0.00    +0.000 HD
ENDBRANCH  10  12
ENDBRANCH   7   9
ENDBRANCH   1   7
BRANCH   4  23
ATOM     23  C   UNL     1      47.074   8.826  13.201  0.00  0.00    +0.000 C 
BRANCH  23  24
ATOM     24  N   UNL     1      45.852   8.069  13.145  0.00  0.00    +0.000 N 
ATOM     25  C   UNL     1      45.727   7.041  12.237  0.00  0.00    +0.000 C 
ATOM     26  O   UNL     1      46.599   6.751  11.422  0.00  0.00    +0.000 OA
ATOM     27  H   UNL     1      45.087   8.216  13.796  0.00  0.00    +0.000 HD
BRANCH  25  28
ATOM     28  C   UNL     1      44.461   6.315  12.332  0.00  0.00    +0.000 A 
ATOM     29  C   UNL     1      43.387   6.432  11.472  0.00  0.00    +0.000 A 
ATOM     30  N   UNL     1      42.439   5.572  11.946  0.00  0.00    +0.000 N 
ATOM     31  C   UNL     1      42.946   4.978  13.067  0.00  0.00    +0.000 A 
ATOM     32  N   UNL     1      44.167   5.392  13.326  0.00  0.00    +0.000 NA
ATOM     33  H   UNL     1      41.524   5.407  11.548  0.00  0.00    +0.000 HD
ENDBRANCH  25  28
ENDBRANCH  23  24
ENDBRANCH   4  23
TORSDOF 6
ENDMDL
MODEL 9
REMARK VINA RESULT:    -6.329      2.073      2.582
REMARK INTER + INTRA:          -9.401
REMARK INTER:                  -8.524
REMARK INTRA:                  -0.877
REMARK UNBOUND:                -0.852
REMARK  Name = 
REMARK  7 active torsions:
REMARK  status: ('A' for Active; 'I' for Inactive)
REMARK    1  A    between atoms: C_1  and  N_2
REMARK    2  A    between atoms: N_2  and  C_3
REMARK    3  A    between atoms: C_3  and  C_4
REMARK    4  A    between atoms: C_7  and  C_8
REMARK    5  A    between atoms: C_8  and  N_9
REMARK    6  A    between atoms: C_10  and  C_12
REMARK    7  A    between atoms: C_19  and  C_21
REMARK                            x       y       z     vdW  Elec       q    Type
REMARK                         _______ _______ _______ _____ _____    ______ ____
ROOT
ATOM      1  C   UNL     1      48.055   6.683  13.268  0.00  0.00    +0.000 A 
ATOM      2  C   UNL     1      49.180   7.394  12.829  0.00  0.00    +0.000 A 
ATOM      3  C   UNL     1      50.178   7.766  13.737  0.00  0.00    +0.000 A 
ATOM      4  C   UNL     1      50.063   7.420  15.088  0.00  0.00    +0.000 A 
ATOM      5  C   UNL     1      48.935   6.709  15.518  0.00  0.00    +0.000 A 
ATOM      6  C   UNL     1      47.936   6.340  14.618  0.00  0.00    +0.000 A 
ENDROOT
BRANCH   1   7
ATOM      7  C   UNL     1      46.962   6.303  12.312  0.00  0.00    +0.000 C 
BRANCH   7   9
ATOM      8  C   UNL     1      45.958   8.623  12.295  0.00  0.00    +0.000 C 
ATOM      9  N   UNL     1      45.789   7.178  12.226  0.00  0.00    +0.000 N 
ATOM     10  C   UNL     1      44.569   6.737  11.678  0.00  0.00    +0.000 C 
ATOM     11  O   UNL     1      43.704   7.534  11.323  0.00  0.00    +0.000 OA
BRANCH  10  12
ATOM     12  C   UNL     1      44.320   5.290  11.572  0.00  0.00    +0.000 A 
ATOM     13  C   UNL     1      43.628   4.550  12.515  0.00  0.00    +0.000 A 
ATOM     14  S   UNL     1      43.444   2.907  12.109  0.00  0.00    +0.000 S 
ATOM     15  C   UNL     1      44.180   3.154  10.599  0.00  0.00    +0.000 A 
ATOM     16  N   UNL     1      44.258   2.142   9.696  0.00  0.00    +0.000 NA
ATOM     17  C   UNL     1      44.799   2.479   8.575  0.00  0.00    +0.000 A 
ATOM     18  N   UNL     1      45.298   3.723   8.291  0.00  0.00    +0.000 N 
ATOM     19  C   UNL     1      45.362   4.742   9.216  0.00  0.00    +0.000 A 
ATOM     20  O   UNL     1      46.033   5.740   9.012  0.00  0.00    +0.000 OA
ATOM     21  C   UNL     1      44.647   4.444  10.453  0.00  0.00    +0.000 A 
ATOM     22  H   UNL     1      45.773   3.899   7.417  0.00  0.00    +0.000 HD
ENDBRANCH  10  12
ENDBRANCH   7   9
ENDBRANCH   1   7
BRANCH   4  23
ATOM     23  C   UNL     1      51.152   7.744  16.079  0.00  0.00    +0.000 C 
BRANCH  23  24
ATOM     24  N   UNL     1      51.718   6.591  16.725  0.00  0.00    +0.000 N 
ATOM     25  C   UNL     1      51.485   6.376  18.066  0.00  0.00    +0.000 C 
ATOM     26  O   UNL     1      50.844   7.151  18.772  0.00  0.00    +0.000 OA
ATOM     27  H   UNL     1      52.237   5.879  16.220  0.00  0.00    +0.000 HD
BRANCH  25  28
ATOM     28  C   UNL     1      52.064   5.135  18.578  0.00  0.00    +0.000 A 
ATOM     29  C   UNL     1      52.155   4.764  19.906  0.00  0.00    +0.000 A 
ATOM     30  N   UNL     1      52.759   3.539  19.906  0.00  0.00    +0.000 N 
ATOM     31  C   UNL     1      53.025   3.212  18.607  0.00  0.00    +0.000 A 
ATOM     32  N   UNL     1      52.610   4.143  17.776  0.00  0.00    +0.000 NA
ATOM     33  H   UNL     1      52.977   2.977  20.718  0.00  0.00    +0.000 HD
ENDBRANCH  25  28
ENDBRANCH  23  24
ENDBRANCH   4  23
TORSDOF 6
ENDMDL
