MODEL 1
REMARK VINA RESULT:    -7.662      0.000      0.000
REMARK INTER + INTRA:         -11.069
REMARK INTER:                 -10.349
REMARK INTRA:                  -0.720
REMARK UNBOUND:                -0.720
REMARK  Name = 
REMARK  7 active torsions:
REMARK  status: ('A' for Active; 'I' for Inactive)
REMARK    1  A    between atoms: C_1  and  N_2
REMARK    2  A    between atoms: N_2  and  C_3
REMARK    3  A    between atoms: C_3  and  C_4
REMARK    4  A    between atoms: C_7  and  C_8
REMARK    5  A    between atoms: C_8  and  N_9
REMARK    6  A    between atoms: C_10  and  C_12
REMARK    7  A    between atoms: C_24  and  C_26
REMARK                            x       y       z     vdW  Elec       q    Type
REMARK                         _______ _______ _______ _____ _____    ______ ____
ROOT
ATOM      1  C   UNL     1      46.369   4.465  13.370  0.00  0.00    +0.000 A 
ATOM      2  C   UNL     1      46.894   5.672  12.887  0.00  0.00    +0.000 A 
ATOM      3  C   UNL     1      47.758   6.438  13.673  0.00  0.00    +0.000 A 
ATOM      4  C   UNL     1      48.118   6.006  14.953  0.00  0.00    +0.000 A 
ATOM      5  C   UNL     1      47.571   4.813  15.446  0.00  0.00    +0.000 A 
ATOM      6  C   UNL     1      46.711   4.043  14.661  0.00  0.00    +0.000 A 
ENDROOT
BRANCH   1   7
ATOM      7  C   UNL     1      45.426   3.654  12.523  0.00  0.00    +0.000 C 
BRANCH   7   9
ATOM      8  C   UNL     1      43.391   5.117  12.930  0.00  0.00    +0.000 C 
ATOM      9  N   UNL     1      44.196   4.293  12.038  0.00  0.00    +0.000 N 
ATOM     10  C   UNL     1      43.883   4.391  10.663  0.00  0.00    +0.000 C 
ATOM     11  O   UNL     1      42.996   5.168  10.300  0.00  0.00    +0.000 OA
BRANCH  10  12
ATOM     12  C   UNL     1      44.620   3.584   9.698  0.00  0.00    +0.000 A 
ATOM     13  C   UNL     1      44.670   2.219   9.473  0.00  0.00    +0.000 A 
ATOM     14  N   UNL     1      45.512   1.791   8.462  0.00  0.00    +0.000 NA
ATOM     15  C   UNL     1      46.038   2.842   7.874  0.00  0.00    +0.000 A 
ATOM     16  S   UNL     1      45.589   4.367   8.507  0.00  0.00    +0.000 S 
ENDBRANCH  10  12
ENDBRANCH   7   9
ENDBRANCH   1   7
BRANCH   4  17
ATOM     17  C   UNL     1      49.063   6.810  15.808  0.00  0.00    +0.000 C 
BRANCH  17  18
ATOM     18  N   UNL     1      50.138   5.998  16.316  0.00  0.00    +0.000 N 
ATOM     19  C   UNL     1      50.101   5.496  17.592  0.00  0.00    +0.000 C 
ATOM     20  O   UNL     1      49.142   5.686  18.339  0.00  0.00    +0.000 OA
ATOM     21  H   UNL     1      51.027   6.048  15.829  0.00  0.00    +0.000 HD
BRANCH  19  22
ATOM     22  C   UNL     1      51.235   4.663  17.999  0.00  0.00    +0.000 A 
ATOM     23  C   UNL     1      52.314   5.239  18.654  0.00  0.00    +0.000 A 
ATOM     24  S   UNL     1      53.521   4.118  19.101  0.00  0.00    +0.000 S 
ATOM     25  C   UNL     1      52.668   2.832  18.388  0.00  0.00    +0.000 A 
ATOM     26  N   UNL     1      53.172   1.568  18.389  0.00  0.00    +0.000 NA
ATOM     27  C   UNL     1      52.438   0.699  17.779  0.00  0.00    +0.000 A 
ATOM     28  N   UNL     1      51.239   0.977  17.175  0.00  0.00    +0.000 N 
ATOM     29  C   UNL     1      50.670   2.227  17.189  0.00  0.00    +0.000 A 
ATOM     30  O   UNL     1      49.561   2.426  16.697  0.00  0.00    +0.000 OA
ATOM     31  C   UNL     1      51.467   3.248  17.838  0.00  0.00    +0.000 A 
ATOM     32  H   UNL     1      50.704   0.246  16.727  0.00  0.00    +0.000 HD
ENDBRANCH  19  22
ENDBRANCH  17  18
ENDBRANCH   4  17
TORSDOF 6
ENDMDL
MODEL 2
REMARK VINA RESULT:    -7.484      2.945      9.696
REMARK INTER + INTRA:         -10.828
REMARK INTER:                  -9.927
REMARK INTRA:                  -0.901
REMARK UNBOUND:                -0.720
REMARK  Name = 
REMARK  7 active torsions:
REMARK  status: ('A' for Active; 'I' for Inactive)
REMARK    1  A    between atoms: C_1  and  N_2
REMARK    2  A    between atoms: N_2  and  C_3
REMARK    3  A    between atoms: C_3  and  C_4
REMARK    4  A    between atoms: C_7  and  C_8
REMARK    5  A    between atoms: C_8  and  N_9
REMARK    6  A    between atoms: C_10  and  C_12
REMARK    7  A    between atoms: C_24  and  C_26
REMARK                            x       y       z     vdW  Elec       q    Type
REMARK                         _______ _______ _______ _____ _____    ______ ____
ROOT
ATOM      1  C   UNL     1      51.341   4.165  17.575  0.00  0.00    +0.000 A 
ATOM      2  C   UNL     1      50.824   2.863  17.506  0.00  0.00    +0.000 A 
ATOM      3  C   UNL     1      49.469   2.648  17.246  0.00  0.00    +0.000 A 
ATOM      4  C   UNL     1      48.609   3.731  17.041  0.00  0.00    +0.000 A 
ATOM      5  C   UNL     1      49.121   5.033  17.138  0.00  0.00    +0.000 A 
ATOM      6  C   UNL     1      50.476   5.250  17.393  0.00  0.00    +0.000 A 
ENDROOT
BRANCH   1   7
ATOM      7  C   UNL     1      52.800   4.388  17.873  0.00  0.00    +0.000 C 
BRANCH   7   9
ATOM      8  C   UNL     1      52.887   4.544  20.406  0.00  0.00    +0.000 C 
ATOM      9  N   UNL     1      53.329   3.926  19.162  0.00  0.00    +0.000 N 
ATOM     10  C   UNL     1      54.042   2.713  19.300  0.00  0.00    +0.000 C 
ATOM     11  O   UNL     1      54.217   2.241  20.426  0.00  0.00    +0.000 OA
BRANCH  10  12
ATOM     12  C   UNL     1      54.544   2.035  18.111  0.00  0.00    +0.000 A 
ATOM     13  C   UNL     1      55.515   2.379  17.186  0.00  0.00    +0.000 A 
ATOM     14  N   UNL     1      55.723   1.485  16.150  0.00  0.00    +0.000 NA
ATOM     15  C   UNL     1      54.961   0.432  16.338  0.00  0.00    +0.000 A 
ATOM     16  S   UNL     1      53.950   0.466  17.719  0.00  0.00    +0.000 S 
ENDBRANCH  10  12
ENDBRANCH   7   9
ENDBRANCH   1   7
BRANCH   4  17
ATOM     17  C   UNL     1      47.148   3.517  16.741  0.00  0.00    +0.000 C 
BRANCH  17  18
ATOM     18  N   UNL     1      46.663   4.466  15.772  0.00  0.00    +0.000 N 
ATOM     19  C   UNL     1      46.752   4.210  14.428  0.00  0.00    +0.000 C 
ATOM     20  O   UNL     1      47.211   3.154  13.995  0.00  0.00    +0.000 OA
ATOM     21  H   UNL     1      46.530   5.422  16.087  0.00  0.00    +0.000 HD
BRANCH  19  22
ATOM     22  C   UNL     1      46.208   5.233  13.530  0.00  0.00    +0.000 A 
ATOM     23  C   UNL     1      46.962   6.357  13.228  0.00  0.00    +0.000 A 
ATOM     24  S   UNL     1      46.200   7.419  12.131  0.00  0.00    +0.000 S 
ATOM     25  C   UNL     1      44.812   6.439  12.063  0.00  0.00    +0.000 A 
ATOM     26  N   UNL     1      43.737   6.795  11.309  0.00  0.00    +0.000 NA
ATOM     27  C   UNL     1      42.739   5.979  11.382  0.00  0.00    +0.000 A 
ATOM     28  N   UNL     1      42.722   4.832  12.133  0.00  0.00    +0.000 N 
ATOM     29  C   UNL     1      43.800   4.409  12.872  0.00  0.00    +0.000 A 
ATOM     30  O   UNL     1      43.775   3.341  13.480  0.00  0.00    +0.000 OA
ATOM     31  C   UNL     1      44.939   5.305  12.847  0.00  0.00    +0.000 A 
ATOM     32  H   UNL     1      41.913   4.226  12.134  0.00  0.00    +0.000 HD
ENDBRANCH  19  22
ENDBRANCH  17  18
ENDBRANCH   4  17
TORSDOF 6
ENDMDL
MODEL 3
REMARK VINA RESULT:    -7.292      2.579      3.216
REMARK INTER + INTRA:         -10.570
REMARK INTER:                  -9.945
REMARK INTRA:                  -0.625
REMARK UNBOUND:                -0.720
REMARK  Name = 
REMARK  7 active torsions:
REMARK  status: ('A' for Active; 'I' for Inactive)
REMARK    1  A    between atoms: C_1  and  N_2
REMARK    2  A    between atoms: N_2  and  C_3
REMARK    3  A    between atoms: C_3  and  C_4
REMARK    4  A    between atoms: C_7  and  C_8
REMARK    5  A    between atoms: C_8  and  N_9
REMARK    6  A    between atoms: C_10  and  C_12
REMARK    7  A    between atoms: C_24  and  C_26
REMARK                            x       y       z     vdW  Elec       q    Type
REMARK                         _______ _______ _______ _____ _____    ______ ____
ROOT
ATOM      1  C   UNL     1      45.529   6.901  11.817  0.00  0.00    +0.000 A 
ATOM      2  C   UNL     1      46.785   6.277  11.816  0.00  0.00    +0.000 A 
ATOM      3  C   UNL     1      47.873   6.868  12.462  0.00  0.00    +0.000 A 
ATOM      4  C   UNL     1      47.721   8.088  13.127  0.00  0.00    +0.000 A 
ATOM      5  C   UNL     1      46.472   8.725  13.104  0.00  0.00    +0.000 A 
ATOM      6  C   UNL     1      45.382   8.134  12.463  0.00  0.00    +0.000 A 
ENDROOT
BRANCH   1   7
ATOM      7  C   UNL     1      44.365   6.265  11.103  0.00  0.00    +0.000 C 
BRANCH   7   9
ATOM      8  C   UNL     1      43.006   5.031  12.857  0.00  0.00    +0.000 C 
ATOM      9  N   UNL     1      43.812   5.017  11.643  0.00  0.00    +0.000 N 
ATOM     10  C   UNL     1      43.775   3.817  10.896  0.00  0.00    +0.000 C 
ATOM     11  O   UNL     1      43.060   2.888  11.281  0.00  0.00    +0.000 OA
BRANCH  10  12
ATOM     12  C   UNL     1      44.570   3.703   9.679  0.00  0.00    +0.000 A 
ATOM     13  C   UNL     1      45.181   4.650   8.876  0.00  0.00    +0.000 A 
ATOM     14  N   UNL     1      45.852   4.175   7.763  0.00  0.00    +0.000 NA
ATOM     15  C   UNL     1      45.810   2.862   7.771  0.00  0.00    +0.000 A 
ATOM     16  S   UNL     1      44.955   2.140   9.066  0.00  0.00    +0.000 S 
ENDBRANCH  10  12
ENDBRANCH   7   9
ENDBRANCH   1   7
BRANCH   4  17
ATOM     17  C   UNL     1      48.880   8.731  13.845  0.00  0.00    +0.000 C 
BRANCH  17  18
ATOM     18  N   UNL     1      49.225   8.011  15.043  0.00  0.00    +0.000 N 
ATOM     19  C   UNL     1      48.683   8.355  16.255  0.00  0.00    +0.000 C 
ATOM     20  O   UNL     1      47.860   9.264  16.365  0.00  0.00    +0.000 OA
ATOM     21  H   UNL     1      50.072   7.452  15.021  0.00  0.00    +0.000 HD
BRANCH  19  22
ATOM     22  C   UNL     1      49.084   7.542  17.406  0.00  0.00    +0.000 A 
ATOM     23  C   UNL     1      49.647   8.151  18.519  0.00  0.00    +0.000 A 
ATOM     24  S   UNL     1      50.007   7.064  19.784  0.00  0.00    +0.000 S 
ATOM     25  C   UNL     1      49.473   5.736  18.868  0.00  0.00    +0.000 A 
ATOM     26  N   UNL     1      49.537   4.470  19.364  0.00  0.00    +0.000 NA
ATOM     27  C   UNL     1      49.136   3.554  18.547  0.00  0.00    +0.000 A 
ATOM     28  N   UNL     1      48.665   3.790  17.281  0.00  0.00    +0.000 N 
ATOM     29  C   UNL     1      48.539   5.054  16.756  0.00  0.00    +0.000 A 
ATOM     30  O   UNL     1      48.050   5.235  15.643  0.00  0.00    +0.000 OA
ATOM     31  C   UNL     1      49.004   6.118  17.624  0.00  0.00    +0.000 A 
ATOM     32  H   UNL     1      48.350   3.029  16.696  0.00  0.00    +0.000 HD
ENDBRANCH  19  22
ENDBRANCH  17  18
ENDBRANCH   4  17
TORSDOF 6
ENDMDL
MODEL 4
REMARK VINA RESULT:    -7.034      1.834      2.379
REMARK INTER + INTRA:         -10.220
REMARK INTER:                  -9.287
REMARK INTRA:                  -0.933
REMARK UNBOUND:                -0.720
REMARK  Name = 
REMARK  7 active torsions:
REMARK  status: ('A' for Active; 'I' for Inactive)
REMARK    1  A    between atoms: C_1  and  N_2
REMARK    2  A    between atoms: N_2  and  C_3
REMARK    3  A    between atoms: C_3  and  C_4
REMARK    4  A    between atoms: C_7  and  C_8
REMARK    5  A    between atoms: C_8  and  N_9
REMARK    6  A    between atoms: C_10  and  C_12
REMARK    7  A    between atoms: C_24  and  C_26
REMARK                            x       y       z     vdW  Elec       q    Type
REMARK                         _______ _______ _______ _____ _____    ______ ____
ROOT
ATOM      1  C   UNL     1      47.202   5.823  13.540  0.00  0.00    +0.000 A 
ATOM      2  C   UNL     1      48.158   6.607  14.202  0.00  0.00    +0.000 A 
ATOM      3  C   UNL     1      48.597   6.264  15.482  0.00  0.00    +0.000 A 
ATOM      4  C   UNL     1      48.095   5.126  16.119  0.00  0.00    +0.000 A 
ATOM      5  C   UNL     1      47.118   4.358  15.468  0.00  0.00    +0.000 A 
ATOM      6  C   UNL     1      46.681   4.696  14.187  0.00  0.00    +0.000 A 
ENDROOT
BRANCH   1   7
ATOM      7  C   UNL     1      46.721   6.210  12.167  0.00  0.00    +0.000 C 
BRANCH   7   9
ATOM      8  C   UNL     1      45.810   8.580  12.205  0.00  0.00    +0.000 C 
ATOM      9  N   UNL     1      45.596   7.146  12.058  0.00  0.00    +0.000 N 
ATOM     10  C   UNL     1      44.339   6.765  11.535  0.00  0.00    +0.000 C 
ATOM     11  O   UNL     1      43.530   7.638  11.209  0.00  0.00    +0.000 OA
BRANCH  10  12
ATOM     12  C   UNL     1      44.025   5.349  11.376  0.00  0.00    +0.000 A 
ATOM     13  C   UNL     1      44.221   4.467  10.328  0.00  0.00    +0.000 A 
ATOM     14  N   UNL     1      43.773   3.172  10.520  0.00  0.00    +0.000 NA
ATOM     15  C   UNL     1      43.307   3.061  11.743  0.00  0.00    +0.000 A 
ATOM     16  S   UNL     1      43.349   4.480  12.700  0.00  0.00    +0.000 S 
ENDBRANCH  10  12
ENDBRANCH   7   9
ENDBRANCH   1   7
BRANCH   4  17
ATOM     17  C   UNL     1      48.571   4.730  17.493  0.00  0.00    +0.000 C 
BRANCH  17  18
ATOM     18  N   UNL     1      49.922   4.233  17.461  0.00  0.00    +0.000 N 
ATOM     19  C   UNL     1      50.753   4.373  18.543  0.00  0.00    +0.000 C 
ATOM     20  O   UNL     1      50.373   4.893  19.591  0.00  0.00    +0.000 OA
ATOM     21  H   UNL     1      50.326   4.047  16.548  0.00  0.00    +0.000 HD
BRANCH  19  22
ATOM     22  C   UNL     1      52.099   3.812  18.412  0.00  0.00    +0.000 A 
ATOM     23  C   UNL     1      53.203   4.579  18.756  0.00  0.00    +0.000 A 
ATOM     24  S   UNL     1      54.688   3.753  18.590  0.00  0.00    +0.000 S 
ATOM     25  C   UNL     1      53.911   2.361  18.002  0.00  0.00    +0.000 A 
ATOM     26  N   UNL     1      54.623   1.262  17.632  0.00  0.00    +0.000 NA
ATOM     27  C   UNL     1      53.909   0.293  17.167  0.00  0.00    +0.000 A 
ATOM     28  N   UNL     1      52.543   0.317  17.048  0.00  0.00    +0.000 N 
ATOM     29  C   UNL     1      51.779   1.385  17.451  0.00  0.00    +0.000 A 
ATOM     30  O   UNL     1      50.552   1.348  17.394  0.00  0.00    +0.000 OA
ATOM     31  C   UNL     1      52.536   2.514  17.956  0.00  0.00    +0.000 A 
ATOM     32  H   UNL     1      52.040  -0.483  16.690  0.00  0.00    +0.000 HD
ENDBRANCH  19  22
ENDBRANCH  17  18
ENDBRANCH   4  17
TORSDOF 6
ENDMDL
MODEL 5
REMARK VINA RESULT:    -7.025      2.544      8.481
REMARK INTER + INTRA:         -10.208
REMARK INTER:                  -9.173
REMARK INTRA:                  -1.035
REMARK UNBOUND:                -0.720
REMARK  Name = 
REMARK  7 active torsions:
REMARK  status: ('A' for Active; 'I' for Inactive)
REMARK    1  A    between atoms: C_1  and  N_2
REMARK    2  A    between atoms: N_2  and  C_3
REMARK    3  A    between atoms: C_3  and  C_4
REMARK    4  A    between atoms: C_7  and  C_8
REMARK    5  A    between atoms: C_8  and  N_9
REMARK    6  A    between atoms: C_10  and  C_12
REMARK    7  A    between atoms: C_24  and  C_26
REMARK                            x       y       z     vdW  Elec       q    Type
REMARK                         _______ _______ _______ _____ _____    ______ ____
ROOT
ATOM      1  C   UNL     1      49.069   7.763  16.133  0.00  0.00    +0.000 A 
ATOM      2  C   UNL     1      49.566   6.864  15.178  0.00  0.00    +0.000 A 
ATOM      3  C   UNL     1      49.258   7.019  13.825  0.00  0.00    +0.000 A 
ATOM      4  C   UNL     1      48.453   8.080  13.402  0.00  0.00    +0.000 A 
ATOM      5  C   UNL     1      47.933   8.963  14.359  0.00  0.00    +0.000 A 
ATOM      6  C   UNL     1      48.244   8.814  15.711  0.00  0.00    +0.000 A 
ENDROOT
BRANCH   1   7
ATOM      7  C   UNL     1      49.393   7.580  17.591  0.00  0.00    +0.000 C 
BRANCH   7   9
ATOM      8  C   UNL     1      47.532   8.302  19.160  0.00  0.00    +0.000 C 
ATOM      9  N   UNL     1      48.300   7.247  18.513  0.00  0.00    +0.000 N 
ATOM     10  C   UNL     1      47.753   5.947  18.604  0.00  0.00    +0.000 C 
ATOM     11  O   UNL     1      46.672   5.785  19.177  0.00  0.00    +0.000 OA
BRANCH  10  12
ATOM     12  C   UNL     1      48.465   4.822  18.007  0.00  0.00    +0.000 A 
ATOM     13  C   UNL     1      48.185   4.020  16.915  0.00  0.00    +0.000 A 
ATOM     14  N   UNL     1      49.094   3.012  16.642  0.00  0.00    +0.000 NA
ATOM     15  C   UNL     1      50.097   3.105  17.484  0.00  0.00    +0.000 A 
ATOM     16  S   UNL     1      49.996   4.357  18.647  0.00  0.00    +0.000 S 
ENDBRANCH  10  12
ENDBRANCH   7   9
ENDBRANCH   1   7
BRANCH   4  17
ATOM     17  C   UNL     1      48.125   8.273  11.943  0.00  0.00    +0.000 C 
BRANCH  17  18
ATOM     18  N   UNL     1      47.487   7.108  11.387  0.00  0.00    +0.000 N 
ATOM     19  C   UNL     1      46.123   6.967  11.421  0.00  0.00    +0.000 C 
ATOM     20  O   UNL     1      45.390   7.836  11.891  0.00  0.00    +0.000 OA
ATOM     21  H   UNL     1      48.066   6.288  11.240  0.00  0.00    +0.000 HD
BRANCH  19  22
ATOM     22  C   UNL     1      45.576   5.754  10.807  0.00  0.00    +0.000 A 
ATOM     23  C   UNL     1      45.775   5.517   9.454  0.00  0.00    +0.000 A 
ATOM     24  S   UNL     1      45.116   4.037   8.916  0.00  0.00    +0.000 S 
ATOM     25  C   UNL     1      44.496   3.689  10.459  0.00  0.00    +0.000 A 
ATOM     26  N   UNL     1      43.779   2.556  10.689  0.00  0.00    +0.000 NA
ATOM     27  C   UNL     1      43.336   2.438  11.896  0.00  0.00    +0.000 A 
ATOM     28  N   UNL     1      43.554   3.347  12.899  0.00  0.00    +0.000 N 
ATOM     29  C   UNL     1      44.310   4.480  12.726  0.00  0.00    +0.000 A 
ATOM     30  O   UNL     1      44.542   5.240  13.664  0.00  0.00    +0.000 OA
ATOM     31  C   UNL     1      44.808   4.675  11.379  0.00  0.00    +0.000 A 
ATOM     32  H   UNL     1      43.192   3.187  13.829  0.00  0.00    +0.000 HD
ENDBRANCH  19  22
ENDBRANCH  17  18
ENDBRANCH   4  17
TORSDOF 6
ENDMDL
MODEL 6
REMARK VINA RESULT:    -6.937      2.858      8.803
REMARK INTER + INTRA:         -10.089
REMARK INTER:                  -8.965
REMARK INTRA:                  -1.124
REMARK UNBOUND:                -0.720
REMARK  Name = 
REMARK  7 active torsions:
REMARK  status: ('A' for Active; 'I' for Inactive)
REMARK    1  A    between atoms: C_1  and  N_2
REMARK    2  A    between atoms: N_2  and  C_3
REMARK    3  A    between atoms: C_3  and  C_4
REMARK    4  A    between atoms: C_7  and  C_8
REMARK    5  A    between atoms: C_8  and  N_9
REMARK    6  A    between atoms: C_10  and  C_12
REMARK    7  A    between atoms: C_24  and  C_26
REMARK                            x       y       z     vdW  Elec       q    Type
REMARK                         _______ _______ _______ _____ _____    ______ ____
ROOT
ATOM      1  C   UNL     1      49.011   7.702  15.994  0.00  0.00    +0.000 A 
ATOM      2  C   UNL     1      48.281   8.823  15.570  0.00  0.00    +0.000 A 
ATOM      3  C   UNL     1      47.730   8.869  14.288  0.00  0.00    +0.000 A 
ATOM      4  C   UNL     1      47.892   7.793  13.411  0.00  0.00    +0.000 A 
ATOM      5  C   UNL     1      48.644   6.685  13.825  0.00  0.00    +0.000 A 
ATOM      6  C   UNL     1      49.192   6.634  15.108  0.00  0.00    +0.000 A 
ENDROOT
BRANCH   1   7
ATOM      7  C   UNL     1      49.616   7.668  17.372  0.00  0.00    +0.000 C 
BRANCH   7   9
ATOM      8  C   UNL     1      48.229   8.763  19.195  0.00  0.00    +0.000 C 
ATOM      9  N   UNL     1      48.717   7.563  18.528  0.00  0.00    +0.000 N 
ATOM     10  C   UNL     1      48.059   6.360  18.872  0.00  0.00    +0.000 C 
ATOM     11  O   UNL     1      47.116   6.393  19.667  0.00  0.00    +0.000 OA
BRANCH  10  12
ATOM     12  C   UNL     1      48.496   5.104  18.273  0.00  0.00    +0.000 A 
ATOM     13  C   UNL     1      49.671   4.382  18.383  0.00  0.00    +0.000 A 
ATOM     14  N   UNL     1      49.750   3.216  17.641  0.00  0.00    +0.000 NA
ATOM     15  C   UNL     1      48.603   3.022  17.032  0.00  0.00    +0.000 A 
ATOM     16  S   UNL     1      47.402   4.216  17.281  0.00  0.00    +0.000 S 
ENDBRANCH  10  12
ENDBRANCH   7   9
ENDBRANCH   1   7
BRANCH   4  17
ATOM     17  C   UNL     1      47.288   7.819  12.030  0.00  0.00    +0.000 C 
BRANCH  17  18
ATOM     18  N   UNL     1      46.664   6.563  11.703  0.00  0.00    +0.000 N 
ATOM     19  C   UNL     1      45.322   6.367  11.909  0.00  0.00    +0.000 C 
ATOM     20  O   UNL     1      44.594   7.258  12.344  0.00  0.00    +0.000 OA
ATOM     21  H   UNL     1      47.272   5.757  11.597  0.00  0.00    +0.000 HD
BRANCH  19  22
ATOM     22  C   UNL     1      44.785   5.060  11.520  0.00  0.00    +0.000 A 
ATOM     23  C   UNL     1      44.029   4.329  12.424  0.00  0.00    +0.000 A 
ATOM     24  S   UNL     1      43.441   2.857  11.792  0.00  0.00    +0.000 S 
ATOM     25  C   UNL     1      44.222   3.121  10.305  0.00  0.00    +0.000 A 
ATOM     26  N   UNL     1      44.150   2.206   9.301  0.00  0.00    +0.000 NA
ATOM     27  C   UNL     1      44.822   2.517   8.244  0.00  0.00    +0.000 A 
ATOM     28  N   UNL     1      45.552   3.667   8.094  0.00  0.00    +0.000 N 
ATOM     29  C   UNL     1      45.616   4.640   9.062  0.00  0.00    +0.000 A 
ATOM     30  O   UNL     1      46.225   5.691   8.869  0.00  0.00    +0.000 OA
ATOM     31  C   UNL     1      44.901   4.327  10.283  0.00  0.00    +0.000 A 
ATOM     32  H   UNL     1      46.044   3.860   7.233  0.00  0.00    +0.000 HD
ENDBRANCH  19  22
ENDBRANCH  17  18
ENDBRANCH   4  17
TORSDOF 6
ENDMDL
MODEL 7
REMARK VINA RESULT:    -6.762      5.851      9.049
REMARK INTER + INTRA:          -9.854
REMARK INTER:                  -8.978
REMARK INTRA:                  -0.876
REMARK UNBOUND:                -0.720
REMARK  Name = 
REMARK  7 active torsions:
REMARK  status: ('A' for Active; 'I' for Inactive)
REMARK    1  A    between atoms: C_1  and  N_2
REMARK    2  A    between atoms: N_2  and  C_3
REMARK    3  A    between atoms: C_3  and  C_4
REMARK    4  A    between atoms: C_7  and  C_8
REMARK    5  A    between atoms: C_8  and  N_9
REMARK    6  A    between atoms: C_10  and  C_12
REMARK    7  A    between atoms: C_24  and  C_26
REMARK                            x       y       z     vdW  Elec       q    Type
REMARK                         _______ _______ _______ _____ _____    ______ ____
ROOT
ATOM      1  C   UNL     1      50.292   8.970  11.350  0.00  0.00    +0.000 A 
ATOM      2  C   UNL     1      49.919   7.630  11.530  0.00  0.00    +0.000 A 
ATOM      3  C   UNL     1      48.682   7.304  12.090  0.00  0.00    +0.000 A 
ATOM      4  C   UNL     1      47.793   8.312  12.473  0.00  0.00    +0.000 A 
ATOM      5  C   UNL     1      48.178   9.651  12.319  0.00  0.00    +0.000 A 
ATOM      6  C   UNL     1      49.411   9.980  11.755  0.00  0.00    +0.000 A 
ENDROOT
BRANCH   1   7
ATOM      7  C   UNL     1      51.634   9.312  10.761  0.00  0.00    +0.000 C 
BRANCH   7   9
ATOM      8  C   UNL     1      53.194   8.535  12.607  0.00  0.00    +0.000 C 
ATOM      9  N   UNL     1      52.807   8.548  11.203  0.00  0.00    +0.000 N 
ATOM     10  C   UNL     1      53.436   7.583  10.385  0.00  0.00    +0.000 C 
ATOM     11  O   UNL     1      54.227   6.784  10.893  0.00  0.00    +0.000 OA
BRANCH  10  12
ATOM     12  C   UNL     1      53.130   7.537   8.959  0.00  0.00    +0.000 A 
ATOM     13  C   UNL     1      52.442   6.617   8.186  0.00  0.00    +0.000 A 
ATOM     14  N   UNL     1      52.358   6.891   6.833  0.00  0.00    +0.000 NA
ATOM     15  C   UNL     1      52.918   8.055   6.599  0.00  0.00    +0.000 A 
ATOM     16  S   UNL     1      53.591   8.857   7.953  0.00  0.00    +0.000 S 
ENDBRANCH  10  12
ENDBRANCH   7   9
ENDBRANCH   1   7
BRANCH   4  17
ATOM     17  C   UNL     1      46.447   7.978  13.062  0.00  0.00    +0.000 C 
BRANCH  17  18
ATOM     18  N   UNL     1      45.992   6.679  12.639  0.00  0.00    +0.000 N 
ATOM     19  C   UNL     1      44.933   6.547  11.778  0.00  0.00    +0.000 C 
ATOM     20  O   UNL     1      44.352   7.524  11.306  0.00  0.00    +0.000 OA
ATOM     21  H   UNL     1      46.274   5.883  13.203  0.00  0.00    +0.000 HD
BRANCH  19  22
ATOM     22  C   UNL     1      44.568   5.181  11.395  0.00  0.00    +0.000 A 
ATOM     23  C   UNL     1      43.782   4.413  12.243  0.00  0.00    +0.000 A 
ATOM     24  S   UNL     1      43.410   2.869  11.619  0.00  0.00    +0.000 S 
ATOM     25  C   UNL     1      44.331   3.153  10.218  0.00  0.00    +0.000 A 
ATOM     26  N   UNL     1      44.460   2.198   9.257  0.00  0.00    +0.000 NA
ATOM     27  C   UNL     1      45.219   2.534   8.268  0.00  0.00    +0.000 A 
ATOM     28  N   UNL     1      45.853   3.744   8.147  0.00  0.00    +0.000 N 
ATOM     29  C   UNL     1      45.714   4.753   9.068  0.00  0.00    +0.000 A 
ATOM     30  O   UNL     1      46.241   5.850   8.894  0.00  0.00    +0.000 OA
ATOM     31  C   UNL     1      44.894   4.417  10.214  0.00  0.00    +0.000 A 
ATOM     32  H   UNL     1      46.421   3.951   7.337  0.00  0.00    +0.000 HD
ENDBRANCH  19  22
ENDBRANCH  17  18
ENDBRANCH   4  17
TORSDOF 6
ENDMDL
MODEL 8
REMARK VINA RESULT:    -6.608      2.557      9.134
REMARK INTER + INTRA:          -9.645
REMARK INTER:                  -8.715
REMARK INTRA:                  -0.930
REMARK UNBOUND:                -0.720
REMARK  Name = 
REMARK  7 active torsions:
REMARK  status: ('A' for Active; 'I' for Inactive)
REMARK    1  A    between atoms: C_1  and  N_2
REMARK    2  A    between atoms: N_2  and  C_3
REMARK    3  A    between atoms: C_3  and  C_4
REMARK    4  A    between atoms: C_7  and  C_8
REMARK    5  A    between atoms: C_8  and  N_9
REMARK    6  A    between atoms: C_10  and  C_12
REMARK    7  A    between atoms: C_24  and  C_26
REMARK                            x       y       z     vdW  Elec       q    Type
REMARK                         _______ _______ _______ _____ _____    ______ ____
ROOT
ATOM      1  C   UNL     1      48.267   7.279  14.590  0.00  0.00    +0.000 A 
ATOM      2  C   UNL     1      47.718   8.379  13.915  0.00  0.00    +0.000 A 
ATOM      3  C   UNL     1      46.774   8.195  12.903  0.00  0.00    +0.000 A 
ATOM      4  C   UNL     1      46.358   6.908  12.552  0.00  0.00    +0.000 A 
ATOM      5  C   UNL     1      46.927   5.807  13.206  0.00  0.00    +0.000 A 
ATOM      6  C   UNL     1      47.867   5.988  14.223  0.00  0.00    +0.000 A 
ENDROOT
BRANCH   1   7
ATOM      7  C   UNL     1      49.296   7.486  15.669  0.00  0.00    +0.000 C 
BRANCH   7   9
ATOM      8  C   UNL     1      48.451   9.099  17.438  0.00  0.00    +0.000 C 
ATOM      9  N   UNL     1      48.832   7.751  17.036  0.00  0.00    +0.000 N 
ATOM     10  C   UNL     1      48.458   6.718  17.925  0.00  0.00    +0.000 C 
ATOM     11  O   UNL     1      47.821   6.998  18.943  0.00  0.00    +0.000 OA
BRANCH  10  12
ATOM     12  C   UNL     1      48.818   5.338  17.617  0.00  0.00    +0.000 A 
ATOM     13  C   UNL     1      50.042   4.708  17.470  0.00  0.00    +0.000 A 
ATOM     14  N   UNL     1      50.008   3.362  17.152  0.00  0.00    +0.000 NA
ATOM     15  C   UNL     1      48.757   2.961  17.134  0.00  0.00    +0.000 A 
ATOM     16  S   UNL     1      47.575   4.156  17.458  0.00  0.00    +0.000 S 
ENDBRANCH  10  12
ENDBRANCH   7   9
ENDBRANCH   1   7
BRANCH   4  17
ATOM     17  C   UNL     1      45.327   6.691  11.474  0.00  0.00    +0.000 C 
BRANCH  17  18
ATOM     18  N   UNL     1      45.566   5.468  10.752  0.00  0.00    +0.000 N 
ATOM     19  C   UNL     1      44.528   4.754  10.210  0.00  0.00    +0.000 C 
ATOM     20  O   UNL     1      43.363   5.142  10.284  0.00  0.00    +0.000 OA
ATOM     21  H   UNL     1      46.458   5.008  10.904  0.00  0.00    +0.000 HD
BRANCH  19  22
ATOM     22  C   UNL     1      44.884   3.537   9.477  0.00  0.00    +0.000 A 
ATOM     23  C   UNL     1      44.249   2.340   9.777  0.00  0.00    +0.000 A 
ATOM     24  S   UNL     1      44.747   1.036   8.795  0.00  0.00    +0.000 S 
ATOM     25  C   UNL     1      45.869   2.013   7.973  0.00  0.00    +0.000 A 
ATOM     26  N   UNL     1      46.668   1.498   7.000  0.00  0.00    +0.000 NA
ATOM     27  C   UNL     1      47.499   2.343   6.487  0.00  0.00    +0.000 A 
ATOM     28  N   UNL     1      47.596   3.661   6.851  0.00  0.00    +0.000 N 
ATOM     29  C   UNL     1      46.780   4.235   7.794  0.00  0.00    +0.000 A 
ATOM     30  O   UNL     1      46.847   5.436   8.049  0.00  0.00    +0.000 OA
ATOM     31  C   UNL     1      45.846   3.322   8.423  0.00  0.00    +0.000 A 
ATOM     32  H   UNL     1      48.258   4.275   6.398  0.00  0.00    +0.000 HD
ENDBRANCH  19  22
ENDBRANCH  17  18
ENDBRANCH   4  17
TORSDOF 6
ENDMDL
MODEL 9
REMARK VINA RESULT:    -6.532      3.721      4.454
REMARK INTER + INTRA:          -9.543
REMARK INTER:                  -8.766
REMARK INTRA:                  -0.778
REMARK UNBOUND:                -0.720
REMARK  Name = 
REMARK  7 active torsions:
REMARK  status: ('A' for Active; 'I' for Inactive)
REMARK    1  A    between atoms: C_1  and  N_2
REMARK    2  A    between atoms: N_2  and  C_3
REMARK    3  A    between atoms: C_3  and  C_4
REMARK    4  A    between atoms: C_7  and  C_8
REMARK    5  A    between atoms: C_8  and  N_9
REMARK    6  A    between atoms: C_10  and  C_12
REMARK    7  A    between atoms: C_24  and  C_26
REMARK                            x       y       z     vdW  Elec       q    Type
REMARK                         _______ _______ _______ _____ _____    ______ ____
ROOT
ATOM      1  C   UNL     1      46.361   4.639  13.030  0.00  0.00    +0.000 A 
ATOM      2  C   UNL     1      46.735   5.757  12.271  0.00  0.00    +0.000 A 
ATOM      3  C   UNL     1      47.680   6.663  12.757  0.00  0.00    +0.000 A 
ATOM      4  C   UNL     1      48.274   6.462  14.006  0.00  0.00    +0.000 A 
ATOM      5  C   UNL     1      47.879   5.359  14.777  0.00  0.00    +0.000 A 
ATOM      6  C   UNL     1      46.938   4.449  14.291  0.00  0.00    +0.000 A 
ENDROOT
BRANCH   1   7
ATOM      7  C   UNL     1      45.329   3.677  12.506  0.00  0.00    +0.000 C 
BRANCH   7   9
ATOM      8  C   UNL     1      43.071   4.642  13.152  0.00  0.00    +0.000 C 
ATOM      9  N   UNL     1      44.011   4.202  12.129  0.00  0.00    +0.000 N 
ATOM     10  C   UNL     1      43.692   4.574  10.803  0.00  0.00    +0.000 C 
ATOM     11  O   UNL     1      42.688   5.259  10.593  0.00  0.00    +0.000 OA
BRANCH  10  12
ATOM     12  C   UNL     1      44.563   4.157   9.710  0.00  0.00    +0.000 A 
ATOM     13  C   UNL     1      45.503   4.840   8.959  0.00  0.00    +0.000 A 
ATOM     14  N   UNL     1      46.143   4.117   7.967  0.00  0.00    +0.000 NA
ATOM     15  C   UNL     1      45.738   2.869   8.022  0.00  0.00    +0.000 A 
ATOM     16  S   UNL     1      44.568   2.505   9.218  0.00  0.00    +0.000 S 
ENDBRANCH  10  12
ENDBRANCH   7   9
ENDBRANCH   1   7
BRANCH   4  17
ATOM     17  C   UNL     1      49.309   7.419  14.539  0.00  0.00    +0.000 C 
BRANCH  17  18
ATOM     18  N   UNL     1      49.033   7.792  15.902  0.00  0.00    +0.000 N 
ATOM     19  C   UNL     1      48.281   8.901  16.192  0.00  0.00    +0.000 C 
ATOM     20  O   UNL     1      47.785   9.600  15.310  0.00  0.00    +0.000 OA
ATOM     21  H   UNL     1      49.632   7.398  16.620  0.00  0.00    +0.000 HD
BRANCH  19  22
ATOM     22  C   UNL     1      48.042   9.176  17.611  0.00  0.00    +0.000 A 
ATOM     23  C   UNL     1      47.996  10.487  18.062  0.00  0.00    +0.000 A 
ATOM     24  S   UNL     1      47.658  10.627  19.729  0.00  0.00    +0.000 S 
ATOM     25  C   UNL     1      47.615   8.938  19.917  0.00  0.00    +0.000 A 
ATOM     26  N   UNL     1      47.395   8.372  21.135  0.00  0.00    +0.000 NA
ATOM     27  C   UNL     1      47.428   7.081  21.139  0.00  0.00    +0.000 A 
ATOM     28  N   UNL     1      47.650   6.303  20.032  0.00  0.00    +0.000 N 
ATOM     29  C   UNL     1      47.830   6.828  18.776  0.00  0.00    +0.000 A 
ATOM     30  O   UNL     1      47.959   6.100  17.793  0.00  0.00    +0.000 OA
ATOM     31  C   UNL     1      47.831   8.277  18.720  0.00  0.00    +0.000 A 
ATOM     32  H   UNL     1      47.647   5.295  20.099  0.00  0.00    +0.000 HD
ENDBRANCH  19  22
ENDBRANCH  17  18
ENDBRANCH   4  17
TORSDOF 6
ENDMDL
