MODEL 1
REMARK VINA RESULT:    -8.403      0.000      0.000
REMARK INTER + INTRA:         -12.442
REMARK INTER:                 -11.841
REMARK INTRA:                  -0.601
REMARK UNBOUND:                -0.601
REMARK  Name = 
REMARK  9 active torsions:
REMARK  status: ('A' for Active; 'I' for Inactive)
REMARK    1  A    between atoms: C_1  and  O_2
REMARK    2  A    between atoms: O_2  and  C_3
REMARK    3  A    between atoms: C_7  and  N_8
REMARK    4  A    between atoms: N_8  and  C_9
REMARK    5  A    between atoms: N_8  and  C_10
REMARK    6  A    between atoms: C_10  and  C_11
REMARK    7  A    between atoms: C_14  and  C_15
REMARK    8  A    between atoms: C_15  and  N_16
REMARK    9  A    between atoms: C_17  and  C_19
REMARK                            x       y       z     vdW  Elec       q    Type
REMARK                         _______ _______ _______ _____ _____    ______ ____
ROOT
ATOM      1  C   UNL     1      44.272   5.878  11.688  0.00  0.00    +0.000 A 
ATOM      2  C   UNL     1      44.453   7.245  11.439  0.00  0.00    +0.000 A 
ATOM      3  C   UNL     1      45.500   7.949  12.043  0.00  0.00    +0.000 A 
ATOM      4  C   UNL     1      46.395   7.297  12.901  0.00  0.00    +0.000 A 
ATOM      5  C   UNL     1      46.195   5.937  13.176  0.00  0.00    +0.000 A 
ATOM      6  C   UNL     1      45.152   5.233  12.568  0.00  0.00    +0.000 A 
ENDROOT
BRANCH   1   7
ATOM      7  C   UNL     1      43.177   5.094  10.991  0.00  0.00    +0.000 C 
BRANCH   7   8
ATOM      8  N   UNL     1      43.609   3.718  10.762  0.00  0.00    +0.000 N 
ATOM      9  C   UNL     1      43.305   2.725  11.775  0.00  0.00    +0.000 C 
BRANCH   8  14
ATOM     10  C   UNL     1      45.721   1.905   8.506  0.00  0.00    +0.000 A 
ATOM     11  C   UNL     1      46.254   2.864   7.669  0.00  0.00    +0.000 A 
ATOM     12  C   UNL     1      45.882   4.180   7.884  0.00  0.00    +0.000 A 
ATOM     13  C   UNL     1      44.989   4.472   8.916  0.00  0.00    +0.000 A 
ATOM     14  C   UNL     1      44.488   3.452   9.728  0.00  0.00    +0.000 A 
ATOM     15  N   UNL     1      44.875   2.175   9.524  0.00  0.00    +0.000 NA
BRANCH  10  17
ATOM     16  C   UNL     1      47.126   0.503   7.278  0.00  0.00    +0.000 C 
ATOM     17  O   UNL     1      46.097   0.598   8.258  0.00  0.00    +0.000 OA
ENDBRANCH  10  17
ENDBRANCH   8  14
ENDBRANCH   7   8
ENDBRANCH   1   7
BRANCH   4  18
ATOM     18  C   UNL     1      47.547   8.039  13.527  0.00  0.00    +0.000 C 
BRANCH  18  19
ATOM     19  N   UNL     1      47.882   7.501  14.819  0.00  0.00    +0.000 N 
ATOM     20  C   UNL     1      49.134   6.997  15.072  0.00  0.00    +0.000 C 
ATOM     21  O   UNL     1      50.030   7.036  14.234  0.00  0.00    +0.000 OA
ATOM     22  H   UNL     1      47.110   7.253  15.430  0.00  0.00    +0.000 HD
BRANCH  20  23
ATOM     23  C   UNL     1      49.371   6.462  16.419  0.00  0.00    +0.000 A 
ATOM     24  C   UNL     1      50.205   7.150  17.293  0.00  0.00    +0.000 A 
ATOM     25  S   UNL     1      50.333   6.423  18.830  0.00  0.00    +0.000 S 
ATOM     26  C   UNL     1      49.321   5.137  18.366  0.00  0.00    +0.000 A 
ATOM     27  N   UNL     1      49.032   4.127  19.231  0.00  0.00    +0.000 NA
ATOM     28  C   UNL     1      48.280   3.200  18.738  0.00  0.00    +0.000 A 
ATOM     29  N   UNL     1      47.788   3.193  17.459  0.00  0.00    +0.000 N 
ATOM     30  C   UNL     1      48.029   4.204  16.559  0.00  0.00    +0.000 A 
ATOM     31  O   UNL     1      47.540   4.187  15.435  0.00  0.00    +0.000 OA
ATOM     32  C   UNL     1      48.878   5.268  17.062  0.00  0.00    +0.000 A 
ATOM     33  H   UNL     1      47.197   2.441  17.134  0.00  0.00    +0.000 HD
ENDBRANCH  20  23
ENDBRANCH  18  19
ENDBRANCH   4  18
TORSDOF 7
ENDMDL
MODEL 2
REMARK VINA RESULT:    -8.094      2.175      2.800
REMARK INTER + INTRA:         -12.007
REMARK INTER:                 -11.222
REMARK INTRA:                  -0.785
REMARK UNBOUND:                -0.601
REMARK  Name = 
REMARK  9 active torsions:
REMARK  status: ('A' for Active; 'I' for Inactive)
REMARK    1  A    between atoms: C_1  and  O_2
REMARK    2  A    between atoms: O_2  and  C_3
REMARK    3  A    between atoms: C_7  and  N_8
REMARK    4  A    between atoms: N_8  and  C_9
REMARK    5  A    between atoms: N_8  and  C_10
REMARK    6  A    between atoms: C_10  and  C_11
REMARK    7  A    between atoms: C_14  and  C_15
REMARK    8  A    between atoms: C_15  and  N_16
REMARK    9  A    between atoms: C_17  and  C_19
REMARK                            x       y       z     vdW  Elec       q    Type
REMARK                         _______ _______ _______ _____ _____    ______ ____
ROOT
ATOM      1  C   UNL     1      45.072   5.622  11.953  0.00  0.00    +0.000 A 
ATOM      2  C   UNL     1      45.940   6.664  11.604  0.00  0.00    +0.000 A 
ATOM      3  C   UNL     1      47.061   6.953  12.389  0.00  0.00    +0.000 A 
ATOM      4  C   UNL     1      47.343   6.196  13.534  0.00  0.00    +0.000 A 
ATOM      5  C   UNL     1      46.457   5.175  13.902  0.00  0.00    +0.000 A 
ATOM      6  C   UNL     1      45.340   4.883  13.114  0.00  0.00    +0.000 A 
ENDROOT
BRANCH   1   7
ATOM      7  C   UNL     1      43.888   5.263  11.075  0.00  0.00    +0.000 C 
BRANCH   7   8
ATOM      8  N   UNL     1      43.955   3.856  10.688  0.00  0.00    +0.000 N 
ATOM      9  C   UNL     1      43.386   2.868  11.586  0.00  0.00    +0.000 C 
BRANCH   8  14
ATOM     10  C   UNL     1      45.843   1.818   8.425  0.00  0.00    +0.000 A 
ATOM     11  C   UNL     1      46.360   2.701   7.499  0.00  0.00    +0.000 A 
ATOM     12  C   UNL     1      46.057   4.043   7.653  0.00  0.00    +0.000 A 
ATOM     13  C   UNL     1      45.244   4.436   8.718  0.00  0.00    +0.000 A 
ATOM     14  C   UNL     1      44.755   3.490   9.621  0.00  0.00    +0.000 A 
ATOM     15  N   UNL     1      45.075   2.187   9.474  0.00  0.00    +0.000 NA
BRANCH  10  17
ATOM     16  C   UNL     1      47.123   0.286   7.218  0.00  0.00    +0.000 C 
ATOM     17  O   UNL     1      46.148   0.484   8.236  0.00  0.00    +0.000 OA
ENDBRANCH  10  17
ENDBRANCH   8  14
ENDBRANCH   7   8
ENDBRANCH   1   7
BRANCH   4  18
ATOM     18  C   UNL     1      48.568   6.477  14.365  0.00  0.00    +0.000 C 
BRANCH  18  19
ATOM     19  N   UNL     1      48.229   6.709  15.744  0.00  0.00    +0.000 N 
ATOM     20  C   UNL     1      48.880   6.044  16.754  0.00  0.00    +0.000 C 
ATOM     21  O   UNL     1      49.809   5.273  16.529  0.00  0.00    +0.000 OA
ATOM     22  H   UNL     1      47.334   7.150  15.931  0.00  0.00    +0.000 HD
BRANCH  20  23
ATOM     23  C   UNL     1      48.451   6.344  18.127  0.00  0.00    +0.000 A 
ATOM     24  C   UNL     1      48.354   5.315  19.055  0.00  0.00    +0.000 A 
ATOM     25  S   UNL     1      47.895   5.839  20.611  0.00  0.00    +0.000 S 
ATOM     26  C   UNL     1      47.760   7.452  20.087  0.00  0.00    +0.000 A 
ATOM     27  N   UNL     1      47.372   8.435  20.943  0.00  0.00    +0.000 NA
ATOM     28  C   UNL     1      47.278   9.606  20.406  0.00  0.00    +0.000 A 
ATOM     29  N   UNL     1      47.542   9.883  19.090  0.00  0.00    +0.000 N 
ATOM     30  C   UNL     1      47.964   8.929  18.195  0.00  0.00    +0.000 A 
ATOM     31  O   UNL     1      48.230   9.217  17.034  0.00  0.00    +0.000 OA
ATOM     32  C   UNL     1      48.075   7.592  18.747  0.00  0.00    +0.000 A 
ATOM     33  H   UNL     1      47.458  10.823  18.731  0.00  0.00    +0.000 HD
ENDBRANCH  20  23
ENDBRANCH  18  19
ENDBRANCH   4  18
TORSDOF 7
ENDMDL
MODEL 3
REMARK VINA RESULT:    -7.690      2.798      8.093
REMARK INTER + INTRA:         -11.437
REMARK INTER:                 -10.016
REMARK INTRA:                  -1.422
REMARK UNBOUND:                -0.601
REMARK  Name = 
REMARK  9 active torsions:
REMARK  status: ('A' for Active; 'I' for Inactive)
REMARK    1  A    between atoms: C_1  and  O_2
REMARK    2  A    between atoms: O_2  and  C_3
REMARK    3  A    between atoms: C_7  and  N_8
REMARK    4  A    between atoms: N_8  and  C_9
REMARK    5  A    between atoms: N_8  and  C_10
REMARK    6  A    between atoms: C_10  and  C_11
REMARK    7  A    between atoms: C_14  and  C_15
REMARK    8  A    between atoms: C_15  and  N_16
REMARK    9  A    between atoms: C_17  and  C_19
REMARK                            x       y       z     vdW  Elec       q    Type
REMARK                         _______ _______ _______ _____ _____    ______ ____
ROOT
ATOM      1  C   UNL     1      49.682   8.022  15.302  0.00  0.00    +0.000 A 
ATOM      2  C   UNL     1      48.413   8.617  15.316  0.00  0.00    +0.000 A 
ATOM      3  C   UNL     1      47.623   8.638  14.162  0.00  0.00    +0.000 A 
ATOM      4  C   UNL     1      48.080   8.052  12.974  0.00  0.00    +0.000 A 
ATOM      5  C   UNL     1      49.361   7.486  12.952  0.00  0.00    +0.000 A 
ATOM      6  C   UNL     1      50.149   7.460  14.106  0.00  0.00    +0.000 A 
ENDROOT
BRANCH   1   7
ATOM      7  C   UNL     1      50.521   7.941  16.564  0.00  0.00    +0.000 C 
BRANCH   7   8
ATOM      8  N   UNL     1      50.614   6.557  17.020  0.00  0.00    +0.000 N 
ATOM      9  C   UNL     1      51.913   5.910  16.990  0.00  0.00    +0.000 C 
BRANCH   8  14
ATOM     10  C   UNL     1      47.889   4.300  16.459  0.00  0.00    +0.000 A 
ATOM     11  C   UNL     1      47.123   4.376  17.605  0.00  0.00    +0.000 A 
ATOM     12  C   UNL     1      47.551   5.232  18.606  0.00  0.00    +0.000 A 
ATOM     13  C   UNL     1      48.726   5.961  18.418  0.00  0.00    +0.000 A 
ATOM     14  C   UNL     1      49.453   5.838  17.232  0.00  0.00    +0.000 A 
ATOM     15  N   UNL     1      49.015   5.018  16.254  0.00  0.00    +0.000 NA
BRANCH  10  17
ATOM     16  C   UNL     1      47.158   4.080  14.254  0.00  0.00    +0.000 C 
ATOM     17  O   UNL     1      47.447   3.426  15.485  0.00  0.00    +0.000 OA
ENDBRANCH  10  17
ENDBRANCH   8  14
ENDBRANCH   7   8
ENDBRANCH   1   7
BRANCH   4  18
ATOM     18  C   UNL     1      47.219   8.038  11.737  0.00  0.00    +0.000 C 
BRANCH  18  19
ATOM     19  N   UNL     1      46.615   6.750  11.529  0.00  0.00    +0.000 N 
ATOM     20  C   UNL     1      45.251   6.595  11.559  0.00  0.00    +0.000 C 
ATOM     21  O   UNL     1      44.493   7.550  11.706  0.00  0.00    +0.000 OA
ATOM     22  H   UNL     1      47.213   5.937  11.637  0.00  0.00    +0.000 HD
BRANCH  20  23
ATOM     23  C   UNL     1      44.734   5.237  11.345  0.00  0.00    +0.000 A 
ATOM     24  C   UNL     1      43.991   4.621  12.345  0.00  0.00    +0.000 A 
ATOM     25  S   UNL     1      43.424   3.070  11.918  0.00  0.00    +0.000 S 
ATOM     26  C   UNL     1      44.195   3.146  10.403  0.00  0.00    +0.000 A 
ATOM     27  N   UNL     1      44.125   2.106   9.530  0.00  0.00    +0.000 NA
ATOM     28  C   UNL     1      44.783   2.283   8.432  0.00  0.00    +0.000 A 
ATOM     29  N   UNL     1      45.501   3.410   8.128  0.00  0.00    +0.000 N 
ATOM     30  C   UNL     1      45.578   4.497   8.965  0.00  0.00    +0.000 A 
ATOM     31  O   UNL     1      46.197   5.505   8.645  0.00  0.00    +0.000 OA
ATOM     32  C   UNL     1      44.863   4.344  10.218  0.00  0.00    +0.000 A 
ATOM     33  H   UNL     1      45.989   3.492   7.248  0.00  0.00    +0.000 HD
ENDBRANCH  20  23
ENDBRANCH  18  19
ENDBRANCH   4  18
TORSDOF 7
ENDMDL
MODEL 4
REMARK VINA RESULT:    -7.623      3.202      7.696
REMARK INTER + INTRA:         -11.343
REMARK INTER:                  -9.797
REMARK INTRA:                  -1.546
REMARK UNBOUND:                -0.601
REMARK  Name = 
REMARK  9 active torsions:
REMARK  status: ('A' for Active; 'I' for Inactive)
REMARK    1  A    between atoms: C_1  and  O_2
REMARK    2  A    between atoms: O_2  and  C_3
REMARK    3  A    between atoms: C_7  and  N_8
REMARK    4  A    between atoms: N_8  and  C_9
REMARK    5  A    between atoms: N_8  and  C_10
REMARK    6  A    between atoms: C_10  and  C_11
REMARK    7  A    between atoms: C_14  and  C_15
REMARK    8  A    between atoms: C_15  and  N_16
REMARK    9  A    between atoms: C_17  and  C_19
REMARK                            x       y       z     vdW  Elec       q    Type
REMARK                         _______ _______ _______ _____ _____    ______ ____
ROOT
ATOM      1  C   UNL     1      49.779   7.134  17.608  0.00  0.00    +0.000 A 
ATOM      2  C   UNL     1      48.781   8.111  17.718  0.00  0.00    +0.000 A 
ATOM      3  C   UNL     1      48.233   8.703  16.575  0.00  0.00    +0.000 A 
ATOM      4  C   UNL     1      48.663   8.320  15.297  0.00  0.00    +0.000 A 
ATOM      5  C   UNL     1      49.684   7.366  15.189  0.00  0.00    +0.000 A 
ATOM      6  C   UNL     1      50.228   6.771  16.330  0.00  0.00    +0.000 A 
ENDROOT
BRANCH   1   7
ATOM      7  C   UNL     1      50.336   6.444  18.838  0.00  0.00    +0.000 C 
BRANCH   7   8
ATOM      8  N   UNL     1      49.419   5.400  19.290  0.00  0.00    +0.000 N 
ATOM      9  C   UNL     1      49.231   5.221  20.718  0.00  0.00    +0.000 C 
BRANCH   8  14
ATOM     10  C   UNL     1      49.366   2.634  17.014  0.00  0.00    +0.000 A 
ATOM     11  C   UNL     1      48.071   2.589  16.538  0.00  0.00    +0.000 A 
ATOM     12  C   UNL     1      47.183   3.541  17.009  0.00  0.00    +0.000 A 
ATOM     13  C   UNL     1      47.628   4.483  17.938  0.00  0.00    +0.000 A 
ATOM     14  C   UNL     1      48.953   4.472  18.377  0.00  0.00    +0.000 A 
ATOM     15  N   UNL     1      49.817   3.553  17.894  0.00  0.00    +0.000 NA
BRANCH  10  17
ATOM     16  C   UNL     1      51.397   1.531  17.339  0.00  0.00    +0.000 C 
ATOM     17  O   UNL     1      50.226   1.661  16.539  0.00  0.00    +0.000 OA
ENDBRANCH  10  17
ENDBRANCH   8  14
ENDBRANCH   7   8
ENDBRANCH   1   7
BRANCH   4  18
ATOM     18  C   UNL     1      48.052   8.926  14.061  0.00  0.00    +0.000 C 
BRANCH  18  19
ATOM     19  N   UNL     1      46.884   8.201  13.640  0.00  0.00    +0.000 N 
ATOM     20  C   UNL     1      46.949   7.287  12.617  0.00  0.00    +0.000 C 
ATOM     21  O   UNL     1      48.008   7.009  12.063  0.00  0.00    +0.000 OA
ATOM     22  H   UNL     1      45.982   8.576  13.919  0.00  0.00    +0.000 HD
BRANCH  20  23
ATOM     23  C   UNL     1      45.697   6.608  12.257  0.00  0.00    +0.000 A 
ATOM     24  C   UNL     1      44.648   7.344  11.721  0.00  0.00    +0.000 A 
ATOM     25  S   UNL     1      43.289   6.398  11.310  0.00  0.00    +0.000 S 
ATOM     26  C   UNL     1      44.036   4.980  11.881  0.00  0.00    +0.000 A 
ATOM     27  N   UNL     1      43.389   3.785  11.842  0.00  0.00    +0.000 NA
ATOM     28  C   UNL     1      44.058   2.798  12.338  0.00  0.00    +0.000 A 
ATOM     29  N   UNL     1      45.318   2.898  12.866  0.00  0.00    +0.000 N 
ATOM     30  C   UNL     1      46.023   4.077  12.902  0.00  0.00    +0.000 A 
ATOM     31  O   UNL     1      47.165   4.125  13.345  0.00  0.00    +0.000 OA
ATOM     32  C   UNL     1      45.310   5.221  12.364  0.00  0.00    +0.000 A 
ATOM     33  H   UNL     1      45.793   2.086  13.232  0.00  0.00    +0.000 HD
ENDBRANCH  20  23
ENDBRANCH  18  19
ENDBRANCH   4  18
TORSDOF 7
ENDMDL
MODEL 5
REMARK VINA RESULT:    -7.584      1.586      2.123
REMARK INTER + INTRA:         -11.288
REMARK INTER:                 -10.092
REMARK INTRA:                  -1.196
REMARK UNBOUND:                -0.601
REMARK  Name = 
REMARK  9 active torsions:
REMARK  status: ('A' for Active; 'I' for Inactive)
REMARK    1  A    between atoms: C_1  and  O_2
REMARK    2  A    between atoms: O_2  and  C_3
REMARK    3  A    between atoms: C_7  and  N_8
REMARK    4  A    between atoms: N_8  and  C_9
REMARK    5  A    between atoms: N_8  and  C_10
REMARK    6  A    between atoms: C_10  and  C_11
REMARK    7  A    between atoms: C_14  and  C_15
REMARK    8  A    between atoms: C_15  and  N_16
REMARK    9  A    between atoms: C_17  and  C_19
REMARK                            x       y       z     vdW  Elec       q    Type
REMARK                         _______ _______ _______ _____ _____    ______ ____
ROOT
ATOM      1  C   UNL     1      45.679   7.285  11.766  0.00  0.00    +0.000 A 
ATOM      2  C   UNL     1      46.924   6.652  11.670  0.00  0.00    +0.000 A 
ATOM      3  C   UNL     1      48.019   7.113  12.409  0.00  0.00    +0.000 A 
ATOM      4  C   UNL     1      47.885   8.210  13.271  0.00  0.00    +0.000 A 
ATOM      5  C   UNL     1      46.647   8.863  13.342  0.00  0.00    +0.000 A 
ATOM      6  C   UNL     1      45.553   8.400  12.607  0.00  0.00    +0.000 A 
ENDROOT
BRANCH   1   7
ATOM      7  C   UNL     1      44.472   6.756  11.014  0.00  0.00    +0.000 C 
BRANCH   7   8
ATOM      8  N   UNL     1      44.281   5.337  11.302  0.00  0.00    +0.000 N 
ATOM      9  C   UNL     1      44.007   4.946  12.673  0.00  0.00    +0.000 C 
BRANCH   8  14
ATOM     10  C   UNL     1      45.606   3.907   8.296  0.00  0.00    +0.000 A 
ATOM     11  C   UNL     1      45.261   2.572   8.355  0.00  0.00    +0.000 A 
ATOM     12  C   UNL     1      44.546   2.144   9.461  0.00  0.00    +0.000 A 
ATOM     13  C   UNL     1      44.220   3.066  10.457  0.00  0.00    +0.000 A 
ATOM     14  C   UNL     1      44.600   4.404  10.333  0.00  0.00    +0.000 A 
ATOM     15  N   UNL     1      45.277   4.816   9.241  0.00  0.00    +0.000 NA
BRANCH  10  17
ATOM     16  C   UNL     1      46.695   3.209   6.354  0.00  0.00    +0.000 C 
ATOM     17  O   UNL     1      46.334   4.303   7.190  0.00  0.00    +0.000 OA
ENDBRANCH  10  17
ENDBRANCH   8  14
ENDBRANCH   7   8
ENDBRANCH   1   7
BRANCH   4  18
ATOM     18  C   UNL     1      49.049   8.690  14.098  0.00  0.00    +0.000 C 
BRANCH  18  19
ATOM     19  N   UNL     1      49.237   7.874  15.268  0.00  0.00    +0.000 N 
ATOM     20  C   UNL     1      48.670   8.219  16.470  0.00  0.00    +0.000 C 
ATOM     21  O   UNL     1      47.937   9.198  16.584  0.00  0.00    +0.000 OA
ATOM     22  H   UNL     1      50.007   7.212  15.249  0.00  0.00    +0.000 HD
BRANCH  20  23
ATOM     23  C   UNL     1      48.931   7.325  17.605  0.00  0.00    +0.000 A 
ATOM     24  C   UNL     1      49.428   7.850  18.792  0.00  0.00    +0.000 A 
ATOM     25  S   UNL     1      49.626   6.689  20.024  0.00  0.00    +0.000 S 
ATOM     26  C   UNL     1      49.105   5.434  19.000  0.00  0.00    +0.000 A 
ATOM     27  N   UNL     1      49.058   4.147  19.438  0.00  0.00    +0.000 NA
ATOM     28  C   UNL     1      48.677   3.293  18.548  0.00  0.00    +0.000 A 
ATOM     29  N   UNL     1      48.333   3.610  17.260  0.00  0.00    +0.000 N 
ATOM     30  C   UNL     1      48.337   4.897  16.780  0.00  0.00    +0.000 A 
ATOM     31  O   UNL     1      47.986   5.152  15.634  0.00  0.00    +0.000 OA
ATOM     32  C   UNL     1      48.769   5.897  17.740  0.00  0.00    +0.000 A 
ATOM     33  H   UNL     1      48.034   2.895  16.612  0.00  0.00    +0.000 HD
ENDBRANCH  20  23
ENDBRANCH  18  19
ENDBRANCH   4  18
TORSDOF 7
ENDMDL
MODEL 6
REMARK VINA RESULT:    -7.518      1.273      1.859
REMARK INTER + INTRA:         -11.195
REMARK INTER:                 -10.065
REMARK INTRA:                  -1.130
REMARK UNBOUND:                -0.601
REMARK  Name = 
REMARK  9 active torsions:
REMARK  status: ('A' for Active; 'I' for Inactive)
REMARK    1  A    between atoms: C_1  and  O_2
REMARK    2  A    between atoms: O_2  and  C_3
REMARK    3  A    between atoms: C_7  and  N_8
REMARK    4  A    between atoms: N_8  and  C_9
REMARK    5  A    between atoms: N_8  and  C_10
REMARK    6  A    between atoms: C_10  and  C_11
REMARK    7  A    between atoms: C_14  and  C_15
REMARK    8  A    between atoms: C_15  and  N_16
REMARK    9  A    between atoms: C_17  and  C_19
REMARK                            x       y       z     vdW  Elec       q    Type
REMARK                         _______ _______ _______ _____ _____    ______ ____
ROOT
ATOM      1  C   UNL     1      45.694   4.858  12.921  0.00  0.00    +0.000 A 
ATOM      2  C   UNL     1      46.843   4.497  13.636  0.00  0.00    +0.000 A 
ATOM      3  C   UNL     1      47.718   5.475  14.121  0.00  0.00    +0.000 A 
ATOM      4  C   UNL     1      47.454   6.835  13.913  0.00  0.00    +0.000 A 
ATOM      5  C   UNL     1      46.322   7.195  13.170  0.00  0.00    +0.000 A 
ATOM      6  C   UNL     1      45.445   6.218  12.689  0.00  0.00    +0.000 A 
ENDROOT
BRANCH   1   7
ATOM      7  C   UNL     1      44.708   3.809  12.443  0.00  0.00    +0.000 C 
BRANCH   7   8
ATOM      8  N   UNL     1      44.166   4.183  11.139  0.00  0.00    +0.000 N 
ATOM      9  C   UNL     1      42.819   4.721  11.085  0.00  0.00    +0.000 C 
BRANCH   8  14
ATOM     10  C   UNL     1      45.666   2.094   8.645  0.00  0.00    +0.000 A 
ATOM     11  C   UNL     1      46.188   2.970   7.714  0.00  0.00    +0.000 A 
ATOM     12  C   UNL     1      46.025   4.325   7.948  0.00  0.00    +0.000 A 
ATOM     13  C   UNL     1      45.341   4.738   9.093  0.00  0.00    +0.000 A 
ATOM     14  C   UNL     1      44.839   3.797   9.995  0.00  0.00    +0.000 A 
ATOM     15  N   UNL     1      45.023   2.479   9.769  0.00  0.00    +0.000 NA
BRANCH  10  17
ATOM     16  C   UNL     1      46.926   0.493   7.506  0.00  0.00    +0.000 C 
ATOM     17  O   UNL     1      45.828   0.748   8.377  0.00  0.00    +0.000 OA
ENDBRANCH  10  17
ENDBRANCH   8  14
ENDBRANCH   7   8
ENDBRANCH   1   7
BRANCH   4  18
ATOM     18  C   UNL     1      48.372   7.895  14.464  0.00  0.00    +0.000 C 
BRANCH  18  19
ATOM     19  N   UNL     1      48.617   7.703  15.868  0.00  0.00    +0.000 N 
ATOM     20  C   UNL     1      49.859   7.342  16.328  0.00  0.00    +0.000 C 
ATOM     21  O   UNL     1      50.820   7.223  15.572  0.00  0.00    +0.000 OA
ATOM     22  H   UNL     1      47.805   7.572  16.464  0.00  0.00    +0.000 HD
BRANCH  20  23
ATOM     23  C   UNL     1      50.001   7.161  17.778  0.00  0.00    +0.000 A 
ATOM     24  C   UNL     1      50.831   8.013  18.496  0.00  0.00    +0.000 A 
ATOM     25  S   UNL     1      50.844   7.702  20.173  0.00  0.00    +0.000 S 
ATOM     26  C   UNL     1      49.782   6.385  19.992  0.00  0.00    +0.000 A 
ATOM     27  N   UNL     1      49.394   5.647  21.066  0.00  0.00    +0.000 NA
ATOM     28  C   UNL     1      48.614   4.658  20.781  0.00  0.00    +0.000 A 
ATOM     29  N   UNL     1      48.183   4.344  19.519  0.00  0.00    +0.000 N 
ATOM     30  C   UNL     1      48.524   5.077  18.408  0.00  0.00    +0.000 A 
ATOM     31  O   UNL     1      48.089   4.792  17.298  0.00  0.00    +0.000 OA
ATOM     32  C   UNL     1      49.410   6.195  18.673  0.00  0.00    +0.000 A 
ATOM     33  H   UNL     1      47.565   3.560  19.361  0.00  0.00    +0.000 HD
ENDBRANCH  20  23
ENDBRANCH  18  19
ENDBRANCH   4  18
TORSDOF 7
ENDMDL
MODEL 7
REMARK VINA RESULT:    -7.095      5.008      8.057
REMARK INTER + INTRA:         -10.600
REMARK INTER:                  -9.646
REMARK INTRA:                  -0.953
REMARK UNBOUND:                -0.601
REMARK  Name = 
REMARK  9 active torsions:
REMARK  status: ('A' for Active; 'I' for Inactive)
REMARK    1  A    between atoms: C_1  and  O_2
REMARK    2  A    between atoms: O_2  and  C_3
REMARK    3  A    between atoms: C_7  and  N_8
REMARK    4  A    between atoms: N_8  and  C_9
REMARK    5  A    between atoms: N_8  and  C_10
REMARK    6  A    between atoms: C_10  and  C_11
REMARK    7  A    between atoms: C_14  and  C_15
REMARK    8  A    between atoms: C_15  and  N_16
REMARK    9  A    between atoms: C_17  and  C_19
REMARK                            x       y       z     vdW  Elec       q    Type
REMARK                         _______ _______ _______ _____ _____    ______ ____
ROOT
ATOM      1  C   UNL     1      50.286   9.030  11.350  0.00  0.00    +0.000 A 
ATOM      2  C   UNL     1      49.333  10.036  11.558  0.00  0.00    +0.000 A 
ATOM      3  C   UNL     1      48.071   9.727  12.075  0.00  0.00    +0.000 A 
ATOM      4  C   UNL     1      47.740   8.407  12.406  0.00  0.00    +0.000 A 
ATOM      5  C   UNL     1      48.681   7.396  12.168  0.00  0.00    +0.000 A 
ATOM      6  C   UNL     1      49.944   7.705  11.656  0.00  0.00    +0.000 A 
ENDROOT
BRANCH   1   7
ATOM      7  C   UNL     1      51.678   9.363  10.846  0.00  0.00    +0.000 C 
BRANCH   7   8
ATOM      8  N   UNL     1      52.611   8.296  11.200  0.00  0.00    +0.000 N 
ATOM      9  C   UNL     1      53.256   8.351  12.499  0.00  0.00    +0.000 C 
BRANCH   8  14
ATOM     10  C   UNL     1      52.962   6.721   8.001  0.00  0.00    +0.000 A 
ATOM     11  C   UNL     1      53.837   5.674   8.215  0.00  0.00    +0.000 A 
ATOM     12  C   UNL     1      54.323   5.498   9.499  0.00  0.00    +0.000 A 
ATOM     13  C   UNL     1      53.920   6.379  10.504  0.00  0.00    +0.000 A 
ATOM     14  C   UNL     1      53.030   7.417  10.220  0.00  0.00    +0.000 A 
ATOM     15  N   UNL     1      52.545   7.567   8.969  0.00  0.00    +0.000 NA
BRANCH  10  17
ATOM     16  C   UNL     1      52.729   8.200   6.211  0.00  0.00    +0.000 C 
ATOM     17  O   UNL     1      52.507   6.884   6.707  0.00  0.00    +0.000 OA
ENDBRANCH  10  17
ENDBRANCH   8  14
ENDBRANCH   7   8
ENDBRANCH   1   7
BRANCH   4  18
ATOM     18  C   UNL     1      46.395   8.072  12.998  0.00  0.00    +0.000 C 
BRANCH  18  19
ATOM     19  N   UNL     1      45.968   6.750  12.623  0.00  0.00    +0.000 N 
ATOM     20  C   UNL     1      44.892   6.563  11.791  0.00  0.00    +0.000 C 
ATOM     21  O   UNL     1      44.289   7.508  11.290  0.00  0.00    +0.000 OA
ATOM     22  H   UNL     1      46.298   5.979  13.196  0.00  0.00    +0.000 HD
BRANCH  20  23
ATOM     23  C   UNL     1      44.532   5.174  11.478  0.00  0.00    +0.000 A 
ATOM     24  C   UNL     1      43.783   4.438  12.389  0.00  0.00    +0.000 A 
ATOM     25  S   UNL     1      43.407   2.865  11.851  0.00  0.00    +0.000 S 
ATOM     26  C   UNL     1      44.275   3.093  10.406  0.00  0.00    +0.000 A 
ATOM     27  N   UNL     1      44.373   2.097   9.484  0.00  0.00    +0.000 NA
ATOM     28  C   UNL     1      45.088   2.393   8.450  0.00  0.00    +0.000 A 
ATOM     29  N   UNL     1      45.711   3.598   8.253  0.00  0.00    +0.000 N 
ATOM     30  C   UNL     1      45.616   4.643   9.140  0.00  0.00    +0.000 A 
ATOM     31  O   UNL     1      46.153   5.722   8.915  0.00  0.00    +0.000 OA
ATOM     32  C   UNL     1      44.831   4.357  10.327  0.00  0.00    +0.000 A 
ATOM     33  H   UNL     1      46.251   3.772   7.417  0.00  0.00    +0.000 HD
ENDBRANCH  20  23
ENDBRANCH  18  19
ENDBRANCH   4  18
TORSDOF 7
ENDMDL
MODEL 8
REMARK VINA RESULT:    -6.909      4.227      9.954
REMARK INTER + INTRA:         -10.338
REMARK INTER:                  -9.418
REMARK INTRA:                  -0.920
REMARK UNBOUND:                -0.601
REMARK  Name = 
REMARK  9 active torsions:
REMARK  status: ('A' for Active; 'I' for Inactive)
REMARK    1  A    between atoms: C_1  and  O_2
REMARK    2  A    between atoms: O_2  and  C_3
REMARK    3  A    between atoms: C_7  and  N_8
REMARK    4  A    between atoms: N_8  and  C_9
REMARK    5  A    between atoms: N_8  and  C_10
REMARK    6  A    between atoms: C_10  and  C_11
REMARK    7  A    between atoms: C_14  and  C_15
REMARK    8  A    between atoms: C_15  and  N_16
REMARK    9  A    between atoms: C_17  and  C_19
REMARK                            x       y       z     vdW  Elec       q    Type
REMARK                         _______ _______ _______ _____ _____    ______ ____
ROOT
ATOM      1  C   UNL     1      51.299   4.467  17.815  0.00  0.00    +0.000 A 
ATOM      2  C   UNL     1      50.389   5.465  17.441  0.00  0.00    +0.000 A 
ATOM      3  C   UNL     1      49.087   5.135  17.051  0.00  0.00    +0.000 A 
ATOM      4  C   UNL     1      48.664   3.799  17.040  0.00  0.00    +0.000 A 
ATOM      5  C   UNL     1      49.583   2.798  17.384  0.00  0.00    +0.000 A 
ATOM      6  C   UNL     1      50.883   3.129  17.777  0.00  0.00    +0.000 A 
ENDROOT
BRANCH   1   7
ATOM      7  C   UNL     1      52.694   4.820  18.295  0.00  0.00    +0.000 C 
BRANCH   7   8
ATOM      8  N   UNL     1      52.912   4.294  19.640  0.00  0.00    +0.000 N 
ATOM      9  C   UNL     1      52.299   4.990  20.757  0.00  0.00    +0.000 C 
BRANCH   8  14
ATOM     10  C   UNL     1      54.930   1.386  19.086  0.00  0.00    +0.000 A 
ATOM     11  C   UNL     1      55.775   1.327  20.176  0.00  0.00    +0.000 A 
ATOM     12  C   UNL     1      55.649   2.314  21.138  0.00  0.00    +0.000 A 
ATOM     13  C   UNL     1      54.695   3.317  20.961  0.00  0.00    +0.000 A 
ATOM     14  C   UNL     1      53.870   3.317  19.834  0.00  0.00    +0.000 A 
ATOM     15  N   UNL     1      53.986   2.337  18.912  0.00  0.00    +0.000 NA
BRANCH  10  17
ATOM     16  C   UNL     1      53.853  -0.199  17.754  0.00  0.00    +0.000 C 
ATOM     17  O   UNL     1      55.089   0.398  18.133  0.00  0.00    +0.000 OA
ENDBRANCH  10  17
ENDBRANCH   8  14
ENDBRANCH   7   8
ENDBRANCH   1   7
BRANCH   4  18
ATOM     18  C   UNL     1      47.252   3.438  16.658  0.00  0.00    +0.000 C 
BRANCH  18  19
ATOM     19  N   UNL     1      46.700   4.383  15.724  0.00  0.00    +0.000 N 
ATOM     20  C   UNL     1      46.706   4.130  14.374  0.00  0.00    +0.000 C 
ATOM     21  O   UNL     1      47.127   3.072  13.915  0.00  0.00    +0.000 OA
ATOM     22  H   UNL     1      46.567   5.334  16.054  0.00  0.00    +0.000 HD
BRANCH  20  23
ATOM     23  C   UNL     1      46.128   5.163  13.505  0.00  0.00    +0.000 A 
ATOM     24  C   UNL     1      46.863   6.307  13.217  0.00  0.00    +0.000 A 
ATOM     25  S   UNL     1      46.070   7.379  12.155  0.00  0.00    +0.000 S 
ATOM     26  C   UNL     1      44.696   6.379  12.084  0.00  0.00    +0.000 A 
ATOM     27  N   UNL     1      43.609   6.735  11.347  0.00  0.00    +0.000 NA
ATOM     28  C   UNL     1      42.625   5.901  11.409  0.00  0.00    +0.000 A 
ATOM     29  N   UNL     1      42.631   4.741  12.139  0.00  0.00    +0.000 N 
ATOM     30  C   UNL     1      43.714   4.326  12.875  0.00  0.00    +0.000 A 
ATOM     31  O   UNL     1      43.701   3.263  13.486  0.00  0.00    +0.000 OA
ATOM     32  C   UNL     1      44.845   5.235  12.847  0.00  0.00    +0.000 A 
ATOM     33  H   UNL     1      41.830   4.125  12.140  0.00  0.00    +0.000 HD
ENDBRANCH  20  23
ENDBRANCH  18  19
ENDBRANCH   4  18
TORSDOF 7
ENDMDL
MODEL 9
REMARK VINA RESULT:    -6.730      3.444      9.113
REMARK INTER + INTRA:         -10.085
REMARK INTER:                  -8.915
REMARK INTRA:                  -1.170
REMARK UNBOUND:                -0.601
REMARK  Name = 
REMARK  9 active torsions:
REMARK  status: ('A' for Active; 'I' for Inactive)
REMARK    1  A    between atoms: C_1  and  O_2
REMARK    2  A    between atoms: O_2  and  C_3
REMARK    3  A    between atoms: C_7  and  N_8
REMARK    4  A    between atoms: N_8  and  C_9
REMARK    5  A    between atoms: N_8  and  C_10
REMARK    6  A    between atoms: C_10  and  C_11
REMARK    7  A    between atoms: C_14  and  C_15
REMARK    8  A    between atoms: C_15  and  N_16
REMARK    9  A    between atoms: C_17  and  C_19
REMARK                            x       y       z     vdW  Elec       q    Type
REMARK                         _______ _______ _______ _____ _____    ______ ____
ROOT
ATOM      1  C   UNL     1      51.252   4.661  18.040  0.00  0.00    +0.000 A 
ATOM      2  C   UNL     1      50.262   5.607  17.747  0.00  0.00    +0.000 A 
ATOM      3  C   UNL     1      49.013   5.207  17.260  0.00  0.00    +0.000 A 
ATOM      4  C   UNL     1      48.725   3.849  17.070  0.00  0.00    +0.000 A 
ATOM      5  C   UNL     1      49.726   2.904  17.332  0.00  0.00    +0.000 A 
ATOM      6  C   UNL     1      50.973   3.304  17.823  0.00  0.00    +0.000 A 
ENDROOT
BRANCH   1   7
ATOM      7  C   UNL     1      52.588   5.081  18.624  0.00  0.00    +0.000 C 
BRANCH   7   8
ATOM      8  N   UNL     1      53.557   5.308  17.555  0.00  0.00    +0.000 N 
ATOM      9  C   UNL     1      54.568   4.295  17.318  0.00  0.00    +0.000 C 
BRANCH   8  14
ATOM     10  C   UNL     1      53.179   7.952  15.166  0.00  0.00    +0.000 A 
ATOM     11  C   UNL     1      53.771   9.051  15.756  0.00  0.00    +0.000 A 
ATOM     12  C   UNL     1      54.323   8.883  17.015  0.00  0.00    +0.000 A 
ATOM     13  C   UNL     1      54.248   7.631  17.626  0.00  0.00    +0.000 A 
ATOM     14  C   UNL     1      53.636   6.559  16.973  0.00  0.00    +0.000 A 
ATOM     15  N   UNL     1      53.120   6.728  15.736  0.00  0.00    +0.000 NA
BRANCH  10  17
ATOM     16  C   UNL     1      51.388   8.860  13.978  0.00  0.00    +0.000 C 
ATOM     17  O   UNL     1      52.622   8.153  13.918  0.00  0.00    +0.000 OA
ENDBRANCH  10  17
ENDBRANCH   8  14
ENDBRANCH   7   8
ENDBRANCH   1   7
BRANCH   4  18
ATOM     18  C   UNL     1      47.370   3.407  16.581  0.00  0.00    +0.000 C 
BRANCH  18  19
ATOM     19  N   UNL     1      46.784   4.379  15.698  0.00  0.00    +0.000 N 
ATOM     20  C   UNL     1      46.777   4.187  14.338  0.00  0.00    +0.000 C 
ATOM     21  O   UNL     1      47.216   3.161  13.826  0.00  0.00    +0.000 OA
ATOM     22  H   UNL     1      46.634   5.311  16.072  0.00  0.00    +0.000 HD
BRANCH  20  23
ATOM     23  C   UNL     1      46.164   5.245  13.524  0.00  0.00    +0.000 A 
ATOM     24  C   UNL     1      46.843   6.441  13.329  0.00  0.00    +0.000 A 
ATOM     25  S   UNL     1      46.018   7.540  12.320  0.00  0.00    +0.000 S 
ATOM     26  C   UNL     1      44.700   6.476  12.149  0.00  0.00    +0.000 A 
ATOM     27  N   UNL     1      43.613   6.823  11.409  0.00  0.00    +0.000 NA
ATOM     28  C   UNL     1      42.673   5.937  11.392  0.00  0.00    +0.000 A 
ATOM     29  N   UNL     1      42.725   4.734  12.045  0.00  0.00    +0.000 N 
ATOM     30  C   UNL     1      43.812   4.328  12.780  0.00  0.00    +0.000 A 
ATOM     31  O   UNL     1      43.843   3.227  13.319  0.00  0.00    +0.000 OA
ATOM     32  C   UNL     1      44.894   5.293  12.840  0.00  0.00    +0.000 A 
ATOM     33  H   UNL     1      41.959   4.078  11.986  0.00  0.00    +0.000 HD
ENDBRANCH  20  23
ENDBRANCH  18  19
ENDBRANCH   4  18
TORSDOF 7
ENDMDL
