MODEL 1
REMARK VINA RESULT:    -8.443      0.000      0.000
REMARK INTER + INTRA:         -11.648
REMARK INTER:                 -10.910
REMARK INTRA:                  -0.737
REMARK UNBOUND:                -0.737
REMARK  Name = 
REMARK  6 active torsions:
REMARK  status: ('A' for Active; 'I' for Inactive)
REMARK    1  A    between atoms: C_1  and  C_2
REMARK    2  A    between atoms: C_2  and  N_3
REMARK    3  A    between atoms: C_2  and  C_16
REMARK    4  A    between atoms: C_4  and  C_6
REMARK    5  A    between atoms: C_19  and  C_20
REMARK    6  A    between atoms: C_20  and  C_21
REMARK                            x       y       z     vdW  Elec       q    Type
REMARK                         _______ _______ _______ _____ _____    ______ ____
ROOT
ATOM      1  N   UNL     1      46.825   6.897  13.634  0.00  0.00    +0.000 N 
ATOM      2  C   UNL     1      48.148   6.581  13.828  0.00  0.00    +0.000 C 
ATOM      3  O   UNL     1      48.983   6.648  12.931  0.00  0.00    +0.000 OA
ATOM      4  H   UNL     1      46.152   6.498  14.284  0.00  0.00    +0.000 HD
ENDROOT
BRANCH   2   5
ATOM      5  C   UNL     1      48.547   6.214  15.192  0.00  0.00    +0.000 A 
ATOM      6  C   UNL     1      49.512   6.967  15.846  0.00  0.00    +0.000 A 
ATOM      7  S   UNL     1      49.873   6.404  17.414  0.00  0.00    +0.000 S 
ATOM      8  C   UNL     1      48.781   5.108  17.256  0.00  0.00    +0.000 A 
ATOM      9  N   UNL     1      48.639   4.189  18.248  0.00  0.00    +0.000 NA
ATOM     10  C   UNL     1      47.802   3.242  17.981  0.00  0.00    +0.000 A 
ATOM     11  N   UNL     1      47.080   3.142  16.819  0.00  0.00    +0.000 N 
ATOM     12  C   UNL     1      47.156   4.074  15.811  0.00  0.00    +0.000 A 
ATOM     13  O   UNL     1      46.441   4.006  14.817  0.00  0.00    +0.000 OA
ATOM     14  C   UNL     1      48.117   5.133  16.042  0.00  0.00    +0.000 A 
ATOM     15  H   UNL     1      46.422   2.389  16.684  0.00  0.00    +0.000 HD
ENDBRANCH   2   5
BRANCH   1  17
ATOM     16  C   UNL     1      45.092   8.215  12.428  0.00  0.00    +0.000 C 
ATOM     17  C   UNL     1      46.310   7.288  12.329  0.00  0.00    +0.000 C 
BRANCH  17  18
ATOM     18  C   UNL     1      45.927   6.077  11.486  0.00  0.00    +0.000 A 
ATOM     19  C   UNL     1      46.099   6.127  10.094  0.00  0.00    +0.000 A 
ATOM     20  C   UNL     1      45.691   5.065   9.282  0.00  0.00    +0.000 A 
ATOM     21  C   UNL     1      45.109   3.922   9.843  0.00  0.00    +0.000 A 
ATOM     22  C   UNL     1      44.944   3.862  11.232  0.00  0.00    +0.000 A 
ATOM     23  C   UNL     1      45.333   4.933  12.042  0.00  0.00    +0.000 A 
BRANCH  21  24
ATOM     24  C   UNL     1      44.691   2.762   8.969  0.00  0.00    +0.000 C 
BRANCH  24  25
ATOM     25  C   UNL     1      45.771   2.286   8.063  0.00  0.00    +0.000 C 
ATOM     26  C   UNL     1      46.370   3.052   7.005  0.00  0.00    +0.000 C 
ATOM     27  C   UNL     1      47.372   2.130   6.455  0.00  0.00    +0.000 C 
ATOM     28  N   UNL     1      47.370   0.975   7.056  0.00  0.00    +0.000 NA
ATOM     29  C   UNL     1      46.390   1.094   8.027  0.00  0.00    +0.000 C 
ENDBRANCH  24  25
ENDBRANCH  21  24
ENDBRANCH  17  18
ENDBRANCH   1  17
TORSDOF 5
ENDMDL
MODEL 2
REMARK VINA RESULT:    -8.277      1.501      2.209
REMARK INTER + INTRA:         -11.434
REMARK INTER:                 -11.317
REMARK INTRA:                  -0.117
REMARK UNBOUND:                -0.737
REMARK  Name = 
REMARK  6 active torsions:
REMARK  status: ('A' for Active; 'I' for Inactive)
REMARK    1  A    between atoms: C_1  and  C_2
REMARK    2  A    between atoms: C_2  and  N_3
REMARK    3  A    between atoms: C_2  and  C_16
REMARK    4  A    between atoms: C_4  and  C_6
REMARK    5  A    between atoms: C_19  and  C_20
REMARK    6  A    between atoms: C_20  and  C_21
REMARK                            x       y       z     vdW  Elec       q    Type
REMARK                         _______ _______ _______ _____ _____    ______ ____
ROOT
ATOM      1  N   UNL     1      45.322   5.779  13.635  0.00  0.00    +0.000 N 
ATOM      2  C   UNL     1      46.307   4.889  13.993  0.00  0.00    +0.000 C 
ATOM      3  O   UNL     1      46.301   3.715  13.634  0.00  0.00    +0.000 OA
ATOM      4  H   UNL     1      45.197   6.595  14.228  0.00  0.00    +0.000 HD
ENDROOT
BRANCH   2   5
ATOM      5  C   UNL     1      47.421   5.420  14.786  0.00  0.00    +0.000 A 
ATOM      6  C   UNL     1      48.196   6.449  14.268  0.00  0.00    +0.000 A 
ATOM      7  S   UNL     1      49.457   6.943  15.303  0.00  0.00    +0.000 S 
ATOM      8  C   UNL     1      49.035   5.772  16.463  0.00  0.00    +0.000 A 
ATOM      9  N   UNL     1      49.763   5.620  17.601  0.00  0.00    +0.000 NA
ATOM     10  C   UNL     1      49.351   4.672  18.375  0.00  0.00    +0.000 A 
ATOM     11  N   UNL     1      48.264   3.875  18.123  0.00  0.00    +0.000 N 
ATOM     12  C   UNL     1      47.471   4.024  17.010  0.00  0.00    +0.000 A 
ATOM     13  O   UNL     1      46.459   3.352  16.846  0.00  0.00    +0.000 OA
ATOM     14  C   UNL     1      47.919   5.045  16.085  0.00  0.00    +0.000 A 
ATOM     15  H   UNL     1      47.980   3.167  18.784  0.00  0.00    +0.000 HD
ENDBRANCH   2   5
BRANCH   1  17
ATOM     16  C   UNL     1      43.469   4.132  13.406  0.00  0.00    +0.000 C 
ATOM     17  C   UNL     1      44.170   5.374  12.841  0.00  0.00    +0.000 C 
BRANCH  17  18
ATOM     18  C   UNL     1      44.552   5.095  11.392  0.00  0.00    +0.000 A 
ATOM     19  C   UNL     1      43.859   4.107  10.676  0.00  0.00    +0.000 A 
ATOM     20  C   UNL     1      44.229   3.773   9.371  0.00  0.00    +0.000 A 
ATOM     21  C   UNL     1      45.298   4.425   8.745  0.00  0.00    +0.000 A 
ATOM     22  C   UNL     1      45.989   5.419   9.451  0.00  0.00    +0.000 A 
ATOM     23  C   UNL     1      45.630   5.738  10.763  0.00  0.00    +0.000 A 
BRANCH  21  24
ATOM     24  C   UNL     1      45.684   4.083   7.324  0.00  0.00    +0.000 C 
BRANCH  24  25
ATOM     25  C   UNL     1      46.434   2.803   7.207  0.00  0.00    +0.000 C 
ATOM     26  C   UNL     1      46.291   1.671   8.081  0.00  0.00    +0.000 C 
ATOM     27  C   UNL     1      47.231   0.695   7.513  0.00  0.00    +0.000 C 
ATOM     28  N   UNL     1      47.868   1.160   6.477  0.00  0.00    +0.000 NA
ATOM     29  C   UNL     1      47.369   2.442   6.313  0.00  0.00    +0.000 C 
ENDBRANCH  24  25
ENDBRANCH  21  24
ENDBRANCH  17  18
ENDBRANCH   1  17
TORSDOF 5
ENDMDL
MODEL 3
REMARK VINA RESULT:    -8.245      1.506      2.064
REMARK INTER + INTRA:         -11.392
REMARK INTER:                 -10.505
REMARK INTRA:                  -0.887
REMARK UNBOUND:                -0.737
REMARK  Name = 
REMARK  6 active torsions:
REMARK  status: ('A' for Active; 'I' for Inactive)
REMARK    1  A    between atoms: C_1  and  C_2
REMARK    2  A    between atoms: C_2  and  N_3
REMARK    3  A    between atoms: C_2  and  C_16
REMARK    4  A    between atoms: C_4  and  C_6
REMARK    5  A    between atoms: C_19  and  C_20
REMARK    6  A    between atoms: C_20  and  C_21
REMARK                            x       y       z     vdW  Elec       q    Type
REMARK                         _______ _______ _______ _____ _____    ______ ____
ROOT
ATOM      1  N   UNL     1      46.374   5.890  13.988  0.00  0.00    +0.000 N 
ATOM      2  C   UNL     1      47.652   5.666  14.443  0.00  0.00    +0.000 C 
ATOM      3  O   UNL     1      48.648   6.044  13.832  0.00  0.00    +0.000 OA
ATOM      4  H   UNL     1      45.644   5.273  14.332  0.00  0.00    +0.000 HD
ENDROOT
BRANCH   2   5
ATOM      5  C   UNL     1      47.783   4.998  15.742  0.00  0.00    +0.000 A 
ATOM      6  C   UNL     1      47.418   3.664  15.863  0.00  0.00    +0.000 A 
ATOM      7  S   UNL     1      47.616   3.041  17.437  0.00  0.00    +0.000 S 
ATOM      8  C   UNL     1      48.157   4.544  18.021  0.00  0.00    +0.000 A 
ATOM      9  N   UNL     1      48.456   4.717  19.337  0.00  0.00    +0.000 NA
ATOM     10  C   UNL     1      48.821   5.917  19.647  0.00  0.00    +0.000 A 
ATOM     11  N   UNL     1      48.933   6.954  18.757  0.00  0.00    +0.000 N 
ATOM     12  C   UNL     1      48.688   6.813  17.412  0.00  0.00    +0.000 A 
ATOM     13  O   UNL     1      48.872   7.734  16.624  0.00  0.00    +0.000 OA
ATOM     14  C   UNL     1      48.229   5.496  17.019  0.00  0.00    +0.000 A 
ATOM     15  H   UNL     1      49.249   7.863  19.062  0.00  0.00    +0.000 HD
ENDBRANCH   2   5
BRANCH   1  17
ATOM     16  C   UNL     1      44.951   7.549  12.797  0.00  0.00    +0.000 C 
ATOM     17  C   UNL     1      46.115   6.553  12.717  0.00  0.00    +0.000 C 
BRANCH  17  18
ATOM     18  C   UNL     1      45.817   5.553  11.607  0.00  0.00    +0.000 A 
ATOM     19  C   UNL     1      46.032   5.924  10.271  0.00  0.00    +0.000 A 
ATOM     20  C   UNL     1      45.702   5.060   9.224  0.00  0.00    +0.000 A 
ATOM     21  C   UNL     1      45.155   3.798   9.486  0.00  0.00    +0.000 A 
ATOM     22  C   UNL     1      44.947   3.418  10.818  0.00  0.00    +0.000 A 
ATOM     23  C   UNL     1      45.259   4.291  11.864  0.00  0.00    +0.000 A 
BRANCH  21  24
ATOM     24  C   UNL     1      44.821   2.852   8.355  0.00  0.00    +0.000 C 
BRANCH  24  25
ATOM     25  C   UNL     1      46.009   2.439   7.560  0.00  0.00    +0.000 C 
ATOM     26  C   UNL     1      46.547   3.151   6.434  0.00  0.00    +0.000 C 
ATOM     27  C   UNL     1      47.703   2.332   6.047  0.00  0.00    +0.000 C 
ATOM     28  N   UNL     1      47.838   1.275   6.794  0.00  0.00    +0.000 NA
ATOM     29  C   UNL     1      46.798   1.361   7.704  0.00  0.00    +0.000 C 
ENDBRANCH  24  25
ENDBRANCH  21  24
ENDBRANCH  17  18
ENDBRANCH   1  17
TORSDOF 5
ENDMDL
MODEL 4
REMARK VINA RESULT:    -8.076      2.649      3.711
REMARK INTER + INTRA:         -11.175
REMARK INTER:                 -10.100
REMARK INTRA:                  -1.074
REMARK UNBOUND:                -0.737
REMARK  Name = 
REMARK  6 active torsions:
REMARK  status: ('A' for Active; 'I' for Inactive)
REMARK    1  A    between atoms: C_1  and  C_2
REMARK    2  A    between atoms: C_2  and  N_3
REMARK    3  A    between atoms: C_2  and  C_16
REMARK    4  A    between atoms: C_4  and  C_6
REMARK    5  A    between atoms: C_19  and  C_20
REMARK    6  A    between atoms: C_20  and  C_21
REMARK                            x       y       z     vdW  Elec       q    Type
REMARK                         _______ _______ _______ _____ _____    ______ ____
ROOT
ATOM      1  N   UNL     1      46.893   6.691  12.972  0.00  0.00    +0.000 N 
ATOM      2  C   UNL     1      46.764   8.053  13.107  0.00  0.00    +0.000 C 
ATOM      3  O   UNL     1      45.680   8.601  13.283  0.00  0.00    +0.000 OA
ATOM      4  H   UNL     1      47.722   6.348  12.494  0.00  0.00    +0.000 HD
ENDROOT
BRANCH   2   5
ATOM      5  C   UNL     1      48.004   8.838  13.095  0.00  0.00    +0.000 A 
ATOM      6  C   UNL     1      48.032  10.055  12.427  0.00  0.00    +0.000 A 
ATOM      7  S   UNL     1      49.546  10.836  12.494  0.00  0.00    +0.000 S 
ATOM      8  C   UNL     1      50.227   9.555  13.384  0.00  0.00    +0.000 A 
ATOM      9  N   UNL     1      51.541   9.567  13.734  0.00  0.00    +0.000 NA
ATOM     10  C   UNL     1      51.930   8.517  14.376  0.00  0.00    +0.000 A 
ATOM     11  N   UNL     1      51.120   7.464  14.718  0.00  0.00    +0.000 N 
ATOM     12  C   UNL     1      49.777   7.432  14.427  0.00  0.00    +0.000 A 
ATOM     13  O   UNL     1      49.057   6.517  14.813  0.00  0.00    +0.000 OA
ATOM     14  C   UNL     1      49.299   8.567  13.664  0.00  0.00    +0.000 A 
ATOM     15  H   UNL     1      51.484   6.684  15.245  0.00  0.00    +0.000 HD
ENDBRANCH   2   5
BRANCH   1  17
ATOM     16  C   UNL     1      45.822   4.733  14.075  0.00  0.00    +0.000 C 
ATOM     17  C   UNL     1      45.738   5.804  12.980  0.00  0.00    +0.000 C 
BRANCH  17  18
ATOM     18  C   UNL     1      45.551   5.107  11.637  0.00  0.00    +0.000 A 
ATOM     19  C   UNL     1      45.884   5.788  10.457  0.00  0.00    +0.000 A 
ATOM     20  C   UNL     1      45.657   5.209   9.206  0.00  0.00    +0.000 A 
ATOM     21  C   UNL     1      45.098   3.930   9.104  0.00  0.00    +0.000 A 
ATOM     22  C   UNL     1      44.771   3.240  10.278  0.00  0.00    +0.000 A 
ATOM     23  C   UNL     1      44.980   3.828  11.529  0.00  0.00    +0.000 A 
BRANCH  21  24
ATOM     24  C   UNL     1      44.876   3.291   7.751  0.00  0.00    +0.000 C 
BRANCH  24  25
ATOM     25  C   UNL     1      46.106   2.686   7.174  0.00  0.00    +0.000 C 
ATOM     26  C   UNL     1      46.796   3.157   6.005  0.00  0.00    +0.000 C 
ATOM     27  C   UNL     1      47.930   2.229   5.894  0.00  0.00    +0.000 C 
ATOM     28  N   UNL     1      47.923   1.319   6.826  0.00  0.00    +0.000 NA
ATOM     29  C   UNL     1      46.806   1.617   7.589  0.00  0.00    +0.000 C 
ENDBRANCH  24  25
ENDBRANCH  21  24
ENDBRANCH  17  18
ENDBRANCH   1  17
TORSDOF 5
ENDMDL
MODEL 5
REMARK VINA RESULT:    -7.209      3.246      4.161
REMARK INTER + INTRA:         -10.054
REMARK INTER:                 -10.863
REMARK INTRA:                   0.809
REMARK UNBOUND:                -0.737
REMARK  Name = 
REMARK  6 active torsions:
REMARK  status: ('A' for Active; 'I' for Inactive)
REMARK    1  A    between atoms: C_1  and  C_2
REMARK    2  A    between atoms: C_2  and  N_3
REMARK    3  A    between atoms: C_2  and  C_16
REMARK    4  A    between atoms: C_4  and  C_6
REMARK    5  A    between atoms: C_19  and  C_20
REMARK    6  A    between atoms: C_20  and  C_21
REMARK                            x       y       z     vdW  Elec       q    Type
REMARK                         _______ _______ _______ _____ _____    ______ ____
ROOT
ATOM      1  N   UNL     1      44.336   6.983  11.642  0.00  0.00    +0.000 N 
ATOM      2  C   UNL     1      45.460   6.851  12.422  0.00  0.00    +0.000 C 
ATOM      3  O   UNL     1      45.718   5.824  13.043  0.00  0.00    +0.000 OA
ATOM      4  H   UNL     1      44.010   7.927  11.453  0.00  0.00    +0.000 HD
ENDROOT
BRANCH   2   5
ATOM      5  C   UNL     1      46.391   7.985  12.437  0.00  0.00    +0.000 A 
ATOM      6  C   UNL     1      45.910   9.264  12.191  0.00  0.00    +0.000 A 
ATOM      7  S   UNL     1      47.116  10.468  12.229  0.00  0.00    +0.000 S 
ATOM      8  C   UNL     1      48.330   9.315  12.535  0.00  0.00    +0.000 A 
ATOM      9  N   UNL     1      49.636   9.683  12.631  0.00  0.00    +0.000 NA
ATOM     10  C   UNL     1      50.452   8.702  12.830  0.00  0.00    +0.000 A 
ATOM     11  N   UNL     1      50.079   7.389  12.962  0.00  0.00    +0.000 N 
ATOM     12  C   UNL     1      48.767   6.978  12.920  0.00  0.00    +0.000 A 
ATOM     13  O   UNL     1      48.452   5.810  13.121  0.00  0.00    +0.000 OA
ATOM     14  C   UNL     1      47.814   8.036  12.651  0.00  0.00    +0.000 A 
ATOM     15  H   UNL     1      50.767   6.673  13.143  0.00  0.00    +0.000 HD
ENDBRANCH   2   5
BRANCH   1  17
ATOM     16  C   UNL     1      42.900   5.391  12.906  0.00  0.00    +0.000 C 
ATOM     17  C   UNL     1      43.343   5.922  11.537  0.00  0.00    +0.000 C 
BRANCH  17  18
ATOM     18  C   UNL     1      43.851   4.750  10.706  0.00  0.00    +0.000 A 
ATOM     19  C   UNL     1      43.595   3.440  11.137  0.00  0.00    +0.000 A 
ATOM     20  C   UNL     1      44.108   2.343  10.441  0.00  0.00    +0.000 A 
ATOM     21  C   UNL     1      44.884   2.527   9.291  0.00  0.00    +0.000 A 
ATOM     22  C   UNL     1      45.136   3.833   8.850  0.00  0.00    +0.000 A 
ATOM     23  C   UNL     1      44.640   4.931   9.558  0.00  0.00    +0.000 A 
BRANCH  21  24
ATOM     24  C   UNL     1      45.419   1.340   8.522  0.00  0.00    +0.000 C 
BRANCH  24  25
ATOM     25  C   UNL     1      46.413   1.711   7.479  0.00  0.00    +0.000 C 
ATOM     26  C   UNL     1      46.267   2.782   6.532  0.00  0.00    +0.000 C 
ATOM     27  C   UNL     1      47.520   2.719   5.767  0.00  0.00    +0.000 C 
ATOM     28  N   UNL     1      48.296   1.751   6.160  0.00  0.00    +0.000 NA
ATOM     29  C   UNL     1      47.602   1.153   7.198  0.00  0.00    +0.000 C 
ENDBRANCH  24  25
ENDBRANCH  21  24
ENDBRANCH  17  18
ENDBRANCH   1  17
TORSDOF 5
ENDMDL
MODEL 6
REMARK VINA RESULT:    -6.964      2.967      3.950
REMARK INTER + INTRA:          -9.737
REMARK INTER:                  -8.581
REMARK INTRA:                  -1.156
REMARK UNBOUND:                -0.737
REMARK  Name = 
REMARK  6 active torsions:
REMARK  status: ('A' for Active; 'I' for Inactive)
REMARK    1  A    between atoms: C_1  and  C_2
REMARK    2  A    between atoms: C_2  and  N_3
REMARK    3  A    between atoms: C_2  and  C_16
REMARK    4  A    between atoms: C_4  and  C_6
REMARK    5  A    between atoms: C_19  and  C_20
REMARK    6  A    between atoms: C_20  and  C_21
REMARK                            x       y       z     vdW  Elec       q    Type
REMARK                         _______ _______ _______ _____ _____    ______ ____
ROOT
ATOM      1  N   UNL     1      48.292   6.862  15.644  0.00  0.00    +0.000 N 
ATOM      2  C   UNL     1      48.949   6.324  16.725  0.00  0.00    +0.000 C 
ATOM      3  O   UNL     1      49.961   5.639  16.611  0.00  0.00    +0.000 OA
ATOM      4  H   UNL     1      47.312   7.103  15.769  0.00  0.00    +0.000 HD
ENDROOT
BRANCH   2   5
ATOM      5  C   UNL     1      48.421   6.658  18.052  0.00  0.00    +0.000 A 
ATOM      6  C   UNL     1      48.249   5.649  18.990  0.00  0.00    +0.000 A 
ATOM      7  S   UNL     1      47.615   6.197  20.475  0.00  0.00    +0.000 S 
ATOM      8  C   UNL     1      47.509   7.795  19.900  0.00  0.00    +0.000 A 
ATOM      9  N   UNL     1      46.987   8.784  20.675  0.00  0.00    +0.000 NA
ATOM     10  C   UNL     1      46.936   9.940  20.100  0.00  0.00    +0.000 A 
ATOM     11  N   UNL     1      47.378  10.200  18.829  0.00  0.00    +0.000 N 
ATOM     12  C   UNL     1      47.956   9.243  18.029  0.00  0.00    +0.000 A 
ATOM     13  O   UNL     1      48.416   9.518  16.926  0.00  0.00    +0.000 OA
ATOM     14  C   UNL     1      47.994   7.916  18.610  0.00  0.00    +0.000 A 
ATOM     15  H   UNL     1      47.333  11.134  18.448  0.00  0.00    +0.000 HD
ENDBRANCH   2   5
BRANCH   1  17
ATOM     16  C   UNL     1      49.397   7.835  13.637  0.00  0.00    +0.000 C 
ATOM     17  C   UNL     1      48.726   6.612  14.276  0.00  0.00    +0.000 C 
BRANCH  17  18
ATOM     18  C   UNL     1      47.570   6.175  13.385  0.00  0.00    +0.000 A 
ATOM     19  C   UNL     1      47.271   6.918  12.234  0.00  0.00    +0.000 A 
ATOM     20  C   UNL     1      46.173   6.591  11.433  0.00  0.00    +0.000 A 
ATOM     21  C   UNL     1      45.351   5.506  11.760  0.00  0.00    +0.000 A 
ATOM     22  C   UNL     1      45.650   4.754  12.904  0.00  0.00    +0.000 A 
ATOM     23  C   UNL     1      46.736   5.095  13.715  0.00  0.00    +0.000 A 
BRANCH  21  24
ATOM     24  C   UNL     1      44.178   5.135  10.882  0.00  0.00    +0.000 C 
BRANCH  24  25
ATOM     25  C   UNL     1      44.494   4.068   9.894  0.00  0.00    +0.000 C 
ATOM     26  C   UNL     1      45.159   4.268   8.636  0.00  0.00    +0.000 C 
ATOM     27  C   UNL     1      45.231   2.910   8.081  0.00  0.00    +0.000 C 
ATOM     28  N   UNL     1      44.677   2.024   8.857  0.00  0.00    +0.000 NA
ATOM     29  C   UNL     1      44.236   2.751   9.950  0.00  0.00    +0.000 C 
ENDBRANCH  24  25
ENDBRANCH  21  24
ENDBRANCH  17  18
ENDBRANCH   1  17
TORSDOF 5
ENDMDL
MODEL 7
REMARK VINA RESULT:    -6.896      3.170      7.665
REMARK INTER + INTRA:          -9.649
REMARK INTER:                  -8.732
REMARK INTRA:                  -0.917
REMARK UNBOUND:                -0.737
REMARK  Name = 
REMARK  6 active torsions:
REMARK  status: ('A' for Active; 'I' for Inactive)
REMARK    1  A    between atoms: C_1  and  C_2
REMARK    2  A    between atoms: C_2  and  N_3
REMARK    3  A    between atoms: C_2  and  C_16
REMARK    4  A    between atoms: C_4  and  C_6
REMARK    5  A    between atoms: C_19  and  C_20
REMARK    6  A    between atoms: C_20  and  C_21
REMARK                            x       y       z     vdW  Elec       q    Type
REMARK                         _______ _______ _______ _____ _____    ______ ____
ROOT
ATOM      1  N   UNL     1      47.752   6.741  12.522  0.00  0.00    +0.000 N 
ATOM      2  C   UNL     1      46.389   6.784  12.347  0.00  0.00    +0.000 C 
ATOM      3  O   UNL     1      45.677   7.621  12.893  0.00  0.00    +0.000 OA
ATOM      4  H   UNL     1      48.215   5.855  12.342  0.00  0.00    +0.000 HD
ENDROOT
BRANCH   2   5
ATOM      5  C   UNL     1      45.812   5.809  11.414  0.00  0.00    +0.000 A 
ATOM      6  C   UNL     1      46.003   5.977  10.049  0.00  0.00    +0.000 A 
ATOM      7  S   UNL     1      45.260   4.771   9.101  0.00  0.00    +0.000 S 
ATOM      8  C   UNL     1      44.623   4.004  10.481  0.00  0.00    +0.000 A 
ATOM      9  N   UNL     1      43.825   2.909  10.368  0.00  0.00    +0.000 NA
ATOM     10  C   UNL     1      43.385   2.452  11.493  0.00  0.00    +0.000 A 
ATOM     11  N   UNL     1      43.687   2.980  12.722  0.00  0.00    +0.000 N 
ATOM     12  C   UNL     1      44.527   4.055  12.887  0.00  0.00    +0.000 A 
ATOM     13  O   UNL     1      44.845   4.459  14.000  0.00  0.00    +0.000 OA
ATOM     14  C   UNL     1      45.011   4.635  11.651  0.00  0.00    +0.000 A 
ATOM     15  H   UNL     1      43.329   2.557  13.566  0.00  0.00    +0.000 HD
ENDBRANCH   2   5
BRANCH   1  17
ATOM     16  C   UNL     1      49.564   8.437  12.709  0.00  0.00    +0.000 C 
ATOM     17  C   UNL     1      48.442   7.664  13.413  0.00  0.00    +0.000 C 
BRANCH  17  18
ATOM     18  C   UNL     1      49.035   6.947  14.621  0.00  0.00    +0.000 A 
ATOM     19  C   UNL     1      48.250   6.020  15.323  0.00  0.00    +0.000 A 
ATOM     20  C   UNL     1      48.734   5.399  16.477  0.00  0.00    +0.000 A 
ATOM     21  C   UNL     1      50.018   5.684  16.955  0.00  0.00    +0.000 A 
ATOM     22  C   UNL     1      50.810   6.602  16.254  0.00  0.00    +0.000 A 
ATOM     23  C   UNL     1      50.318   7.238  15.110  0.00  0.00    +0.000 A 
BRANCH  21  24
ATOM     24  C   UNL     1      50.552   4.994  18.189  0.00  0.00    +0.000 C 
BRANCH  24  25
ATOM     25  C   UNL     1      51.054   3.618  17.927  0.00  0.00    +0.000 C 
ATOM     26  C   UNL     1      52.400   3.165  18.148  0.00  0.00    +0.000 C 
ATOM     27  C   UNL     1      52.343   1.752  17.750  0.00  0.00    +0.000 C 
ATOM     28  N   UNL     1      51.164   1.401  17.326  0.00  0.00    +0.000 NA
ATOM     29  C   UNL     1      50.400   2.550  17.441  0.00  0.00    +0.000 C 
ENDBRANCH  24  25
ENDBRANCH  21  24
ENDBRANCH  17  18
ENDBRANCH   1  17
TORSDOF 5
ENDMDL
MODEL 8
REMARK VINA RESULT:    -6.682      2.962      8.577
REMARK INTER + INTRA:          -9.373
REMARK INTER:                  -8.405
REMARK INTRA:                  -0.967
REMARK UNBOUND:                -0.737
REMARK  Name = 
REMARK  6 active torsions:
REMARK  status: ('A' for Active; 'I' for Inactive)
REMARK    1  A    between atoms: C_1  and  C_2
REMARK    2  A    between atoms: C_2  and  N_3
REMARK    3  A    between atoms: C_2  and  C_16
REMARK    4  A    between atoms: C_4  and  C_6
REMARK    5  A    between atoms: C_19  and  C_20
REMARK    6  A    between atoms: C_20  and  C_21
REMARK                            x       y       z     vdW  Elec       q    Type
REMARK                         _______ _______ _______ _____ _____    ______ ____
ROOT
ATOM      1  N   UNL     1      46.652   6.421  12.349  0.00  0.00    +0.000 N 
ATOM      2  C   UNL     1      45.438   6.420  11.703  0.00  0.00    +0.000 C 
ATOM      3  O   UNL     1      44.896   7.449  11.311  0.00  0.00    +0.000 OA
ATOM      4  H   UNL     1      46.865   5.620  12.937  0.00  0.00    +0.000 HD
ENDROOT
BRANCH   2   5
ATOM      5  C   UNL     1      44.831   5.111  11.440  0.00  0.00    +0.000 A 
ATOM      6  C   UNL     1      44.069   4.503  12.428  0.00  0.00    +0.000 A 
ATOM      7  S   UNL     1      43.446   2.983  11.973  0.00  0.00    +0.000 S 
ATOM      8  C   UNL     1      44.208   3.067  10.453  0.00  0.00    +0.000 A 
ATOM      9  N   UNL     1      44.120   2.038   9.569  0.00  0.00    +0.000 NA
ATOM     10  C   UNL     1      44.775   2.222   8.471  0.00  0.00    +0.000 A 
ATOM     11  N   UNL     1      45.493   3.350   8.170  0.00  0.00    +0.000 N 
ATOM     12  C   UNL     1      45.569   4.434   9.013  0.00  0.00    +0.000 A 
ATOM     13  O   UNL     1      46.151   5.463   8.687  0.00  0.00    +0.000 OA
ATOM     14  C   UNL     1      44.890   4.259  10.280  0.00  0.00    +0.000 A 
ATOM     15  H   UNL     1      45.962   3.441   7.280  0.00  0.00    +0.000 HD
ENDBRANCH   2   5
BRANCH   1  17
ATOM     16  C   UNL     1      48.519   7.930  11.692  0.00  0.00    +0.000 C 
ATOM     17  C   UNL     1      47.359   7.657  12.657  0.00  0.00    +0.000 C 
BRANCH  17  18
ATOM     18  C   UNL     1      47.906   7.657  14.080  0.00  0.00    +0.000 A 
ATOM     19  C   UNL     1      48.063   8.876  14.755  0.00  0.00    +0.000 A 
ATOM     20  C   UNL     1      48.629   8.921  16.032  0.00  0.00    +0.000 A 
ATOM     21  C   UNL     1      49.045   7.746  16.669  0.00  0.00    +0.000 A 
ATOM     22  C   UNL     1      48.882   6.524  16.004  0.00  0.00    +0.000 A 
ATOM     23  C   UNL     1      48.334   6.482  14.718  0.00  0.00    +0.000 A 
BRANCH  21  24
ATOM     24  C   UNL     1      49.634   7.790  18.061  0.00  0.00    +0.000 C 
BRANCH  24  25
ATOM     25  C   UNL     1      48.932   6.905  19.028  0.00  0.00    +0.000 C 
ATOM     26  C   UNL     1      49.476   5.710  19.612  0.00  0.00    +0.000 C 
ATOM     27  C   UNL     1      48.393   5.247  20.489  0.00  0.00    +0.000 C 
ATOM     28  N   UNL     1      47.343   6.016  20.434  0.00  0.00    +0.000 NA
ATOM     29  C   UNL     1      47.694   7.013  19.539  0.00  0.00    +0.000 C 
ENDBRANCH  24  25
ENDBRANCH  21  24
ENDBRANCH  17  18
ENDBRANCH   1  17
TORSDOF 5
ENDMDL
