MODEL 1
REMARK VINA RESULT:    -7.409      0.000      0.000
REMARK INTER + INTRA:         -11.541
REMARK INTER:                 -10.441
REMARK INTRA:                  -1.101
REMARK UNBOUND:                -1.101
REMARK  Name = 
REMARK  7 active torsions:
REMARK  status: ('A' for Active; 'I' for Inactive)
REMARK    1  A    between atoms: C_2  and  C_19
REMARK    2  A    between atoms: N_3  and  C_4
REMARK    3  A    between atoms: C_4  and  C_5
REMARK    4  A    between atoms: C_8  and  O_9
REMARK    5  A    between atoms: O_9  and  C_10
REMARK    6  A    between atoms: C_10  and  C_11
REMARK    7  A    between atoms: C_11  and  N_12
REMARK                            x       y       z     vdW  Elec       q    Type
REMARK                         _______ _______ _______ _____ _____    ______ ____
ROOT
ATOM      1  O   UNL     1      48.762   7.015  12.888  0.00  0.00    +0.000 OA
ATOM      2  C   UNL     1      48.100   6.895  13.914  0.00  0.00    +0.000 C 
ATOM      3  N   UNL     1      46.782   7.263  13.984  0.00  0.00    +0.000 N 
ATOM      4  H   UNL     1      46.238   7.068  14.814  0.00  0.00    +0.000 HD
ENDROOT
BRANCH   2   5
ATOM      5  C   UNL     1      48.689   6.392  15.159  0.00  0.00    +0.000 A 
ATOM      6  C   UNL     1      49.807   7.007  15.706  0.00  0.00    +0.000 A 
ATOM      7  S   UNL     1      50.302   6.318  17.187  0.00  0.00    +0.000 S 
ATOM      8  C   UNL     1      49.067   5.149  17.122  0.00  0.00    +0.000 A 
ATOM      9  N   UNL     1      48.915   4.228  18.111  0.00  0.00    +0.000 NA
ATOM     10  C   UNL     1      47.954   3.388  17.915  0.00  0.00    +0.000 A 
ATOM     11  N   UNL     1      47.139   3.374  16.812  0.00  0.00    +0.000 N 
ATOM     12  C   UNL     1      47.255   4.281  15.786  0.00  0.00    +0.000 A 
ATOM     13  O   UNL     1      46.512   4.238  14.814  0.00  0.00    +0.000 OA
ATOM     14  C   UNL     1      48.299   5.270  15.977  0.00  0.00    +0.000 A 
ATOM     15  H   UNL     1      46.414   2.682  16.712  0.00  0.00    +0.000 HD
ENDBRANCH   2   5
BRANCH   3  16
ATOM     16  C   UNL     1      46.064   7.724  12.818  0.00  0.00    +0.000 C 
BRANCH  16  17
ATOM     17  C   UNL     1      45.429   6.584  12.053  0.00  0.00    +0.000 A 
ATOM     18  C   UNL     1      44.334   5.905  12.586  0.00  0.00    +0.000 A 
ATOM     19  C   UNL     1      43.760   4.860  11.860  0.00  0.00    +0.000 A 
ATOM     20  C   UNL     1      44.263   4.538  10.604  0.00  0.00    +0.000 A 
ATOM     21  C   UNL     1      45.358   5.263  10.152  0.00  0.00    +0.000 A 
ATOM     22  N   UNL     1      45.942   6.279  10.835  0.00  0.00    +0.000 NA
BRANCH  20  23
ATOM     23  O   UNL     1      43.779   3.567   9.774  0.00  0.00    +0.000 OA
BRANCH  23  24
ATOM     24  C   UNL     1      44.417   3.481   8.490  0.00  0.00    +0.000 C 
BRANCH  24  25
ATOM     25  C   UNL     1      45.236   2.181   8.430  0.00  0.00    +0.000 C 
BRANCH  25  26
ATOM     26  N   UNL     1      46.661   2.368   8.094  0.00  0.00    +0.000 NA
ATOM     27  C   UNL     1      46.845   3.553   7.236  0.00  0.00    +0.000 C 
ATOM     28  C   UNL     1      46.662   3.039   5.819  0.00  0.00    +0.000 C 
ATOM     29  C   UNL     1      47.324   1.677   5.866  0.00  0.00    +0.000 C 
ATOM     30  C   UNL     1      47.246   1.253   7.329  0.00  0.00    +0.000 C 
ENDBRANCH  25  26
ENDBRANCH  24  25
ENDBRANCH  23  24
ENDBRANCH  20  23
ENDBRANCH  16  17
ENDBRANCH   3  16
TORSDOF 7
ENDMDL
MODEL 2
REMARK VINA RESULT:    -7.006      1.796      2.061
REMARK INTER + INTRA:         -10.973
REMARK INTER:                 -10.124
REMARK INTRA:                  -0.849
REMARK UNBOUND:                -1.101
REMARK  Name = 
REMARK  7 active torsions:
REMARK  status: ('A' for Active; 'I' for Inactive)
REMARK    1  A    between atoms: C_2  and  C_19
REMARK    2  A    between atoms: N_3  and  C_4
REMARK    3  A    between atoms: C_4  and  C_5
REMARK    4  A    between atoms: C_8  and  O_9
REMARK    5  A    between atoms: O_9  and  C_10
REMARK    6  A    between atoms: C_10  and  C_11
REMARK    7  A    between atoms: C_11  and  N_12
REMARK                            x       y       z     vdW  Elec       q    Type
REMARK                         _______ _______ _______ _____ _____    ______ ____
ROOT
ATOM      1  O   UNL     1      50.214   6.967  15.110  0.00  0.00    +0.000 OA
ATOM      2  C   UNL     1      49.058   6.886  15.512  0.00  0.00    +0.000 C 
ATOM      3  N   UNL     1      47.987   6.822  14.661  0.00  0.00    +0.000 N 
ATOM      4  H   UNL     1      47.054   6.664  15.019  0.00  0.00    +0.000 HD
ENDROOT
BRANCH   2   5
ATOM      5  C   UNL     1      48.736   6.902  16.943  0.00  0.00    +0.000 A 
ATOM      6  C   UNL     1      48.268   8.062  17.545  0.00  0.00    +0.000 A 
ATOM      7  S   UNL     1      47.887   7.861  19.196  0.00  0.00    +0.000 S 
ATOM      8  C   UNL     1      48.377   6.232  19.171  0.00  0.00    +0.000 A 
ATOM      9  N   UNL     1      48.300   5.455  20.285  0.00  0.00    +0.000 NA
ATOM     10  C   UNL     1      48.731   4.249  20.123  0.00  0.00    +0.000 A 
ATOM     11  N   UNL     1      49.248   3.751  18.955  0.00  0.00    +0.000 N 
ATOM     12  C   UNL     1      49.349   4.497  17.805  0.00  0.00    +0.000 A 
ATOM     13  O   UNL     1      49.818   4.021  16.779  0.00  0.00    +0.000 OA
ATOM     14  C   UNL     1      48.842   5.851  17.925  0.00  0.00    +0.000 A 
ATOM     15  H   UNL     1      49.581   2.801  18.898  0.00  0.00    +0.000 HD
ENDBRANCH   2   5
BRANCH   3  16
ATOM     16  C   UNL     1      48.165   6.745  13.229  0.00  0.00    +0.000 C 
BRANCH  16  17
ATOM     17  C   UNL     1      47.053   5.969  12.559  0.00  0.00    +0.000 A 
ATOM     18  C   UNL     1      46.467   4.881  13.205  0.00  0.00    +0.000 A 
ATOM     19  C   UNL     1      45.438   4.183  12.569  0.00  0.00    +0.000 A 
ATOM     20  C   UNL     1      44.988   4.606  11.323  0.00  0.00    +0.000 A 
ATOM     21  C   UNL     1      45.630   5.696  10.751  0.00  0.00    +0.000 A 
ATOM     22  N   UNL     1      46.636   6.391  11.339  0.00  0.00    +0.000 NA
BRANCH  20  23
ATOM     23  O   UNL     1      43.971   4.041  10.607  0.00  0.00    +0.000 OA
BRANCH  23  24
ATOM     24  C   UNL     1      44.228   2.716  10.116  0.00  0.00    +0.000 C 
BRANCH  24  25
ATOM     25  C   UNL     1      44.684   2.810   8.650  0.00  0.00    +0.000 C 
BRANCH  25  26
ATOM     26  N   UNL     1      46.147   2.761   8.459  0.00  0.00    +0.000 NA
ATOM     27  C   UNL     1      46.593   3.834   7.551  0.00  0.00    +0.000 C 
ATOM     28  C   UNL     1      46.470   3.240   6.159  0.00  0.00    +0.000 C 
ATOM     29  C   UNL     1      46.908   1.805   6.364  0.00  0.00    +0.000 C 
ATOM     30  C   UNL     1      46.625   1.514   7.834  0.00  0.00    +0.000 C 
ENDBRANCH  25  26
ENDBRANCH  24  25
ENDBRANCH  23  24
ENDBRANCH  20  23
ENDBRANCH  16  17
ENDBRANCH   3  16
TORSDOF 7
ENDMDL
MODEL 3
REMARK VINA RESULT:    -6.810      3.147      4.586
REMARK INTER + INTRA:         -10.698
REMARK INTER:                  -9.792
REMARK INTRA:                  -0.906
REMARK UNBOUND:                -1.101
REMARK  Name = 
REMARK  7 active torsions:
REMARK  status: ('A' for Active; 'I' for Inactive)
REMARK    1  A    between atoms: C_2  and  C_19
REMARK    2  A    between atoms: N_3  and  C_4
REMARK    3  A    between atoms: C_4  and  C_5
REMARK    4  A    between atoms: C_8  and  O_9
REMARK    5  A    between atoms: O_9  and  C_10
REMARK    6  A    between atoms: C_10  and  C_11
REMARK    7  A    between atoms: C_11  and  N_12
REMARK                            x       y       z     vdW  Elec       q    Type
REMARK                         _______ _______ _______ _____ _____    ______ ____
ROOT
ATOM      1  O   UNL     1      49.944   5.872  18.810  0.00  0.00    +0.000 OA
ATOM      2  C   UNL     1      50.736   5.475  17.961  0.00  0.00    +0.000 C 
ATOM      3  N   UNL     1      50.631   5.823  16.640  0.00  0.00    +0.000 N 
ATOM      4  H   UNL     1      51.349   5.556  15.980  0.00  0.00    +0.000 HD
ENDROOT
BRANCH   2   5
ATOM      5  C   UNL     1      51.829   4.556  18.294  0.00  0.00    +0.000 A 
ATOM      6  C   UNL     1      52.963   5.020  18.946  0.00  0.00    +0.000 A 
ATOM      7  S   UNL     1      54.089   3.788  19.304  0.00  0.00    +0.000 S 
ATOM      8  C   UNL     1      53.118   2.605  18.562  0.00  0.00    +0.000 A 
ATOM      9  N   UNL     1      53.501   1.300  18.524  0.00  0.00    +0.000 NA
ATOM     10  C   UNL     1      52.679   0.521  17.905  0.00  0.00    +0.000 A 
ATOM     11  N   UNL     1      51.514   0.927  17.306  0.00  0.00    +0.000 N 
ATOM     12  C   UNL     1      51.086   2.234  17.315  0.00  0.00    +0.000 A 
ATOM     13  O   UNL     1      50.042   2.562  16.767  0.00  0.00    +0.000 OA
ATOM     14  C   UNL     1      51.959   3.144  18.031  0.00  0.00    +0.000 A 
ATOM     15  H   UNL     1      50.921   0.269  16.826  0.00  0.00    +0.000 HD
ENDBRANCH   2   5
BRANCH   3  16
ATOM     16  C   UNL     1      49.633   6.763  16.184  0.00  0.00    +0.000 C 
BRANCH  16  17
ATOM     17  C   UNL     1      48.530   6.086  15.401  0.00  0.00    +0.000 A 
ATOM     18  C   UNL     1      48.109   6.614  14.181  0.00  0.00    +0.000 A 
ATOM     19  C   UNL     1      47.094   5.968  13.472  0.00  0.00    +0.000 A 
ATOM     20  C   UNL     1      46.546   4.792  13.973  0.00  0.00    +0.000 A 
ATOM     21  C   UNL     1      47.022   4.339  15.196  0.00  0.00    +0.000 A 
ATOM     22  N   UNL     1      48.002   4.946  15.912  0.00  0.00    +0.000 NA
BRANCH  20  23
ATOM     23  O   UNL     1      45.577   4.042  13.370  0.00  0.00    +0.000 OA
BRANCH  23  24
ATOM     24  C   UNL     1      45.374   4.308  11.974  0.00  0.00    +0.000 C 
BRANCH  24  25
ATOM     25  C   UNL     1      44.904   3.015  11.286  0.00  0.00    +0.000 C 
BRANCH  25  26
ATOM     26  N   UNL     1      44.255   3.218   9.976  0.00  0.00    +0.000 NA
ATOM     27  C   UNL     1      44.495   2.064   9.089  0.00  0.00    +0.000 C 
ATOM     28  C   UNL     1      45.810   2.374   8.396  0.00  0.00    +0.000 C 
ATOM     29  C   UNL     1      45.723   3.867   8.157  0.00  0.00    +0.000 C 
ATOM     30  C   UNL     1      44.767   4.381   9.230  0.00  0.00    +0.000 C 
ENDBRANCH  25  26
ENDBRANCH  24  25
ENDBRANCH  23  24
ENDBRANCH  20  23
ENDBRANCH  16  17
ENDBRANCH   3  16
TORSDOF 7
ENDMDL
MODEL 4
REMARK VINA RESULT:    -6.565      1.524      2.159
REMARK INTER + INTRA:         -10.352
REMARK INTER:                  -9.720
REMARK INTRA:                  -0.632
REMARK UNBOUND:                -1.101
REMARK  Name = 
REMARK  7 active torsions:
REMARK  status: ('A' for Active; 'I' for Inactive)
REMARK    1  A    between atoms: C_2  and  C_19
REMARK    2  A    between atoms: N_3  and  C_4
REMARK    3  A    between atoms: C_4  and  C_5
REMARK    4  A    between atoms: C_8  and  O_9
REMARK    5  A    between atoms: O_9  and  C_10
REMARK    6  A    between atoms: C_10  and  C_11
REMARK    7  A    between atoms: C_11  and  N_12
REMARK                            x       y       z     vdW  Elec       q    Type
REMARK                         _______ _______ _______ _____ _____    ______ ____
ROOT
ATOM      1  O   UNL     1      50.072   7.413  14.479  0.00  0.00    +0.000 OA
ATOM      2  C   UNL     1      49.135   7.190  15.239  0.00  0.00    +0.000 C 
ATOM      3  N   UNL     1      47.840   7.500  14.918  0.00  0.00    +0.000 N 
ATOM      4  H   UNL     1      47.080   7.223  15.525  0.00  0.00    +0.000 HD
ENDROOT
BRANCH   2   5
ATOM      5  C   UNL     1      49.343   6.617  16.572  0.00  0.00    +0.000 A 
ATOM      6  C   UNL     1      50.109   7.289  17.515  0.00  0.00    +0.000 A 
ATOM      7  S   UNL     1      50.177   6.494  19.023  0.00  0.00    +0.000 S 
ATOM      8  C   UNL     1      49.223   5.207  18.454  0.00  0.00    +0.000 A 
ATOM      9  N   UNL     1      48.888   4.165  19.262  0.00  0.00    +0.000 NA
ATOM     10  C   UNL     1      48.184   3.249  18.686  0.00  0.00    +0.000 A 
ATOM     11  N   UNL     1      47.795   3.269  17.371  0.00  0.00    +0.000 N 
ATOM     12  C   UNL     1      48.111   4.297  16.515  0.00  0.00    +0.000 A 
ATOM     13  O   UNL     1      47.750   4.281  15.345  0.00  0.00    +0.000 OA
ATOM     14  C   UNL     1      48.872   5.371  17.125  0.00  0.00    +0.000 A 
ATOM     15  H   UNL     1      47.256   2.514  16.978  0.00  0.00    +0.000 HD
ENDBRANCH   2   5
BRANCH   3  16
ATOM     16  C   UNL     1      47.488   8.021  13.617  0.00  0.00    +0.000 C 
BRANCH  16  17
ATOM     17  C   UNL     1      46.350   7.251  12.985  0.00  0.00    +0.000 A 
ATOM     18  C   UNL     1      45.620   7.810  11.937  0.00  0.00    +0.000 A 
ATOM     19  C   UNL     1      44.576   7.079  11.366  0.00  0.00    +0.000 A 
ATOM     20  C   UNL     1      44.308   5.793  11.823  0.00  0.00    +0.000 A 
ATOM     21  C   UNL     1      45.082   5.315  12.872  0.00  0.00    +0.000 A 
ATOM     22  N   UNL     1      46.097   6.003  13.452  0.00  0.00    +0.000 NA
BRANCH  20  23
ATOM     23  O   UNL     1      43.345   4.956  11.333  0.00  0.00    +0.000 OA
BRANCH  23  24
ATOM     24  C   UNL     1      43.535   3.563  11.627  0.00  0.00    +0.000 C 
BRANCH  24  25
ATOM     25  C   UNL     1      44.648   3.013  10.719  0.00  0.00    +0.000 C 
BRANCH  25  26
ATOM     26  N   UNL     1      44.262   2.852   9.303  0.00  0.00    +0.000 NA
ATOM     27  C   UNL     1      44.765   1.574   8.765  0.00  0.00    +0.000 C 
ATOM     28  C   UNL     1      46.164   1.888   8.266  0.00  0.00    +0.000 C 
ATOM     29  C   UNL     1      46.009   3.274   7.675  0.00  0.00    +0.000 C 
ATOM     30  C   UNL     1      44.820   3.884   8.411  0.00  0.00    +0.000 C 
ENDBRANCH  25  26
ENDBRANCH  24  25
ENDBRANCH  23  24
ENDBRANCH  20  23
ENDBRANCH  16  17
ENDBRANCH   3  16
TORSDOF 7
ENDMDL
MODEL 5
REMARK VINA RESULT:    -6.500      2.653      3.309
REMARK INTER + INTRA:         -10.260
REMARK INTER:                  -9.369
REMARK INTRA:                  -0.891
REMARK UNBOUND:                -1.101
REMARK  Name = 
REMARK  7 active torsions:
REMARK  status: ('A' for Active; 'I' for Inactive)
REMARK    1  A    between atoms: C_2  and  C_19
REMARK    2  A    between atoms: N_3  and  C_4
REMARK    3  A    between atoms: C_4  and  C_5
REMARK    4  A    between atoms: C_8  and  O_9
REMARK    5  A    between atoms: O_9  and  C_10
REMARK    6  A    between atoms: C_10  and  C_11
REMARK    7  A    between atoms: C_11  and  N_12
REMARK                            x       y       z     vdW  Elec       q    Type
REMARK                         _______ _______ _______ _____ _____    ______ ____
ROOT
ATOM      1  O   UNL     1      50.286   6.205  15.885  0.00  0.00    +0.000 OA
ATOM      2  C   UNL     1      49.146   6.348  16.316  0.00  0.00    +0.000 C 
ATOM      3  N   UNL     1      48.098   6.715  15.515  0.00  0.00    +0.000 N 
ATOM      4  H   UNL     1      47.155   6.737  15.880  0.00  0.00    +0.000 HD
ENDROOT
BRANCH   2   5
ATOM      5  C   UNL     1      48.834   6.181  17.740  0.00  0.00    +0.000 A 
ATOM      6  C   UNL     1      49.032   4.958  18.364  0.00  0.00    +0.000 A 
ATOM      7  S   UNL     1      48.674   4.983  20.033  0.00  0.00    +0.000 S 
ATOM      8  C   UNL     1      48.202   6.616  19.965  0.00  0.00    +0.000 A 
ATOM      9  N   UNL     1      47.781   7.276  21.078  0.00  0.00    +0.000 NA
ATOM     10  C   UNL     1      47.429   8.500  20.871  0.00  0.00    +0.000 A 
ATOM     11  N   UNL     1      47.443   9.124  19.650  0.00  0.00    +0.000 N 
ATOM     12  C   UNL     1      47.855   8.499  18.497  0.00  0.00    +0.000 A 
ATOM     13  O   UNL     1      47.852   9.086  17.422  0.00  0.00    +0.000 OA
ATOM     14  C   UNL     1      48.297   7.130  18.684  0.00  0.00    +0.000 A 
ATOM     15  H   UNL     1      47.141  10.081  19.553  0.00  0.00    +0.000 HD
ENDBRANCH   2   5
BRANCH   3  16
ATOM     16  C   UNL     1      48.256   6.861  14.086  0.00  0.00    +0.000 C 
BRANCH  16  17
ATOM     17  C   UNL     1      47.098   6.257  13.322  0.00  0.00    +0.000 A 
ATOM     18  C   UNL     1      46.326   5.249  13.898  0.00  0.00    +0.000 A 
ATOM     19  C   UNL     1      45.258   4.711  13.177  0.00  0.00    +0.000 A 
ATOM     20  C   UNL     1      44.959   5.213  11.915  0.00  0.00    +0.000 A 
ATOM     21  C   UNL     1      45.782   6.213  11.416  0.00  0.00    +0.000 A 
ATOM     22  N   UNL     1      46.829   6.753  12.088  0.00  0.00    +0.000 NA
BRANCH  20  23
ATOM     23  O   UNL     1      43.927   4.805  11.117  0.00  0.00    +0.000 OA
BRANCH  23  24
ATOM     24  C   UNL     1      43.779   3.383  10.983  0.00  0.00    +0.000 C 
BRANCH  24  25
ATOM     25  C   UNL     1      44.973   2.834  10.186  0.00  0.00    +0.000 C 
BRANCH  25  26
ATOM     26  N   UNL     1      44.659   2.450   8.795  0.00  0.00    +0.000 NA
ATOM     27  C   UNL     1      45.537   1.355   8.343  0.00  0.00    +0.000 C 
ATOM     28  C   UNL     1      46.768   2.049   7.789  0.00  0.00    +0.000 C 
ATOM     29  C   UNL     1      46.188   3.267   7.100  0.00  0.00    +0.000 C 
ATOM     30  C   UNL     1      44.867   3.531   7.816  0.00  0.00    +0.000 C 
ENDBRANCH  25  26
ENDBRANCH  24  25
ENDBRANCH  23  24
ENDBRANCH  20  23
ENDBRANCH  16  17
ENDBRANCH   3  16
TORSDOF 7
ENDMDL
MODEL 6
REMARK VINA RESULT:    -6.481      3.876      9.400
REMARK INTER + INTRA:         -10.233
REMARK INTER:                  -8.884
REMARK INTRA:                  -1.349
REMARK UNBOUND:                -1.101
REMARK  Name = 
REMARK  7 active torsions:
REMARK  status: ('A' for Active; 'I' for Inactive)
REMARK    1  A    between atoms: C_2  and  C_19
REMARK    2  A    between atoms: N_3  and  C_4
REMARK    3  A    between atoms: C_4  and  C_5
REMARK    4  A    between atoms: C_8  and  O_9
REMARK    5  A    between atoms: O_9  and  C_10
REMARK    6  A    between atoms: C_10  and  C_11
REMARK    7  A    between atoms: C_11  and  N_12
REMARK                            x       y       z     vdW  Elec       q    Type
REMARK                         _______ _______ _______ _____ _____    ______ ____
ROOT
ATOM      1  O   UNL     1      47.502   3.444  13.656  0.00  0.00    +0.000 OA
ATOM      2  C   UNL     1      46.879   4.345  14.209  0.00  0.00    +0.000 C 
ATOM      3  N   UNL     1      46.755   4.424  15.571  0.00  0.00    +0.000 N 
ATOM      4  H   UNL     1      46.314   5.226  16.001  0.00  0.00    +0.000 HD
ENDROOT
BRANCH   2   5
ATOM      5  C   UNL     1      46.178   5.381  13.443  0.00  0.00    +0.000 A 
ATOM      6  C   UNL     1      46.748   6.635  13.272  0.00  0.00    +0.000 A 
ATOM      7  S   UNL     1      45.812   7.677  12.298  0.00  0.00    +0.000 S 
ATOM      8  C   UNL     1      44.595   6.503  12.110  0.00  0.00    +0.000 A 
ATOM      9  N   UNL     1      43.485   6.751  11.365  0.00  0.00    +0.000 NA
ATOM     10  C   UNL     1      42.636   5.779  11.334  0.00  0.00    +0.000 A 
ATOM     11  N   UNL     1      42.786   4.586  11.994  0.00  0.00    +0.000 N 
ATOM     12  C   UNL     1      43.888   4.290  12.761  0.00  0.00    +0.000 A 
ATOM     13  O   UNL     1      43.988   3.215  13.338  0.00  0.00    +0.000 OA
ATOM     14  C   UNL     1      44.890   5.338  12.797  0.00  0.00    +0.000 A 
ATOM     15  H   UNL     1      42.078   3.870  11.940  0.00  0.00    +0.000 HD
ENDBRANCH   2   5
BRANCH   3  16
ATOM     16  C   UNL     1      47.439   3.498  16.445  0.00  0.00    +0.000 C 
BRANCH  16  17
ATOM     17  C   UNL     1      48.492   4.184  17.287  0.00  0.00    +0.000 A 
ATOM     18  C   UNL     1      48.514   4.005  18.669  0.00  0.00    +0.000 A 
ATOM     19  C   UNL     1      49.499   4.643  19.425  0.00  0.00    +0.000 A 
ATOM     20  C   UNL     1      50.464   5.415  18.785  0.00  0.00    +0.000 A 
ATOM     21  C   UNL     1      50.365   5.542  17.406  0.00  0.00    +0.000 A 
ATOM     22  N   UNL     1      49.417   4.941  16.645  0.00  0.00    +0.000 NA
BRANCH  20  23
ATOM     23  O   UNL     1      51.500   6.063  19.394  0.00  0.00    +0.000 OA
BRANCH  23  24
ATOM     24  C   UNL     1      51.428   7.497  19.368  0.00  0.00    +0.000 C 
BRANCH  24  25
ATOM     25  C   UNL     1      50.583   7.972  20.562  0.00  0.00    +0.000 C 
BRANCH  25  26
ATOM     26  N   UNL     1      49.480   8.887  20.207  0.00  0.00    +0.000 NA
ATOM     27  C   UNL     1      48.347   8.728  21.139  0.00  0.00    +0.000 C 
ATOM     28  C   UNL     1      47.508   7.613  20.543  0.00  0.00    +0.000 C 
ATOM     29  C   UNL     1      47.599   7.880  19.055  0.00  0.00    +0.000 C 
ATOM     30  C   UNL     1      48.907   8.642  18.871  0.00  0.00    +0.000 C 
ENDBRANCH  25  26
ENDBRANCH  24  25
ENDBRANCH  23  24
ENDBRANCH  20  23
ENDBRANCH  16  17
ENDBRANCH   3  16
TORSDOF 7
ENDMDL
MODEL 7
REMARK VINA RESULT:    -6.369      2.784      8.441
REMARK INTER + INTRA:         -10.076
REMARK INTER:                  -8.757
REMARK INTRA:                  -1.319
REMARK UNBOUND:                -1.101
REMARK  Name = 
REMARK  7 active torsions:
REMARK  status: ('A' for Active; 'I' for Inactive)
REMARK    1  A    between atoms: C_2  and  C_19
REMARK    2  A    between atoms: N_3  and  C_4
REMARK    3  A    between atoms: C_4  and  C_5
REMARK    4  A    between atoms: C_8  and  O_9
REMARK    5  A    between atoms: O_9  and  C_10
REMARK    6  A    between atoms: C_10  and  C_11
REMARK    7  A    between atoms: C_11  and  N_12
REMARK                            x       y       z     vdW  Elec       q    Type
REMARK                         _______ _______ _______ _____ _____    ______ ____
ROOT
ATOM      1  O   UNL     1      44.759   7.473  11.762  0.00  0.00    +0.000 OA
ATOM      2  C   UNL     1      45.477   6.479  11.720  0.00  0.00    +0.000 C 
ATOM      3  N   UNL     1      46.840   6.552  11.836  0.00  0.00    +0.000 N 
ATOM      4  H   UNL     1      47.396   5.709  11.888  0.00  0.00    +0.000 HD
ENDROOT
BRANCH   2   5
ATOM      5  C   UNL     1      44.926   5.139  11.493  0.00  0.00    +0.000 A 
ATOM      6  C   UNL     1      44.269   4.467  12.514  0.00  0.00    +0.000 A 
ATOM      7  S   UNL     1      43.643   2.953  12.036  0.00  0.00    +0.000 S 
ATOM      8  C   UNL     1      44.267   3.127  10.463  0.00  0.00    +0.000 A 
ATOM      9  N   UNL     1      44.076   2.168   9.518  0.00  0.00    +0.000 NA
ATOM     10  C   UNL     1      44.629   2.424   8.379  0.00  0.00    +0.000 A 
ATOM     11  N   UNL     1      45.369   3.544   8.101  0.00  0.00    +0.000 N 
ATOM     12  C   UNL     1      45.592   4.539   9.023  0.00  0.00    +0.000 A 
ATOM     13  O   UNL     1      46.260   5.526   8.741  0.00  0.00    +0.000 OA
ATOM     14  C   UNL     1      44.960   4.316  10.309  0.00  0.00    +0.000 A 
ATOM     15  H   UNL     1      45.786   3.678   7.194  0.00  0.00    +0.000 HD
ENDBRANCH   2   5
BRANCH   3  16
ATOM     16  C   UNL     1      47.508   7.802  12.115  0.00  0.00    +0.000 C 
BRANCH  16  17
ATOM     17  C   UNL     1      48.032   7.863  13.533  0.00  0.00    +0.000 A 
ATOM     18  C   UNL     1      48.741   6.787  14.065  0.00  0.00    +0.000 A 
ATOM     19  C   UNL     1      49.220   6.868  15.375  0.00  0.00    +0.000 A 
ATOM     20  C   UNL     1      49.017   8.030  16.111  0.00  0.00    +0.000 A 
ATOM     21  C   UNL     1      48.297   9.051  15.504  0.00  0.00    +0.000 A 
ATOM     22  N   UNL     1      47.813   9.001  14.238  0.00  0.00    +0.000 NA
BRANCH  20  23
ATOM     23  O   UNL     1      49.460   8.257  17.383  0.00  0.00    +0.000 OA
BRANCH  23  24
ATOM     24  C   UNL     1      48.630   7.723  18.427  0.00  0.00    +0.000 C 
BRANCH  24  25
ATOM     25  C   UNL     1      49.293   6.452  18.984  0.00  0.00    +0.000 C 
BRANCH  25  26
ATOM     26  N   UNL     1      48.356   5.352  19.284  0.00  0.00    +0.000 NA
ATOM     27  C   UNL     1      48.966   4.045  18.973  0.00  0.00    +0.000 C 
ATOM     28  C   UNL     1      48.651   3.809  17.507  0.00  0.00    +0.000 C 
ATOM     29  C   UNL     1      47.246   4.357  17.370  0.00  0.00    +0.000 C 
ATOM     30  C   UNL     1      47.117   5.389  18.486  0.00  0.00    +0.000 C 
ENDBRANCH  25  26
ENDBRANCH  24  25
ENDBRANCH  23  24
ENDBRANCH  20  23
ENDBRANCH  16  17
ENDBRANCH   3  16
TORSDOF 7
ENDMDL
MODEL 8
REMARK VINA RESULT:    -6.142      3.200      7.835
REMARK INTER + INTRA:          -9.756
REMARK INTER:                  -9.231
REMARK INTRA:                  -0.525
REMARK UNBOUND:                -1.101
REMARK  Name = 
REMARK  7 active torsions:
REMARK  status: ('A' for Active; 'I' for Inactive)
REMARK    1  A    between atoms: C_2  and  C_19
REMARK    2  A    between atoms: N_3  and  C_4
REMARK    3  A    between atoms: C_4  and  C_5
REMARK    4  A    between atoms: C_8  and  O_9
REMARK    5  A    between atoms: O_9  and  C_10
REMARK    6  A    between atoms: C_10  and  C_11
REMARK    7  A    between atoms: C_11  and  N_12
REMARK                            x       y       z     vdW  Elec       q    Type
REMARK                         _______ _______ _______ _____ _____    ______ ____
ROOT
ATOM      1  O   UNL     1      45.554   7.851  11.759  0.00  0.00    +0.000 OA
ATOM      2  C   UNL     1      46.203   6.861  11.437  0.00  0.00    +0.000 C 
ATOM      3  N   UNL     1      47.557   6.777  11.623  0.00  0.00    +0.000 N 
ATOM      4  H   UNL     1      48.050   5.915  11.432  0.00  0.00    +0.000 HD
ENDROOT
BRANCH   2   5
ATOM      5  C   UNL     1      45.577   5.708  10.779  0.00  0.00    +0.000 A 
ATOM      6  C   UNL     1      45.698   5.530   9.408  0.00  0.00    +0.000 A 
ATOM      7  S   UNL     1      44.959   4.100   8.843  0.00  0.00    +0.000 S 
ATOM      8  C   UNL     1      44.416   3.695  10.404  0.00  0.00    +0.000 A 
ATOM      9  N   UNL     1      43.708   2.556  10.631  0.00  0.00    +0.000 NA
ATOM     10  C   UNL     1      43.340   2.394  11.858  0.00  0.00    +0.000 A 
ATOM     11  N   UNL     1      43.600   3.273  12.878  0.00  0.00    +0.000 N 
ATOM     12  C   UNL     1      44.309   4.437  12.697  0.00  0.00    +0.000 A 
ATOM     13  O   UNL     1      44.521   5.201  13.630  0.00  0.00    +0.000 OA
ATOM     14  C   UNL     1      44.777   4.648  11.341  0.00  0.00    +0.000 A 
ATOM     15  H   UNL     1      43.272   3.094  13.814  0.00  0.00    +0.000 HD
ENDBRANCH   2   5
BRANCH   3  16
ATOM     16  C   UNL     1      48.290   7.818  12.306  0.00  0.00    +0.000 C 
BRANCH  16  17
ATOM     17  C   UNL     1      48.499   7.500  13.771  0.00  0.00    +0.000 A 
ATOM     18  C   UNL     1      48.901   8.498  14.656  0.00  0.00    +0.000 A 
ATOM     19  C   UNL     1      49.081   8.182  16.005  0.00  0.00    +0.000 A 
ATOM     20  C   UNL     1      48.820   6.891  16.449  0.00  0.00    +0.000 A 
ATOM     21  C   UNL     1      48.426   5.958  15.498  0.00  0.00    +0.000 A 
ATOM     22  N   UNL     1      48.249   6.232  14.182  0.00  0.00    +0.000 NA
BRANCH  20  23
ATOM     23  O   UNL     1      48.920   6.454  17.739  0.00  0.00    +0.000 OA
BRANCH  23  24
ATOM     24  C   UNL     1      50.239   6.073  18.158  0.00  0.00    +0.000 C 
BRANCH  24  25
ATOM     25  C   UNL     1      50.596   4.726  17.507  0.00  0.00    +0.000 C 
BRANCH  25  26
ATOM     26  N   UNL     1      50.058   3.544  18.208  0.00  0.00    +0.000 NA
ATOM     27  C   UNL     1      50.040   2.369  17.316  0.00  0.00    +0.000 C 
ATOM     28  C   UNL     1      48.706   2.450  16.596  0.00  0.00    +0.000 C 
ATOM     29  C   UNL     1      47.768   2.948  17.676  0.00  0.00    +0.000 C 
ATOM     30  C   UNL     1      48.663   3.699  18.657  0.00  0.00    +0.000 C 
ENDBRANCH  25  26
ENDBRANCH  24  25
ENDBRANCH  23  24
ENDBRANCH  20  23
ENDBRANCH  16  17
ENDBRANCH   3  16
TORSDOF 7
ENDMDL
MODEL 9
REMARK VINA RESULT:    -5.783      4.544      7.404
REMARK INTER + INTRA:          -9.250
REMARK INTER:                  -8.332
REMARK INTRA:                  -0.918
REMARK UNBOUND:                -1.101
REMARK  Name = 
REMARK  7 active torsions:
REMARK  status: ('A' for Active; 'I' for Inactive)
REMARK    1  A    between atoms: C_2  and  C_19
REMARK    2  A    between atoms: N_3  and  C_4
REMARK    3  A    between atoms: C_4  and  C_5
REMARK    4  A    between atoms: C_8  and  O_9
REMARK    5  A    between atoms: O_9  and  C_10
REMARK    6  A    between atoms: C_10  and  C_11
REMARK    7  A    between atoms: C_11  and  N_12
REMARK                            x       y       z     vdW  Elec       q    Type
REMARK                         _______ _______ _______ _____ _____    ______ ____
ROOT
ATOM      1  O   UNL     1      43.753   7.341  11.396  0.00  0.00    +0.000 OA
ATOM      2  C   UNL     1      44.636   6.505  11.561  0.00  0.00    +0.000 C 
ATOM      3  N   UNL     1      45.911   6.845  11.929  0.00  0.00    +0.000 N 
ATOM      4  H   UNL     1      46.592   6.130  12.145  0.00  0.00    +0.000 HD
ENDROOT
BRANCH   2   5
ATOM      5  C   UNL     1      44.399   5.076  11.327  0.00  0.00    +0.000 A 
ATOM      6  C   UNL     1      43.704   4.317  12.258  0.00  0.00    +0.000 A 
ATOM      7  S   UNL     1      43.474   2.697  11.774  0.00  0.00    +0.000 S 
ATOM      8  C   UNL     1      44.333   2.946  10.328  0.00  0.00    +0.000 A 
ATOM      9  N   UNL     1      44.506   1.940   9.428  0.00  0.00    +0.000 NA
ATOM     10  C   UNL     1      45.201   2.267   8.390  0.00  0.00    +0.000 A 
ATOM     11  N   UNL     1      45.755   3.503   8.176  0.00  0.00    +0.000 N 
ATOM     12  C   UNL     1      45.612   4.549   9.056  0.00  0.00    +0.000 A 
ATOM     13  O   UNL     1      46.123   5.639   8.834  0.00  0.00    +0.000 OA
ATOM     14  C   UNL     1      44.806   4.242  10.223  0.00  0.00    +0.000 A 
ATOM     15  H   UNL     1      46.300   3.691   7.349  0.00  0.00    +0.000 HD
ENDBRANCH   2   5
BRANCH   3  16
ATOM     16  C   UNL     1      46.266   8.210  12.242  0.00  0.00    +0.000 C 
BRANCH  16  17
ATOM     17  C   UNL     1      47.728   8.493  11.974  0.00  0.00    +0.000 A 
ATOM     18  C   UNL     1      48.156   9.794  11.717  0.00  0.00    +0.000 A 
ATOM     19  C   UNL     1      49.512  10.032  11.479  0.00  0.00    +0.000 A 
ATOM     20  C   UNL     1      50.416   8.976  11.539  0.00  0.00    +0.000 A 
ATOM     21  C   UNL     1      49.902   7.713  11.798  0.00  0.00    +0.000 A 
ATOM     22  N   UNL     1      48.592   7.448  12.028  0.00  0.00    +0.000 NA
BRANCH  20  23
ATOM     23  O   UNL     1      51.767   9.071  11.363  0.00  0.00    +0.000 OA
BRANCH  23  24
ATOM     24  C   UNL     1      52.373   7.975  10.661  0.00  0.00    +0.000 C 
BRANCH  24  25
ATOM     25  C   UNL     1      53.494   8.522   9.761  0.00  0.00    +0.000 C 
BRANCH  25  26
ATOM     26  N   UNL     1      54.006   7.561   8.765  0.00  0.00    +0.000 NA
ATOM     27  C   UNL     1      54.060   8.175   7.425  0.00  0.00    +0.000 C 
ATOM     28  C   UNL     1      52.684   7.936   6.832  0.00  0.00    +0.000 C 
ATOM     29  C   UNL     1      52.341   6.545   7.323  0.00  0.00    +0.000 C 
ATOM     30  C   UNL     1      53.159   6.366   8.598  0.00  0.00    +0.000 C 
ENDBRANCH  25  26
ENDBRANCH  24  25
ENDBRANCH  23  24
ENDBRANCH  20  23
ENDBRANCH  16  17
ENDBRANCH   3  16
TORSDOF 7
ENDMDL
