MODEL 1
REMARK VINA RESULT:    -7.657      0.000      0.000
REMARK INTER + INTRA:         -10.155
REMARK INTER:                  -9.671
REMARK INTRA:                  -0.484
REMARK UNBOUND:                -0.484
REMARK  Name = 
REMARK  5 active torsions:
REMARK  status: ('A' for Active; 'I' for Inactive)
REMARK    1  A    between atoms: N_1  and  C_2
REMARK    2  A    between atoms: C_2  and  C_3
REMARK    3  A    between atoms: C_6  and  O_7
REMARK    4  A    between atoms: O_7  and  C_8
REMARK    5  A    between atoms: C_8  and  C_9
REMARK                            x       y       z     vdW  Elec       q    Type
REMARK                         _______ _______ _______ _____ _____    ______ ____
ROOT
ATOM      1  C   UNL     1      46.990   2.383   7.284  0.00  0.00    +0.000 A 
ATOM      2  C   UNL     1      46.493   3.690   7.359  0.00  0.00    +0.000 A 
ATOM      3  C   UNL     1      45.406   3.992   8.182  0.00  0.00    +0.000 A 
ATOM      4  C   UNL     1      44.812   2.996   8.957  0.00  0.00    +0.000 A 
ATOM      5  C   UNL     1      45.273   1.683   8.860  0.00  0.00    +0.000 A 
ATOM      6  C   UNL     1      46.356   1.388   8.033  0.00  0.00    +0.000 A 
ATOM      7  F   UNL     1      46.792   0.122   7.973  0.00  0.00    +0.000 F 
ENDROOT
BRANCH   1   8
ATOM      8  C   UNL     1      48.157   2.063   6.392  0.00  0.00    +0.000 C 
BRANCH   8   9
ATOM      9  N   UNL     1      48.056   2.756   5.109  0.00  0.00    +0.000 NA
ATOM     10  H   UNL     1      48.614   3.607   5.151  0.00  0.00    +0.000 HD
ATOM     11  H   UNL     1      47.092   3.057   4.979  0.00  0.00    +0.000 HD
ENDBRANCH   8   9
ENDBRANCH   1   8
BRANCH   4  12
ATOM     12  O   UNL     1      43.777   3.197   9.833  0.00  0.00    +0.000 OA
BRANCH  12  13
ATOM     13  C   UNL     1      43.717   4.510  10.399  0.00  0.00    +0.000 C 
BRANCH  13  14
ATOM     14  C   UNL     1      44.753   4.692  11.474  0.00  0.00    +0.000 A 
ATOM     15  C   UNL     1      45.663   5.752  11.480  0.00  0.00    +0.000 A 
ATOM     16  C   UNL     1      46.535   5.905  12.553  0.00  0.00    +0.000 A 
ATOM     17  C   UNL     1      46.462   4.997  13.595  0.00  0.00    +0.000 A 
ATOM     18  N   UNL     1      45.591   3.965  13.631  0.00  0.00    +0.000 NA
ATOM     19  C   UNL     1      44.758   3.840  12.576  0.00  0.00    +0.000 A 
ENDBRANCH  13  14
ENDBRANCH  12  13
ENDBRANCH   4  12
TORSDOF 5
ENDMDL
MODEL 2
REMARK VINA RESULT:    -7.258      1.585      1.975
REMARK INTER + INTRA:          -9.651
REMARK INTER:                  -9.141
REMARK INTRA:                  -0.511
REMARK UNBOUND:                -0.484
REMARK  Name = 
REMARK  5 active torsions:
REMARK  status: ('A' for Active; 'I' for Inactive)
REMARK    1  A    between atoms: N_1  and  C_2
REMARK    2  A    between atoms: C_2  and  C_3
REMARK    3  A    between atoms: C_6  and  O_7
REMARK    4  A    between atoms: O_7  and  C_8
REMARK    5  A    between atoms: C_8  and  C_9
REMARK                            x       y       z     vdW  Elec       q    Type
REMARK                         _______ _______ _______ _____ _____    ______ ____
ROOT
ATOM      1  C   UNL     1      46.222   1.915   7.922  0.00  0.00    +0.000 A 
ATOM      2  C   UNL     1      45.231   1.472   8.808  0.00  0.00    +0.000 A 
ATOM      3  C   UNL     1      44.358   2.380   9.410  0.00  0.00    +0.000 A 
ATOM      4  C   UNL     1      44.450   3.742   9.122  0.00  0.00    +0.000 A 
ATOM      5  C   UNL     1      45.457   4.199   8.273  0.00  0.00    +0.000 A 
ATOM      6  C   UNL     1      46.329   3.287   7.679  0.00  0.00    +0.000 A 
ATOM      7  F   UNL     1      47.276   3.750   6.851  0.00  0.00    +0.000 F 
ENDROOT
BRANCH   1   8
ATOM      8  C   UNL     1      47.162   0.933   7.280  0.00  0.00    +0.000 C 
BRANCH   8   9
ATOM      9  N   UNL     1      46.873  -0.437   7.698  0.00  0.00    +0.000 NA
ATOM     10  H   UNL     1      46.776  -0.458   8.711  0.00  0.00    +0.000 HD
ATOM     11  H   UNL     1      47.681  -1.019   7.480  0.00  0.00    +0.000 HD
ENDBRANCH   8   9
ENDBRANCH   1   8
BRANCH   4  12
ATOM     12  O   UNL     1      43.611   4.706   9.619  0.00  0.00    +0.000 OA
BRANCH  12  13
ATOM     13  C   UNL     1      43.356   4.612  11.024  0.00  0.00    +0.000 C 
BRANCH  13  14
ATOM     14  C   UNL     1      44.598   4.888  11.826  0.00  0.00    +0.000 A 
ATOM     15  C   UNL     1      45.321   6.078  11.722  0.00  0.00    +0.000 A 
ATOM     16  C   UNL     1      46.409   6.299  12.560  0.00  0.00    +0.000 A 
ATOM     17  C   UNL     1      46.734   5.324  13.487  0.00  0.00    +0.000 A 
ATOM     18  N   UNL     1      46.055   4.164  13.625  0.00  0.00    +0.000 NA
ATOM     19  C   UNL     1      45.004   3.977  12.799  0.00  0.00    +0.000 A 
ENDBRANCH  13  14
ENDBRANCH  12  13
ENDBRANCH   4  12
TORSDOF 5
ENDMDL
MODEL 3
REMARK VINA RESULT:    -6.934      2.261      6.046
REMARK INTER + INTRA:          -9.242
REMARK INTER:                  -8.745
REMARK INTRA:                  -0.496
REMARK UNBOUND:                -0.484
REMARK  Name = 
REMARK  5 active torsions:
REMARK  status: ('A' for Active; 'I' for Inactive)
REMARK    1  A    between atoms: N_1  and  C_2
REMARK    2  A    between atoms: C_2  and  C_3
REMARK    3  A    between atoms: C_6  and  O_7
REMARK    4  A    between atoms: O_7  and  C_8
REMARK    5  A    between atoms: C_8  and  C_9
REMARK                            x       y       z     vdW  Elec       q    Type
REMARK                         _______ _______ _______ _____ _____    ______ ____
ROOT
ATOM      1  C   UNL     1      46.360   5.350  12.792  0.00  0.00    +0.000 A 
ATOM      2  C   UNL     1      45.915   4.035  12.977  0.00  0.00    +0.000 A 
ATOM      3  C   UNL     1      45.183   3.384  11.981  0.00  0.00    +0.000 A 
ATOM      4  C   UNL     1      44.901   4.032  10.779  0.00  0.00    +0.000 A 
ATOM      5  C   UNL     1      45.304   5.356  10.599  0.00  0.00    +0.000 A 
ATOM      6  C   UNL     1      46.030   6.000  11.600  0.00  0.00    +0.000 A 
ATOM      7  F   UNL     1      46.422   7.265  11.395  0.00  0.00    +0.000 F 
ENDROOT
BRANCH   1   8
ATOM      8  C   UNL     1      47.143   6.046  13.869  0.00  0.00    +0.000 C 
BRANCH   8   9
ATOM      9  N   UNL     1      47.516   5.125  14.941  0.00  0.00    +0.000 NA
ATOM     10  H   UNL     1      48.517   4.949  14.888  0.00  0.00    +0.000 HD
ATOM     11  H   UNL     1      47.063   4.229  14.769  0.00  0.00    +0.000 HD
ENDBRANCH   8   9
ENDBRANCH   1   8
BRANCH   4  12
ATOM     12  O   UNL     1      44.236   3.467   9.722  0.00  0.00    +0.000 OA
BRANCH  12  13
ATOM     13  C   UNL     1      44.689   2.159   9.358  0.00  0.00    +0.000 C 
BRANCH  13  14
ATOM     14  C   UNL     1      45.654   2.214   8.206  0.00  0.00    +0.000 A 
ATOM     15  C   UNL     1      45.825   3.350   7.412  0.00  0.00    +0.000 A 
ATOM     16  C   UNL     1      46.799   3.357   6.418  0.00  0.00    +0.000 A 
ATOM     17  C   UNL     1      47.582   2.226   6.258  0.00  0.00    +0.000 A 
ATOM     18  N   UNL     1      47.454   1.112   7.010  0.00  0.00    +0.000 NA
ATOM     19  C   UNL     1      46.500   1.134   7.965  0.00  0.00    +0.000 A 
ENDBRANCH  13  14
ENDBRANCH  12  13
ENDBRANCH   4  12
TORSDOF 5
ENDMDL
MODEL 4
REMARK VINA RESULT:    -6.886      2.557      5.959
REMARK INTER + INTRA:          -9.182
REMARK INTER:                  -8.692
REMARK INTRA:                  -0.489
REMARK UNBOUND:                -0.484
REMARK  Name = 
REMARK  5 active torsions:
REMARK  status: ('A' for Active; 'I' for Inactive)
REMARK    1  A    between atoms: N_1  and  C_2
REMARK    2  A    between atoms: C_2  and  C_3
REMARK    3  A    between atoms: C_6  and  O_7
REMARK    4  A    between atoms: O_7  and  C_8
REMARK    5  A    between atoms: C_8  and  C_9
REMARK                            x       y       z     vdW  Elec       q    Type
REMARK                         _______ _______ _______ _____ _____    ______ ____
ROOT
ATOM      1  C   UNL     1      46.649   6.245  12.852  0.00  0.00    +0.000 A 
ATOM      2  C   UNL     1      46.384   6.655  11.539  0.00  0.00    +0.000 A 
ATOM      3  C   UNL     1      45.664   5.834  10.669  0.00  0.00    +0.000 A 
ATOM      4  C   UNL     1      45.181   4.599  11.105  0.00  0.00    +0.000 A 
ATOM      5  C   UNL     1      45.474   4.163  12.397  0.00  0.00    +0.000 A 
ATOM      6  C   UNL     1      46.198   4.987  13.258  0.00  0.00    +0.000 A 
ATOM      7  F   UNL     1      46.449   4.553  14.501  0.00  0.00    +0.000 F 
ENDROOT
BRANCH   1   8
ATOM      8  C   UNL     1      47.429   7.132  13.782  0.00  0.00    +0.000 C 
BRANCH   8   9
ATOM      9  N   UNL     1      46.790   8.436  13.941  0.00  0.00    +0.000 NA
ATOM     10  H   UNL     1      46.922   8.972  13.085  0.00  0.00    +0.000 HD
ATOM     11  H   UNL     1      47.280   8.949  14.673  0.00  0.00    +0.000 HD
ENDBRANCH   8   9
ENDBRANCH   1   8
BRANCH   4  12
ATOM     12  O   UNL     1      44.423   3.744  10.348  0.00  0.00    +0.000 OA
BRANCH  12  13
ATOM     13  C   UNL     1      44.466   3.990   8.939  0.00  0.00    +0.000 C 
BRANCH  13  14
ATOM     14  C   UNL     1      45.449   3.083   8.253  0.00  0.00    +0.000 A 
ATOM     15  C   UNL     1      46.391   3.544   7.329  0.00  0.00    +0.000 A 
ATOM     16  C   UNL     1      47.327   2.661   6.800  0.00  0.00    +0.000 A 
ATOM     17  C   UNL     1      47.298   1.343   7.222  0.00  0.00    +0.000 A 
ATOM     18  N   UNL     1      46.411   0.861   8.118  0.00  0.00    +0.000 NA
ATOM     19  C   UNL     1      45.514   1.740   8.614  0.00  0.00    +0.000 A 
ENDBRANCH  13  14
ENDBRANCH  12  13
ENDBRANCH   4  12
TORSDOF 5
ENDMDL
MODEL 5
REMARK VINA RESULT:    -6.206      2.722      5.912
REMARK INTER + INTRA:          -8.322
REMARK INTER:                  -7.825
REMARK INTRA:                  -0.498
REMARK UNBOUND:                -0.484
REMARK  Name = 
REMARK  5 active torsions:
REMARK  status: ('A' for Active; 'I' for Inactive)
REMARK    1  A    between atoms: N_1  and  C_2
REMARK    2  A    between atoms: C_2  and  C_3
REMARK    3  A    between atoms: C_6  and  O_7
REMARK    4  A    between atoms: O_7  and  C_8
REMARK    5  A    between atoms: C_8  and  C_9
REMARK                            x       y       z     vdW  Elec       q    Type
REMARK                         _______ _______ _______ _____ _____    ______ ____
ROOT
ATOM      1  C   UNL     1      44.584   6.876  11.354  0.00  0.00    +0.000 A 
ATOM      2  C   UNL     1      43.409   6.125  11.228  0.00  0.00    +0.000 A 
ATOM      3  C   UNL     1      43.463   4.768  10.902  0.00  0.00    +0.000 A 
ATOM      4  C   UNL     1      44.695   4.138  10.717  0.00  0.00    +0.000 A 
ATOM      5  C   UNL     1      45.869   4.885  10.801  0.00  0.00    +0.000 A 
ATOM      6  C   UNL     1      45.806   6.240  11.121  0.00  0.00    +0.000 A 
ATOM      7  F   UNL     1      46.951   6.932  11.216  0.00  0.00    +0.000 F 
ENDROOT
BRANCH   1   8
ATOM      8  C   UNL     1      44.518   8.337  11.700  0.00  0.00    +0.000 C 
BRANCH   8   9
ATOM      9  N   UNL     1      43.880   9.111  10.637  0.00  0.00    +0.000 NA
ATOM     10  H   UNL     1      44.467   9.914  10.418  0.00  0.00    +0.000 HD
ATOM     11  H   UNL     1      43.005   9.492  10.996  0.00  0.00    +0.000 HD
ENDBRANCH   8   9
ENDBRANCH   1   8
BRANCH   4  12
ATOM     12  O   UNL     1      44.859   2.804  10.446  0.00  0.00    +0.000 OA
BRANCH  12  13
ATOM     13  C   UNL     1      44.414   2.396   9.149  0.00  0.00    +0.000 C 
BRANCH  13  14
ATOM     14  C   UNL     1      45.558   2.317   8.176  0.00  0.00    +0.000 A 
ATOM     15  C   UNL     1      45.967   3.402   7.396  0.00  0.00    +0.000 A 
ATOM     16  C   UNL     1      47.089   3.281   6.583  0.00  0.00    +0.000 A 
ATOM     17  C   UNL     1      47.776   2.078   6.584  0.00  0.00    +0.000 A 
ATOM     18  N   UNL     1      47.417   1.011   7.329  0.00  0.00    +0.000 NA
ATOM     19  C   UNL     1      46.324   1.157   8.108  0.00  0.00    +0.000 A 
ENDBRANCH  13  14
ENDBRANCH  12  13
ENDBRANCH   4  12
TORSDOF 5
ENDMDL
MODEL 6
REMARK VINA RESULT:    -5.451      5.125      8.588
REMARK INTER + INTRA:          -7.368
REMARK INTER:                  -6.981
REMARK INTRA:                  -0.387
REMARK UNBOUND:                -0.484
REMARK  Name = 
REMARK  5 active torsions:
REMARK  status: ('A' for Active; 'I' for Inactive)
REMARK    1  A    between atoms: N_1  and  C_2
REMARK    2  A    between atoms: C_2  and  C_3
REMARK    3  A    between atoms: C_6  and  O_7
REMARK    4  A    between atoms: O_7  and  C_8
REMARK    5  A    between atoms: C_8  and  C_9
REMARK                            x       y       z     vdW  Elec       q    Type
REMARK                         _______ _______ _______ _____ _____    ______ ____
ROOT
ATOM      1  C   UNL     1      48.459   4.561  18.430  0.00  0.00    +0.000 A 
ATOM      2  C   UNL     1      48.130   3.230  18.143  0.00  0.00    +0.000 A 
ATOM      3  C   UNL     1      47.702   2.862  16.866  0.00  0.00    +0.000 A 
ATOM      4  C   UNL     1      47.615   3.816  15.851  0.00  0.00    +0.000 A 
ATOM      5  C   UNL     1      47.901   5.151  16.136  0.00  0.00    +0.000 A 
ATOM      6  C   UNL     1      48.323   5.511  17.415  0.00  0.00    +0.000 A 
ATOM      7  F   UNL     1      48.611   6.798  17.658  0.00  0.00    +0.000 F 
ENDROOT
BRANCH   1   8
ATOM      8  C   UNL     1      48.914   4.951  19.808  0.00  0.00    +0.000 C 
BRANCH   8   9
ATOM      9  N   UNL     1      48.559   3.935  20.797  0.00  0.00    +0.000 NA
ATOM     10  H   UNL     1      49.413   3.580  21.224  0.00  0.00    +0.000 HD
ATOM     11  H   UNL     1      48.137   3.145  20.312  0.00  0.00    +0.000 HD
ENDBRANCH   8   9
ENDBRANCH   1   8
BRANCH   4  12
ATOM     12  O   UNL     1      47.256   3.550  14.555  0.00  0.00    +0.000 OA
BRANCH  12  13
ATOM     13  C   UNL     1      46.907   4.702  13.781  0.00  0.00    +0.000 C 
BRANCH  13  14
ATOM     14  C   UNL     1      45.601   4.505  13.061  0.00  0.00    +0.000 A 
ATOM     15  C   UNL     1      45.261   3.311  12.420  0.00  0.00    +0.000 A 
ATOM     16  C   UNL     1      44.000   3.171  11.850  0.00  0.00    +0.000 A 
ATOM     17  C   UNL     1      43.111   4.228  11.950  0.00  0.00    +0.000 A 
ATOM     18  N   UNL     1      43.399   5.393  12.570  0.00  0.00    +0.000 NA
ATOM     19  C   UNL     1      44.630   5.502  13.112  0.00  0.00    +0.000 A 
ENDBRANCH  13  14
ENDBRANCH  12  13
ENDBRANCH   4  12
TORSDOF 5
ENDMDL
MODEL 7
REMARK VINA RESULT:    -5.430      3.256      6.229
REMARK INTER + INTRA:          -7.342
REMARK INTER:                  -6.942
REMARK INTRA:                  -0.400
REMARK UNBOUND:                -0.484
REMARK  Name = 
REMARK  5 active torsions:
REMARK  status: ('A' for Active; 'I' for Inactive)
REMARK    1  A    between atoms: N_1  and  C_2
REMARK    2  A    between atoms: C_2  and  C_3
REMARK    3  A    between atoms: C_6  and  O_7
REMARK    4  A    between atoms: O_7  and  C_8
REMARK    5  A    between atoms: C_8  and  C_9
REMARK                            x       y       z     vdW  Elec       q    Type
REMARK                         _______ _______ _______ _____ _____    ______ ____
ROOT
ATOM      1  C   UNL     1      48.224   7.288  13.139  0.00  0.00    +0.000 A 
ATOM      2  C   UNL     1      47.596   7.518  11.908  0.00  0.00    +0.000 A 
ATOM      3  C   UNL     1      46.529   6.718  11.492  0.00  0.00    +0.000 A 
ATOM      4  C   UNL     1      46.062   5.688  12.310  0.00  0.00    +0.000 A 
ATOM      5  C   UNL     1      46.705   5.425  13.519  0.00  0.00    +0.000 A 
ATOM      6  C   UNL     1      47.773   6.225  13.925  0.00  0.00    +0.000 A 
ATOM      7  F   UNL     1      48.361   5.963  15.100  0.00  0.00    +0.000 F 
ENDROOT
BRANCH   1   8
ATOM      8  C   UNL     1      49.375   8.150  13.577  0.00  0.00    +0.000 C 
BRANCH   8   9
ATOM      9  N   UNL     1      50.659   7.517  13.287  0.00  0.00    +0.000 NA
ATOM     10  H   UNL     1      50.531   6.507  13.270  0.00  0.00    +0.000 HD
ATOM     11  H   UNL     1      51.296   7.707  14.060  0.00  0.00    +0.000 HD
ENDBRANCH   8   9
ENDBRANCH   1   8
BRANCH   4  12
ATOM     12  O   UNL     1      44.993   4.881  12.019  0.00  0.00    +0.000 OA
BRANCH  12  13
ATOM     13  C   UNL     1      44.434   5.072  10.716  0.00  0.00    +0.000 C 
BRANCH  13  14
ATOM     14  C   UNL     1      45.064   4.150   9.709  0.00  0.00    +0.000 A 
ATOM     15  C   UNL     1      44.958   2.759   9.781  0.00  0.00    +0.000 A 
ATOM     16  C   UNL     1      45.492   1.973   8.765  0.00  0.00    +0.000 A 
ATOM     17  C   UNL     1      46.108   2.607   7.699  0.00  0.00    +0.000 A 
ATOM     18  N   UNL     1      46.223   3.948   7.588  0.00  0.00    +0.000 NA
ATOM     19  C   UNL     1      45.696   4.685   8.589  0.00  0.00    +0.000 A 
ENDBRANCH  13  14
ENDBRANCH  12  13
ENDBRANCH   4  12
TORSDOF 5
ENDMDL
MODEL 8
REMARK VINA RESULT:    -5.205      5.004      6.378
REMARK INTER + INTRA:          -7.058
REMARK INTER:                  -6.622
REMARK INTRA:                  -0.436
REMARK UNBOUND:                -0.484
REMARK  Name = 
REMARK  5 active torsions:
REMARK  status: ('A' for Active; 'I' for Inactive)
REMARK    1  A    between atoms: N_1  and  C_2
REMARK    2  A    between atoms: C_2  and  C_3
REMARK    3  A    between atoms: C_6  and  O_7
REMARK    4  A    between atoms: O_7  and  C_8
REMARK    5  A    between atoms: C_8  and  C_9
REMARK                            x       y       z     vdW  Elec       q    Type
REMARK                         _______ _______ _______ _____ _____    ______ ____
ROOT
ATOM      1  C   UNL     1      44.158   5.715  12.183  0.00  0.00    +0.000 A 
ATOM      2  C   UNL     1      45.021   6.811  12.308  0.00  0.00    +0.000 A 
ATOM      3  C   UNL     1      46.269   6.669  12.918  0.00  0.00    +0.000 A 
ATOM      4  C   UNL     1      46.681   5.424  13.394  0.00  0.00    +0.000 A 
ATOM      5  C   UNL     1      45.814   4.334  13.311  0.00  0.00    +0.000 A 
ATOM      6  C   UNL     1      44.568   4.486  12.706  0.00  0.00    +0.000 A 
ATOM      7  F   UNL     1      43.761   3.419  12.621  0.00  0.00    +0.000 F 
ENDROOT
BRANCH   1   8
ATOM      8  C   UNL     1      42.814   5.876  11.530  0.00  0.00    +0.000 C 
BRANCH   8   9
ATOM      9  N   UNL     1      42.617   7.238  11.038  0.00  0.00    +0.000 NA
ATOM     10  H   UNL     1      41.994   7.210  10.233  0.00  0.00    +0.000 HD
ATOM     11  H   UNL     1      43.509   7.589  10.691  0.00  0.00    +0.000 HD
ENDBRANCH   8   9
ENDBRANCH   1   8
BRANCH   4  12
ATOM     12  O   UNL     1      47.903   5.167  13.961  0.00  0.00    +0.000 OA
BRANCH  12  13
ATOM     13  C   UNL     1      48.180   5.911  15.151  0.00  0.00    +0.000 C 
BRANCH  13  14
ATOM     14  C   UNL     1      48.139   5.031  16.370  0.00  0.00    +0.000 A 
ATOM     15  C   UNL     1      47.780   3.682  16.321  0.00  0.00    +0.000 A 
ATOM     16  C   UNL     1      47.850   2.908  17.474  0.00  0.00    +0.000 A 
ATOM     17  C   UNL     1      48.289   3.507  18.643  0.00  0.00    +0.000 A 
ATOM     18  N   UNL     1      48.653   4.805  18.729  0.00  0.00    +0.000 NA
ATOM     19  C   UNL     1      48.575   5.532  17.595  0.00  0.00    +0.000 A 
ENDBRANCH  13  14
ENDBRANCH  12  13
ENDBRANCH   4  12
TORSDOF 5
ENDMDL
MODEL 9
REMARK VINA RESULT:    -5.069      3.644      6.705
REMARK INTER + INTRA:          -6.886
REMARK INTER:                  -6.462
REMARK INTRA:                  -0.424
REMARK UNBOUND:                -0.484
REMARK  Name = 
REMARK  5 active torsions:
REMARK  status: ('A' for Active; 'I' for Inactive)
REMARK    1  A    between atoms: N_1  and  C_2
REMARK    2  A    between atoms: C_2  and  C_3
REMARK    3  A    between atoms: C_6  and  O_7
REMARK    4  A    between atoms: O_7  and  C_8
REMARK    5  A    between atoms: C_8  and  C_9
REMARK                            x       y       z     vdW  Elec       q    Type
REMARK                         _______ _______ _______ _____ _____    ______ ____
ROOT
ATOM      1  C   UNL     1      48.233   7.000  14.151  0.00  0.00    +0.000 A 
ATOM      2  C   UNL     1      47.556   5.791  13.949  0.00  0.00    +0.000 A 
ATOM      3  C   UNL     1      46.619   5.663  12.921  0.00  0.00    +0.000 A 
ATOM      4  C   UNL     1      46.360   6.737  12.068  0.00  0.00    +0.000 A 
ATOM      5  C   UNL     1      46.998   7.957  12.286  0.00  0.00    +0.000 A 
ATOM      6  C   UNL     1      47.928   8.079  13.317  0.00  0.00    +0.000 A 
ATOM      7  F   UNL     1      48.543   9.257  13.493  0.00  0.00    +0.000 F 
ENDROOT
BRANCH   1   8
ATOM      8  C   UNL     1      49.236   7.133  15.263  0.00  0.00    +0.000 C 
BRANCH   8   9
ATOM      9  N   UNL     1      49.400   5.875  15.990  0.00  0.00    +0.000 NA
ATOM     10  H   UNL     1      49.441   5.111  15.318  0.00  0.00    +0.000 HD
ATOM     11  H   UNL     1      48.564   5.714  16.549  0.00  0.00    +0.000 HD
ENDBRANCH   8   9
ENDBRANCH   1   8
BRANCH   4  12
ATOM     12  O   UNL     1      45.500   6.699  11.002  0.00  0.00    +0.000 OA
BRANCH  12  13
ATOM     13  C   UNL     1      44.404   5.791  11.146  0.00  0.00    +0.000 C 
BRANCH  13  14
ATOM     14  C   UNL     1      44.542   4.612  10.223  0.00  0.00    +0.000 A 
ATOM     15  C   UNL     1      45.319   4.645   9.062  0.00  0.00    +0.000 A 
ATOM     16  C   UNL     1      45.471   3.489   8.302  0.00  0.00    +0.000 A 
ATOM     17  C   UNL     1      44.849   2.330   8.736  0.00  0.00    +0.000 A 
ATOM     18  N   UNL     1      44.098   2.256   9.856  0.00  0.00    +0.000 NA
ATOM     19  C   UNL     1      43.967   3.393  10.572  0.00  0.00    +0.000 A 
ENDBRANCH  13  14
ENDBRANCH  12  13
ENDBRANCH   4  12
TORSDOF 5
ENDMDL
