MODEL 1
REMARK VINA RESULT:    -7.201      0.000      0.000
REMARK INTER + INTRA:         -11.115
REMARK INTER:                 -10.148
REMARK INTRA:                  -0.966
REMARK UNBOUND:                -0.966
REMARK  Name = 
REMARK  9 active torsions:
REMARK  status: ('A' for Active; 'I' for Inactive)
REMARK    1  A    between atoms: C_1  and  C_2
REMARK    2  A    between atoms: C_2  and  C_3
REMARK    3  A    between atoms: C_2  and  N_4
REMARK    4  A    between atoms: N_4  and  C_5
REMARK    5  A    between atoms: C_8  and  C_9
REMARK    6  A    between atoms: C_13  and  O_14
REMARK    7  A    between atoms: O_14  and  C_15
REMARK    8  A    between atoms: C_15  and  C_16
REMARK    9  A    between atoms: C_16  and  C_17
REMARK                            x       y       z     vdW  Elec       q    Type
REMARK                         _______ _______ _______ _____ _____    ______ ____
ROOT
ATOM      1  C   UNL     1      46.965   4.750  14.409  0.00  0.00    +0.000 A 
ATOM      2  N   UNL     1      47.888   5.716  14.618  0.00  0.00    +0.000 NA
ATOM      3  C   UNL     1      47.703   6.920  14.021  0.00  0.00    +0.000 A 
ATOM      4  C   UNL     1      46.626   7.230  13.210  0.00  0.00    +0.000 A 
ATOM      5  C   UNL     1      45.685   6.223  12.986  0.00  0.00    +0.000 A 
ATOM      6  C   UNL     1      45.837   4.969  13.585  0.00  0.00    +0.000 A 
ENDROOT
BRANCH   4   7
ATOM      7  C   UNL     1      46.402   8.553  12.585  0.00  0.00    +0.000 C 
ATOM      8  N   UNL     1      45.250   9.234  12.857  0.00  0.00    +0.000 N 
ATOM      9  O   UNL     1      47.226   9.038  11.818  0.00  0.00    +0.000 OA
ATOM     10  H   UNL     1      44.487   8.910  13.430  0.00  0.00    +0.000 HD
ATOM     11  H   UNL     1      45.130  10.118  12.375  0.00  0.00    +0.000 HD
ENDBRANCH   4   7
BRANCH   1  12
ATOM     12  N   UNL     1      47.172   3.469  14.968  0.00  0.00    +0.000 N 
ATOM     13  H   UNL     1      46.251   3.046  15.072  0.00  0.00    +0.000 HD
BRANCH  12  15
ATOM     14  C   UNL     1      46.973   3.494  17.392  0.00  0.00    +0.000 C 
ATOM     15  C   UNL     1      47.952   3.436  16.214  0.00  0.00    +0.000 C 
ATOM     16  C   UNL     1      48.796   2.166  16.326  0.00  0.00    +0.000 C 
ENDBRANCH  12  15
ENDBRANCH   1  12
BRANCH   6  17
ATOM     17  O   UNL     1      44.922   3.943  13.463  0.00  0.00    +0.000 OA
BRANCH  17  18
ATOM     18  C   UNL     1      43.746   4.229  12.690  0.00  0.00    +0.000 C 
BRANCH  18  19
ATOM     19  C   UNL     1      43.470   3.070  11.736  0.00  0.00    +0.000 C 
BRANCH  19  20
ATOM     20  C   UNL     1      44.245   3.214  10.451  0.00  0.00    +0.000 A 
ATOM     21  C   UNL     1      44.578   4.476   9.958  0.00  0.00    +0.000 A 
ATOM     22  C   UNL     1      45.305   4.571   8.771  0.00  0.00    +0.000 A 
ATOM     23  C   UNL     1      45.675   3.410   8.108  0.00  0.00    +0.000 A 
ATOM     24 CL   UNL     1      46.591   3.485   6.657  0.00  0.00    +0.000 Cl
ATOM     25  C   UNL     1      45.291   2.195   8.647  0.00  0.00    +0.000 A 
ATOM     26  N   UNL     1      44.580   2.072   9.803  0.00  0.00    +0.000 NA
ENDBRANCH  19  20
ENDBRANCH  18  19
ENDBRANCH  17  18
ENDBRANCH   6  17
TORSDOF 7
ENDMDL
MODEL 2
REMARK VINA RESULT:    -6.931      1.967      4.520
REMARK INTER + INTRA:         -10.734
REMARK INTER:                  -9.955
REMARK INTRA:                  -0.779
REMARK UNBOUND:                -0.966
REMARK  Name = 
REMARK  9 active torsions:
REMARK  status: ('A' for Active; 'I' for Inactive)
REMARK    1  A    between atoms: C_1  and  C_2
REMARK    2  A    between atoms: C_2  and  C_3
REMARK    3  A    between atoms: C_2  and  N_4
REMARK    4  A    between atoms: N_4  and  C_5
REMARK    5  A    between atoms: C_8  and  C_9
REMARK    6  A    between atoms: C_13  and  O_14
REMARK    7  A    between atoms: O_14  and  C_15
REMARK    8  A    between atoms: C_15  and  C_16
REMARK    9  A    between atoms: C_16  and  C_17
REMARK                            x       y       z     vdW  Elec       q    Type
REMARK                         _______ _______ _______ _____ _____    ______ ____
ROOT
ATOM      1  C   UNL     1      45.867   6.690  12.235  0.00  0.00    +0.000 A 
ATOM      2  N   UNL     1      47.108   6.805  12.759  0.00  0.00    +0.000 NA
ATOM      3  C   UNL     1      47.490   5.914  13.707  0.00  0.00    +0.000 A 
ATOM      4  C   UNL     1      46.691   4.887  14.177  0.00  0.00    +0.000 A 
ATOM      5  C   UNL     1      45.405   4.784  13.644  0.00  0.00    +0.000 A 
ATOM      6  C   UNL     1      44.973   5.680  12.662  0.00  0.00    +0.000 A 
ENDROOT
BRANCH   4   7
ATOM      7  C   UNL     1      47.116   3.892  15.187  0.00  0.00    +0.000 C 
ATOM      8  N   UNL     1      46.778   4.081  16.496  0.00  0.00    +0.000 N 
ATOM      9  O   UNL     1      47.778   2.910  14.868  0.00  0.00    +0.000 OA
ATOM     10  H   UNL     1      46.282   4.873  16.875  0.00  0.00    +0.000 HD
ATOM     11  H   UNL     1      47.124   3.390  17.152  0.00  0.00    +0.000 HD
ENDBRANCH   4   7
BRANCH   1  12
ATOM     12  N   UNL     1      45.426   7.647  11.294  0.00  0.00    +0.000 N 
ATOM     13  H   UNL     1      46.200   7.795  10.647  0.00  0.00    +0.000 HD
BRANCH  12  15
ATOM     14  C   UNL     1      46.069   9.913  11.903  0.00  0.00    +0.000 C 
ATOM     15  C   UNL     1      44.915   8.906  11.857  0.00  0.00    +0.000 C 
ATOM     16  C   UNL     1      43.777   9.487  11.016  0.00  0.00    +0.000 C 
ENDBRANCH  12  15
ENDBRANCH   1  12
BRANCH   6  17
ATOM     17  O   UNL     1      43.743   5.608  12.042  0.00  0.00    +0.000 OA
BRANCH  17  18
ATOM     18  C   UNL     1      43.533   4.482  11.176  0.00  0.00    +0.000 C 
BRANCH  18  19
ATOM     19  C   UNL     1      43.788   4.897   9.730  0.00  0.00    +0.000 C 
BRANCH  19  20
ATOM     20  C   UNL     1      44.721   3.938   9.034  0.00  0.00    +0.000 A 
ATOM     21  C   UNL     1      44.787   2.601   9.425  0.00  0.00    +0.000 A 
ATOM     22  C   UNL     1      45.653   1.738   8.752  0.00  0.00    +0.000 A 
ATOM     23  C   UNL     1      46.429   2.233   7.714  0.00  0.00    +0.000 A 
ATOM     24 CL   UNL     1      47.489   1.198   6.845  0.00  0.00    +0.000 Cl
ATOM     25  C   UNL     1      46.323   3.575   7.396  0.00  0.00    +0.000 A 
ATOM     26  N   UNL     1      45.488   4.440   8.036  0.00  0.00    +0.000 NA
ENDBRANCH  19  20
ENDBRANCH  18  19
ENDBRANCH  17  18
ENDBRANCH   6  17
TORSDOF 7
ENDMDL
MODEL 3
REMARK VINA RESULT:    -6.825      1.656      4.255
REMARK INTER + INTRA:         -10.584
REMARK INTER:                  -9.839
REMARK INTRA:                  -0.745
REMARK UNBOUND:                -0.966
REMARK  Name = 
REMARK  9 active torsions:
REMARK  status: ('A' for Active; 'I' for Inactive)
REMARK    1  A    between atoms: C_1  and  C_2
REMARK    2  A    between atoms: C_2  and  C_3
REMARK    3  A    between atoms: C_2  and  N_4
REMARK    4  A    between atoms: N_4  and  C_5
REMARK    5  A    between atoms: C_8  and  C_9
REMARK    6  A    between atoms: C_13  and  O_14
REMARK    7  A    between atoms: O_14  and  C_15
REMARK    8  A    between atoms: C_15  and  C_16
REMARK    9  A    between atoms: C_16  and  C_17
REMARK                            x       y       z     vdW  Elec       q    Type
REMARK                         _______ _______ _______ _____ _____    ______ ____
ROOT
ATOM      1  C   UNL     1      46.957   6.274  12.977  0.00  0.00    +0.000 A 
ATOM      2  N   UNL     1      47.757   6.589  14.022  0.00  0.00    +0.000 NA
ATOM      3  C   UNL     1      47.963   5.649  14.977  0.00  0.00    +0.000 A 
ATOM      4  C   UNL     1      47.409   4.382  14.955  0.00  0.00    +0.000 A 
ATOM      5  C   UNL     1      46.571   4.070  13.883  0.00  0.00    +0.000 A 
ATOM      6  C   UNL     1      46.335   5.009  12.875  0.00  0.00    +0.000 A 
ENDROOT
BRANCH   4   7
ATOM      7  C   UNL     1      47.659   3.341  15.978  0.00  0.00    +0.000 C 
ATOM      8  N   UNL     1      46.873   3.298  17.094  0.00  0.00    +0.000 N 
ATOM      9  O   UNL     1      48.567   2.529  15.846  0.00  0.00    +0.000 OA
ATOM     10  H   UNL     1      46.135   3.944  17.329  0.00  0.00    +0.000 HD
ATOM     11  H   UNL     1      47.110   2.590  17.780  0.00  0.00    +0.000 HD
ENDBRANCH   4   7
BRANCH   1  12
ATOM     12  N   UNL     1      46.677   7.261  12.005  0.00  0.00    +0.000 N 
ATOM     13  H   UNL     1      47.563   7.717  11.791  0.00  0.00    +0.000 HD
BRANCH  12  15
ATOM     14  C   UNL     1      46.238   9.623  12.384  0.00  0.00    +0.000 C 
ATOM     15  C   UNL     1      45.620   8.221  12.358  0.00  0.00    +0.000 C 
ATOM     16  C   UNL     1      44.469   8.200  11.351  0.00  0.00    +0.000 C 
ENDBRANCH  12  15
ENDBRANCH   1  12
BRANCH   6  17
ATOM     17  O   UNL     1      45.572   4.757  11.753  0.00  0.00    +0.000 OA
BRANCH  17  18
ATOM     18  C   UNL     1      44.714   3.606  11.813  0.00  0.00    +0.000 C 
BRANCH  18  19
ATOM     19  C   UNL     1      43.951   3.471  10.499  0.00  0.00    +0.000 C 
BRANCH  19  20
ATOM     20  C   UNL     1      44.876   3.158   9.351  0.00  0.00    +0.000 A 
ATOM     21  C   UNL     1      45.277   4.161   8.467  0.00  0.00    +0.000 A 
ATOM     22  C   UNL     1      46.143   3.839   7.422  0.00  0.00    +0.000 A 
ATOM     23  C   UNL     1      46.581   2.529   7.284  0.00  0.00    +0.000 A 
ATOM     24 CL   UNL     1      47.666   2.098   6.025  0.00  0.00    +0.000 Cl
ATOM     25  C   UNL     1      46.124   1.586   8.187  0.00  0.00    +0.000 A 
ATOM     26  N   UNL     1      45.278   1.871   9.216  0.00  0.00    +0.000 NA
ENDBRANCH  19  20
ENDBRANCH  18  19
ENDBRANCH  17  18
ENDBRANCH   6  17
TORSDOF 7
ENDMDL
MODEL 4
REMARK VINA RESULT:    -6.804      1.912      2.675
REMARK INTER + INTRA:         -10.555
REMARK INTER:                  -9.806
REMARK INTRA:                  -0.749
REMARK UNBOUND:                -0.966
REMARK  Name = 
REMARK  9 active torsions:
REMARK  status: ('A' for Active; 'I' for Inactive)
REMARK    1  A    between atoms: C_1  and  C_2
REMARK    2  A    between atoms: C_2  and  C_3
REMARK    3  A    between atoms: C_2  and  N_4
REMARK    4  A    between atoms: N_4  and  C_5
REMARK    5  A    between atoms: C_8  and  C_9
REMARK    6  A    between atoms: C_13  and  O_14
REMARK    7  A    between atoms: O_14  and  C_15
REMARK    8  A    between atoms: C_15  and  C_16
REMARK    9  A    between atoms: C_16  and  C_17
REMARK                            x       y       z     vdW  Elec       q    Type
REMARK                         _______ _______ _______ _____ _____    ______ ____
ROOT
ATOM      1  C   UNL     1      46.562   6.670  12.815  0.00  0.00    +0.000 A 
ATOM      2  N   UNL     1      46.669   7.890  13.390  0.00  0.00    +0.000 NA
ATOM      3  C   UNL     1      45.904   8.898  12.903  0.00  0.00    +0.000 A 
ATOM      4  C   UNL     1      45.014   8.762  11.852  0.00  0.00    +0.000 A 
ATOM      5  C   UNL     1      44.921   7.504  11.253  0.00  0.00    +0.000 A 
ATOM      6  C   UNL     1      45.690   6.437  11.727  0.00  0.00    +0.000 A 
ENDROOT
BRANCH   4   7
ATOM      7  C   UNL     1      44.152   9.850  11.340  0.00  0.00    +0.000 C 
ATOM      8  N   UNL     1      43.737   9.819  10.039  0.00  0.00    +0.000 N 
ATOM      9  O   UNL     1      43.818  10.785  12.059  0.00  0.00    +0.000 OA
ATOM     10  H   UNL     1      43.991   9.129   9.349  0.00  0.00    +0.000 HD
ATOM     11  H   UNL     1      43.179  10.606   9.729  0.00  0.00    +0.000 HD
ENDBRANCH   4   7
BRANCH   1  12
ATOM     12  N   UNL     1      47.398   5.623  13.264  0.00  0.00    +0.000 N 
ATOM     13  H   UNL     1      47.697   5.114  12.433  0.00  0.00    +0.000 HD
BRANCH  12  15
ATOM     14  C   UNL     1      46.876   3.300  13.765  0.00  0.00    +0.000 C 
ATOM     15  C   UNL     1      46.819   4.740  14.288  0.00  0.00    +0.000 C 
ATOM     16  C   UNL     1      47.583   4.822  15.611  0.00  0.00    +0.000 C 
ENDBRANCH  12  15
ENDBRANCH   1  12
BRANCH   6  17
ATOM     17  O   UNL     1      45.611   5.152  11.231  0.00  0.00    +0.000 OA
BRANCH  17  18
ATOM     18  C   UNL     1      44.318   4.530  11.283  0.00  0.00    +0.000 C 
BRANCH  18  19
ATOM     19  C   UNL     1      43.806   4.299   9.864  0.00  0.00    +0.000 C 
BRANCH  19  20
ATOM     20  C   UNL     1      44.844   3.623   9.004  0.00  0.00    +0.000 A 
ATOM     21  C   UNL     1      45.107   2.261   9.145  0.00  0.00    +0.000 A 
ATOM     22  C   UNL     1      46.066   1.665   8.325  0.00  0.00    +0.000 A 
ATOM     23  C   UNL     1      46.736   2.444   7.393  0.00  0.00    +0.000 A 
ATOM     24 CL   UNL     1      47.906   1.743   6.348  0.00  0.00    +0.000 Cl
ATOM     25  C   UNL     1      46.436   3.792   7.325  0.00  0.00    +0.000 A 
ATOM     26  N   UNL     1      45.506   4.400   8.113  0.00  0.00    +0.000 NA
ENDBRANCH  19  20
ENDBRANCH  18  19
ENDBRANCH  17  18
ENDBRANCH   6  17
TORSDOF 7
ENDMDL
MODEL 5
REMARK VINA RESULT:    -6.526      3.443      6.881
REMARK INTER + INTRA:         -10.164
REMARK INTER:                  -9.514
REMARK INTRA:                  -0.650
REMARK UNBOUND:                -0.966
REMARK  Name = 
REMARK  9 active torsions:
REMARK  status: ('A' for Active; 'I' for Inactive)
REMARK    1  A    between atoms: C_1  and  C_2
REMARK    2  A    between atoms: C_2  and  C_3
REMARK    3  A    between atoms: C_2  and  N_4
REMARK    4  A    between atoms: N_4  and  C_5
REMARK    5  A    between atoms: C_8  and  C_9
REMARK    6  A    between atoms: C_13  and  O_14
REMARK    7  A    between atoms: O_14  and  C_15
REMARK    8  A    between atoms: C_15  and  C_16
REMARK    9  A    between atoms: C_16  and  C_17
REMARK                            x       y       z     vdW  Elec       q    Type
REMARK                         _______ _______ _______ _____ _____    ______ ____
ROOT
ATOM      1  C   UNL     1      44.554   3.150   9.704  0.00  0.00    +0.000 A 
ATOM      2  N   UNL     1      44.766   1.862   9.350  0.00  0.00    +0.000 NA
ATOM      3  C   UNL     1      45.666   1.606   8.368  0.00  0.00    +0.000 A 
ATOM      4  C   UNL     1      46.389   2.580   7.702  0.00  0.00    +0.000 A 
ATOM      5  C   UNL     1      46.153   3.908   8.061  0.00  0.00    +0.000 A 
ATOM      6  C   UNL     1      45.235   4.215   9.070  0.00  0.00    +0.000 A 
ENDROOT
BRANCH   4   7
ATOM      7  C   UNL     1      47.397   2.303   6.654  0.00  0.00    +0.000 C 
ATOM      8  N   UNL     1      47.348   2.997   5.479  0.00  0.00    +0.000 N 
ATOM      9  O   UNL     1      48.264   1.453   6.819  0.00  0.00    +0.000 OA
ATOM     10  H   UNL     1      46.654   3.680   5.218  0.00  0.00    +0.000 HD
ATOM     11  H   UNL     1      48.039   2.744   4.781  0.00  0.00    +0.000 HD
ENDBRANCH   4   7
BRANCH   1  12
ATOM     12  N   UNL     1      43.573   3.443  10.678  0.00  0.00    +0.000 N 
ATOM     13  H   UNL     1      43.335   4.427  10.563  0.00  0.00    +0.000 HD
BRANCH  12  15
ATOM     14  C   UNL     1      45.460   3.125  12.180  0.00  0.00    +0.000 C 
ATOM     15  C   UNL     1      43.932   3.108  12.064  0.00  0.00    +0.000 C 
ATOM     16  C   UNL     1      43.342   4.105  13.063  0.00  0.00    +0.000 C 
ENDBRANCH  12  15
ENDBRANCH   1  12
BRANCH   6  17
ATOM     17  O   UNL     1      44.991   5.495   9.524  0.00  0.00    +0.000 OA
BRANCH  17  18
ATOM     18  C   UNL     1      46.019   6.088  10.334  0.00  0.00    +0.000 C 
BRANCH  18  19
ATOM     19  C   UNL     1      45.381   6.815  11.514  0.00  0.00    +0.000 C 
BRANCH  19  20
ATOM     20  C   UNL     1      46.400   7.158  12.570  0.00  0.00    +0.000 A 
ATOM     21  C   UNL     1      47.219   6.169  13.116  0.00  0.00    +0.000 A 
ATOM     22  C   UNL     1      48.159   6.523  14.084  0.00  0.00    +0.000 A 
ATOM     23  C   UNL     1      48.254   7.849  14.482  0.00  0.00    +0.000 A 
ATOM     24 CL   UNL     1      49.416   8.329  15.653  0.00  0.00    +0.000 Cl
ATOM     25  C   UNL     1      47.395   8.770  13.910  0.00  0.00    +0.000 A 
ATOM     26  N   UNL     1      46.467   8.453  12.965  0.00  0.00    +0.000 NA
ENDBRANCH  19  20
ENDBRANCH  18  19
ENDBRANCH  17  18
ENDBRANCH   6  17
TORSDOF 7
ENDMDL
MODEL 6
REMARK VINA RESULT:    -6.104      3.614      7.179
REMARK INTER + INTRA:          -9.568
REMARK INTER:                  -8.895
REMARK INTRA:                  -0.673
REMARK UNBOUND:                -0.966
REMARK  Name = 
REMARK  9 active torsions:
REMARK  status: ('A' for Active; 'I' for Inactive)
REMARK    1  A    between atoms: C_1  and  C_2
REMARK    2  A    between atoms: C_2  and  C_3
REMARK    3  A    between atoms: C_2  and  N_4
REMARK    4  A    between atoms: N_4  and  C_5
REMARK    5  A    between atoms: C_8  and  C_9
REMARK    6  A    between atoms: C_13  and  O_14
REMARK    7  A    between atoms: O_14  and  C_15
REMARK    8  A    between atoms: C_15  and  C_16
REMARK    9  A    between atoms: C_16  and  C_17
REMARK                            x       y       z     vdW  Elec       q    Type
REMARK                         _______ _______ _______ _____ _____    ______ ____
ROOT
ATOM      1  C   UNL     1      46.922   6.394  12.733  0.00  0.00    +0.000 A 
ATOM      2  N   UNL     1      46.090   6.632  11.693  0.00  0.00    +0.000 NA
ATOM      3  C   UNL     1      45.093   5.744  11.453  0.00  0.00    +0.000 A 
ATOM      4  C   UNL     1      44.867   4.605  12.205  0.00  0.00    +0.000 A 
ATOM      5  C   UNL     1      45.739   4.357  13.266  0.00  0.00    +0.000 A 
ATOM      6  C   UNL     1      46.778   5.249  13.549  0.00  0.00    +0.000 A 
ENDROOT
BRANCH   4   7
ATOM      7  C   UNL     1      43.759   3.652  11.968  0.00  0.00    +0.000 C 
ATOM      8  N   UNL     1      43.838   2.392  12.488  0.00  0.00    +0.000 N 
ATOM      9  O   UNL     1      42.782   3.971  11.300  0.00  0.00    +0.000 OA
ATOM     10  H   UNL     1      44.613   2.009  13.008  0.00  0.00    +0.000 HD
ATOM     11  H   UNL     1      43.071   1.768  12.266  0.00  0.00    +0.000 HD
ENDBRANCH   4   7
BRANCH   1  12
ATOM     12  N   UNL     1      48.006   7.270  12.960  0.00  0.00    +0.000 N 
ATOM     13  H   UNL     1      47.707   7.919  13.687  0.00  0.00    +0.000 HD
BRANCH  12  15
ATOM     14  C   UNL     1      48.323   9.467  11.963  0.00  0.00    +0.000 C 
ATOM     15  C   UNL     1      48.527   7.961  11.770  0.00  0.00    +0.000 C 
ATOM     16  C   UNL     1      50.016   7.681  11.554  0.00  0.00    +0.000 C 
ENDBRANCH  12  15
ENDBRANCH   1  12
BRANCH   6  17
ATOM     17  O   UNL     1      47.643   5.107  14.615  0.00  0.00    +0.000 OA
BRANCH  17  18
ATOM     18  C   UNL     1      47.223   4.218  15.661  0.00  0.00    +0.000 C 
BRANCH  18  19
ATOM     19  C   UNL     1      47.871   4.636  16.977  0.00  0.00    +0.000 C 
BRANCH  19  20
ATOM     20  C   UNL     1      49.182   3.925  17.200  0.00  0.00    +0.000 A 
ATOM     21  C   UNL     1      50.271   4.599  17.753  0.00  0.00    +0.000 A 
ATOM     22  C   UNL     1      51.466   3.907  17.956  0.00  0.00    +0.000 A 
ATOM     23  C   UNL     1      51.543   2.569  17.598  0.00  0.00    +0.000 A 
ATOM     24 CL   UNL     1      52.988   1.677  17.854  0.00  0.00    +0.000 Cl
ATOM     25  C   UNL     1      50.427   1.975  17.036  0.00  0.00    +0.000 A 
ATOM     26  N   UNL     1      49.249   2.625  16.826  0.00  0.00    +0.000 NA
ENDBRANCH  19  20
ENDBRANCH  18  19
ENDBRANCH  17  18
ENDBRANCH   6  17
TORSDOF 7
ENDMDL
MODEL 7
REMARK VINA RESULT:    -6.063      3.481      6.834
REMARK INTER + INTRA:          -9.511
REMARK INTER:                  -8.427
REMARK INTRA:                  -1.084
REMARK UNBOUND:                -0.966
REMARK  Name = 
REMARK  9 active torsions:
REMARK  status: ('A' for Active; 'I' for Inactive)
REMARK    1  A    between atoms: C_1  and  C_2
REMARK    2  A    between atoms: C_2  and  C_3
REMARK    3  A    between atoms: C_2  and  N_4
REMARK    4  A    between atoms: N_4  and  C_5
REMARK    5  A    between atoms: C_8  and  C_9
REMARK    6  A    between atoms: C_13  and  O_14
REMARK    7  A    between atoms: O_14  and  C_15
REMARK    8  A    between atoms: C_15  and  C_16
REMARK    9  A    between atoms: C_16  and  C_17
REMARK                            x       y       z     vdW  Elec       q    Type
REMARK                         _______ _______ _______ _____ _____    ______ ____
ROOT
ATOM      1  C   UNL     1      46.352   6.080  12.876  0.00  0.00    +0.000 A 
ATOM      2  N   UNL     1      46.178   6.607  11.642  0.00  0.00    +0.000 NA
ATOM      3  C   UNL     1      45.521   5.866  10.715  0.00  0.00    +0.000 A 
ATOM      4  C   UNL     1      45.013   4.600  10.947  0.00  0.00    +0.000 A 
ATOM      5  C   UNL     1      45.211   4.056  12.217  0.00  0.00    +0.000 A 
ATOM      6  C   UNL     1      45.879   4.788  13.203  0.00  0.00    +0.000 A 
ENDROOT
BRANCH   4   7
ATOM      7  C   UNL     1      44.266   3.802   9.949  0.00  0.00    +0.000 C 
ATOM      8  N   UNL     1      44.113   4.290   8.682  0.00  0.00    +0.000 N 
ATOM      9  O   UNL     1      43.771   2.721  10.245  0.00  0.00    +0.000 OA
ATOM     10  H   UNL     1      44.433   5.185   8.345  0.00  0.00    +0.000 HD
ATOM     11  H   UNL     1      43.563   3.722   8.048  0.00  0.00    +0.000 HD
ENDBRANCH   4   7
BRANCH   1  12
ATOM     12  N   UNL     1      47.090   6.807  13.836  0.00  0.00    +0.000 N 
ATOM     13  H   UNL     1      46.414   7.166  14.510  0.00  0.00    +0.000 HD
BRANCH  12  15
ATOM     14  C   UNL     1      47.997   9.014  14.311  0.00  0.00    +0.000 C 
ATOM     15  C   UNL     1      47.965   7.861  13.302  0.00  0.00    +0.000 C 
ATOM     16  C   UNL     1      49.391   7.357  13.073  0.00  0.00    +0.000 C 
ENDBRANCH  12  15
ENDBRANCH   1  12
BRANCH   6  17
ATOM     17  O   UNL     1      46.061   4.347  14.498  0.00  0.00    +0.000 OA
BRANCH  17  18
ATOM     18  C   UNL     1      47.273   3.622  14.758  0.00  0.00    +0.000 C 
BRANCH  18  19
ATOM     19  C   UNL     1      47.468   3.480  16.265  0.00  0.00    +0.000 C 
BRANCH  19  20
ATOM     20  C   UNL     1      47.964   4.762  16.884  0.00  0.00    +0.000 A 
ATOM     21  C   UNL     1      47.494   5.178  18.130  0.00  0.00    +0.000 A 
ATOM     22  C   UNL     1      47.983   6.365  18.678  0.00  0.00    +0.000 A 
ATOM     23  C   UNL     1      48.920   7.102  17.969  0.00  0.00    +0.000 A 
ATOM     24 CL   UNL     1      49.564   8.555  18.621  0.00  0.00    +0.000 Cl
ATOM     25  C   UNL     1      49.323   6.636  16.731  0.00  0.00    +0.000 A 
ATOM     26  N   UNL     1      48.862   5.483  16.170  0.00  0.00    +0.000 NA
ENDBRANCH  19  20
ENDBRANCH  18  19
ENDBRANCH  17  18
ENDBRANCH   6  17
TORSDOF 7
ENDMDL
MODEL 8
REMARK VINA RESULT:    -5.589      3.676      6.684
REMARK INTER + INTRA:          -8.843
REMARK INTER:                  -7.780
REMARK INTRA:                  -1.063
REMARK UNBOUND:                -0.966
REMARK  Name = 
REMARK  9 active torsions:
REMARK  status: ('A' for Active; 'I' for Inactive)
REMARK    1  A    between atoms: C_1  and  C_2
REMARK    2  A    between atoms: C_2  and  C_3
REMARK    3  A    between atoms: C_2  and  N_4
REMARK    4  A    between atoms: N_4  and  C_5
REMARK    5  A    between atoms: C_8  and  C_9
REMARK    6  A    between atoms: C_13  and  O_14
REMARK    7  A    between atoms: O_14  and  C_15
REMARK    8  A    between atoms: C_15  and  C_16
REMARK    9  A    between atoms: C_16  and  C_17
REMARK                            x       y       z     vdW  Elec       q    Type
REMARK                         _______ _______ _______ _____ _____    ______ ____
ROOT
ATOM      1  C   UNL     1      46.824   5.019  14.129  0.00  0.00    +0.000 A 
ATOM      2  N   UNL     1      46.037   3.948  13.876  0.00  0.00    +0.000 NA
ATOM      3  C   UNL     1      45.357   3.915  12.703  0.00  0.00    +0.000 A 
ATOM      4  C   UNL     1      45.416   4.907  11.741  0.00  0.00    +0.000 A 
ATOM      5  C   UNL     1      46.218   6.016  12.016  0.00  0.00    +0.000 A 
ATOM      6  C   UNL     1      46.938   6.088  13.212  0.00  0.00    +0.000 A 
ENDROOT
BRANCH   4   7
ATOM      7  C   UNL     1      44.703   4.859  10.444  0.00  0.00    +0.000 C 
ATOM      8  N   UNL     1      45.398   5.081   9.290  0.00  0.00    +0.000 N 
ATOM      9  O   UNL     1      43.499   4.638  10.392  0.00  0.00    +0.000 OA
ATOM     10  H   UNL     1      46.375   5.320   9.219  0.00  0.00    +0.000 HD
ATOM     11  H   UNL     1      44.857   5.073   8.433  0.00  0.00    +0.000 HD
ENDBRANCH   4   7
BRANCH   1  12
ATOM     12  N   UNL     1      47.489   5.104  15.373  0.00  0.00    +0.000 N 
ATOM     13  H   UNL     1      48.487   5.135  15.166  0.00  0.00    +0.000 HD
BRANCH  12  15
ATOM     14  C   UNL     1      48.226   2.971  16.282  0.00  0.00    +0.000 C 
ATOM     15  C   UNL     1      47.148   4.059  16.350  0.00  0.00    +0.000 C 
ATOM     16  C   UNL     1      47.083   4.610  17.776  0.00  0.00    +0.000 C 
ENDBRANCH  12  15
ENDBRANCH   1  12
BRANCH   6  17
ATOM     17  O   UNL     1      47.798   7.119  13.530  0.00  0.00    +0.000 OA
BRANCH  17  18
ATOM     18  C   UNL     1      49.049   7.143  12.826  0.00  0.00    +0.000 C 
BRANCH  18  19
ATOM     19  C   UNL     1      50.066   7.957  13.621  0.00  0.00    +0.000 C 
BRANCH  19  20
ATOM     20  C   UNL     1      49.903   7.750  15.105  0.00  0.00    +0.000 A 
ATOM     21  C   UNL     1      49.290   8.722  15.896  0.00  0.00    +0.000 A 
ATOM     22  C   UNL     1      49.146   8.492  17.265  0.00  0.00    +0.000 A 
ATOM     23  C   UNL     1      49.620   7.305  17.805  0.00  0.00    +0.000 A 
ATOM     24 CL   UNL     1      49.440   6.975  19.481  0.00  0.00    +0.000 Cl
ATOM     25  C   UNL     1      50.234   6.398  16.961  0.00  0.00    +0.000 A 
ATOM     26  N   UNL     1      50.390   6.596  15.623  0.00  0.00    +0.000 NA
ENDBRANCH  19  20
ENDBRANCH  18  19
ENDBRANCH  17  18
ENDBRANCH   6  17
TORSDOF 7
ENDMDL
MODEL 9
REMARK VINA RESULT:    -5.311      3.546      6.776
REMARK INTER + INTRA:          -8.451
REMARK INTER:                  -7.752
REMARK INTRA:                  -0.699
REMARK UNBOUND:                -0.966
REMARK  Name = 
REMARK  9 active torsions:
REMARK  status: ('A' for Active; 'I' for Inactive)
REMARK    1  A    between atoms: C_1  and  C_2
REMARK    2  A    between atoms: C_2  and  C_3
REMARK    3  A    between atoms: C_2  and  N_4
REMARK    4  A    between atoms: N_4  and  C_5
REMARK    5  A    between atoms: C_8  and  C_9
REMARK    6  A    between atoms: C_13  and  O_14
REMARK    7  A    between atoms: O_14  and  C_15
REMARK    8  A    between atoms: C_15  and  C_16
REMARK    9  A    between atoms: C_16  and  C_17
REMARK                            x       y       z     vdW  Elec       q    Type
REMARK                         _______ _______ _______ _____ _____    ______ ____
ROOT
ATOM      1  C   UNL     1      46.076   5.102  12.382  0.00  0.00    +0.000 A 
ATOM      2  N   UNL     1      46.347   6.020  11.426  0.00  0.00    +0.000 NA
ATOM      3  C   UNL     1      47.179   7.044  11.737  0.00  0.00    +0.000 A 
ATOM      4  C   UNL     1      47.775   7.215  12.974  0.00  0.00    +0.000 A 
ATOM      5  C   UNL     1      47.477   6.273  13.961  0.00  0.00    +0.000 A 
ATOM      6  C   UNL     1      46.627   5.200  13.680  0.00  0.00    +0.000 A 
ENDROOT
BRANCH   4   7
ATOM      7  C   UNL     1      48.711   8.312  13.308  0.00  0.00    +0.000 C 
ATOM      8  N   UNL     1      48.945   9.294  12.389  0.00  0.00    +0.000 N 
ATOM      9  O   UNL     1      49.288   8.344  14.389  0.00  0.00    +0.000 OA
ATOM     10  H   UNL     1      48.565   9.340  11.456  0.00  0.00    +0.000 HD
ATOM     11  H   UNL     1      49.621  10.001  12.653  0.00  0.00    +0.000 HD
ENDBRANCH   4   7
BRANCH   1  12
ATOM     12  N   UNL     1      45.160   4.064  12.098  0.00  0.00    +0.000 N 
ATOM     13  H   UNL     1      45.711   3.214  11.988  0.00  0.00    +0.000 HD
BRANCH  12  15
ATOM     14  C   UNL     1      44.077   2.979  10.209  0.00  0.00    +0.000 C 
ATOM     15  C   UNL     1      44.259   4.303  10.960  0.00  0.00    +0.000 C 
ATOM     16  C   UNL     1      42.891   4.814  11.413  0.00  0.00    +0.000 C 
ENDBRANCH  12  15
ENDBRANCH   1  12
BRANCH   6  17
ATOM     17  O   UNL     1      46.332   4.196  14.580  0.00  0.00    +0.000 OA
BRANCH  17  18
ATOM     18  C   UNL     1      47.439   3.393  15.020  0.00  0.00    +0.000 C 
BRANCH  18  19
ATOM     19  C   UNL     1      47.597   3.528  16.531  0.00  0.00    +0.000 C 
BRANCH  19  20
ATOM     20  C   UNL     1      49.009   3.236  16.970  0.00  0.00    +0.000 A 
ATOM     21  C   UNL     1      49.736   4.176  17.700  0.00  0.00    +0.000 A 
ATOM     22  C   UNL     1      51.038   3.868  18.099  0.00  0.00    +0.000 A 
ATOM     23  C   UNL     1      51.577   2.637  17.755  0.00  0.00    +0.000 A 
ATOM     24 CL   UNL     1      53.167   2.211  18.248  0.00  0.00    +0.000 Cl
ATOM     25  C   UNL     1      50.803   1.764  17.012  0.00  0.00    +0.000 A 
ATOM     26  N   UNL     1      49.531   2.038  16.608  0.00  0.00    +0.000 NA
ENDBRANCH  19  20
ENDBRANCH  18  19
ENDBRANCH  17  18
ENDBRANCH   6  17
TORSDOF 7
ENDMDL
