MODEL 1
REMARK VINA RESULT:    -7.649      0.000      0.000
REMARK INTER + INTRA:         -10.234
REMARK INTER:                  -9.661
REMARK INTRA:                  -0.573
REMARK UNBOUND:                -0.573
REMARK  Name = 
REMARK  5 active torsions:
REMARK  status: ('A' for Active; 'I' for Inactive)
REMARK    1  A    between atoms: N_1  and  C_2
REMARK    2  A    between atoms: C_2  and  C_3
REMARK    3  A    between atoms: C_3  and  C_4
REMARK    4  A    between atoms: C_7  and  C_8
REMARK    5  A    between atoms: C_8  and  N_9
REMARK                            x       y       z     vdW  Elec       q    Type
REMARK                         _______ _______ _______ _____ _____    ______ ____
ROOT
ATOM      1  C   UNL     1      45.889   2.546   8.196  0.00  0.00    +0.000 A 
ATOM      2  C   UNL     1      45.022   1.967   9.128  0.00  0.00    +0.000 A 
ATOM      3  C   UNL     1      44.248   2.767   9.977  0.00  0.00    +0.000 A 
ATOM      4  C   UNL     1      44.336   4.166   9.926  0.00  0.00    +0.000 A 
ATOM      5  C   UNL     1      45.215   4.746   9.007  0.00  0.00    +0.000 A 
ATOM      6  C   UNL     1      45.981   3.946   8.155  0.00  0.00    +0.000 A 
ENDROOT
BRANCH   1   7
ATOM      7  C   UNL     1      46.796   1.739   7.287  0.00  0.00    +0.000 C 
BRANCH   7   8
ATOM      8  C   UNL     1      48.033   2.458   6.733  0.00  0.00    +0.000 C 
BRANCH   8   9
ATOM      9  N   UNL     1      48.430   1.883   5.446  0.00  0.00    +0.000 NA
ATOM     10  H   UNL     1      49.368   2.205   5.206  0.00  0.00    +0.000 HD
ATOM     11  H   UNL     1      47.812   2.226   4.708  0.00  0.00    +0.000 HD
ENDBRANCH   8   9
ENDBRANCH   7   8
ENDBRANCH   1   7
BRANCH   4  12
ATOM     12  C   UNL     1      43.464   5.027  10.800  0.00  0.00    +0.000 C 
BRANCH  12  13
ATOM     13  N   UNL     1      44.173   6.000  11.623  0.00  0.00    +0.000 N 
ATOM     14  C   UNL     1      44.288   7.339  11.358  0.00  0.00    +0.000 A 
ATOM     15  N   UNL     1      45.334   7.868  11.953  0.00  0.00    +0.000 NA
ATOM     16  C   UNL     1      45.903   6.839  12.661  0.00  0.00    +0.000 A 
ATOM     17  C   UNL     1      47.091   6.817  13.407  0.00  0.00    +0.000 A 
ATOM     18  C   UNL     1      47.466   5.630  14.046  0.00  0.00    +0.000 A 
ATOM     19  C   UNL     1      46.654   4.497  13.979  0.00  0.00    +0.000 A 
ATOM     20  C   UNL     1      45.471   4.496  13.230  0.00  0.00    +0.000 A 
ATOM     21  C   UNL     1      45.143   5.677  12.550  0.00  0.00    +0.000 A 
ENDBRANCH  12  13
ENDBRANCH   4  12
TORSDOF 5
ENDMDL
MODEL 2
REMARK VINA RESULT:    -6.671      2.196      6.262
REMARK INTER + INTRA:          -8.999
REMARK INTER:                  -8.776
REMARK INTRA:                  -0.223
REMARK UNBOUND:                -0.573
REMARK  Name = 
REMARK  5 active torsions:
REMARK  status: ('A' for Active; 'I' for Inactive)
REMARK    1  A    between atoms: N_1  and  C_2
REMARK    2  A    between atoms: C_2  and  C_3
REMARK    3  A    between atoms: C_3  and  C_4
REMARK    4  A    between atoms: C_7  and  C_8
REMARK    5  A    between atoms: C_8  and  N_9
REMARK                            x       y       z     vdW  Elec       q    Type
REMARK                         _______ _______ _______ _____ _____    ______ ____
ROOT
ATOM      1  C   UNL     1      46.470   5.084  13.228  0.00  0.00    +0.000 A 
ATOM      2  C   UNL     1      45.587   4.004  13.125  0.00  0.00    +0.000 A 
ATOM      3  C   UNL     1      44.857   3.787  11.951  0.00  0.00    +0.000 A 
ATOM      4  C   UNL     1      44.979   4.656  10.856  0.00  0.00    +0.000 A 
ATOM      5  C   UNL     1      45.847   5.745  10.963  0.00  0.00    +0.000 A 
ATOM      6  C   UNL     1      46.581   5.956  12.134  0.00  0.00    +0.000 A 
ENDROOT
BRANCH   1   7
ATOM      7  C   UNL     1      47.248   5.408  14.488  0.00  0.00    +0.000 C 
BRANCH   7   8
ATOM      8  C   UNL     1      47.179   4.378  15.624  0.00  0.00    +0.000 C 
BRANCH   8   9
ATOM      9  N   UNL     1      47.900   3.158  15.257  0.00  0.00    +0.000 NA
ATOM     10  H   UNL     1      48.827   3.171  15.683  0.00  0.00    +0.000 HD
ATOM     11  H   UNL     1      48.051   3.135  14.247  0.00  0.00    +0.000 HD
ENDBRANCH   8   9
ENDBRANCH   7   8
ENDBRANCH   1   7
BRANCH   4  12
ATOM     12  C   UNL     1      44.235   4.392   9.575  0.00  0.00    +0.000 C 
BRANCH  12  13
ATOM     13  N   UNL     1      44.613   3.169   8.875  0.00  0.00    +0.000 N 
ATOM     14  C   UNL     1      44.277   1.895   9.252  0.00  0.00    +0.000 A 
ATOM     15  N   UNL     1      45.111   1.004   8.764  0.00  0.00    +0.000 NA
ATOM     16  C   UNL     1      46.005   1.723   8.012  0.00  0.00    +0.000 A 
ATOM     17  C   UNL     1      47.158   1.291   7.340  0.00  0.00    +0.000 A 
ATOM     18  C   UNL     1      47.920   2.228   6.632  0.00  0.00    +0.000 A 
ATOM     19  C   UNL     1      47.520   3.563   6.561  0.00  0.00    +0.000 A 
ATOM     20  C   UNL     1      46.380   4.016   7.235  0.00  0.00    +0.000 A 
ATOM     21  C   UNL     1      45.664   3.073   7.985  0.00  0.00    +0.000 A 
ENDBRANCH  12  13
ENDBRANCH   4  12
TORSDOF 5
ENDMDL
MODEL 3
REMARK VINA RESULT:    -6.621      1.490      2.464
REMARK INTER + INTRA:          -8.936
REMARK INTER:                  -8.453
REMARK INTRA:                  -0.483
REMARK UNBOUND:                -0.573
REMARK  Name = 
REMARK  5 active torsions:
REMARK  status: ('A' for Active; 'I' for Inactive)
REMARK    1  A    between atoms: N_1  and  C_2
REMARK    2  A    between atoms: C_2  and  C_3
REMARK    3  A    between atoms: C_3  and  C_4
REMARK    4  A    between atoms: C_7  and  C_8
REMARK    5  A    between atoms: C_8  and  N_9
REMARK                            x       y       z     vdW  Elec       q    Type
REMARK                         _______ _______ _______ _____ _____    ______ ____
ROOT
ATOM      1  C   UNL     1      45.870   3.097   7.686  0.00  0.00    +0.000 A 
ATOM      2  C   UNL     1      46.028   4.467   7.923  0.00  0.00    +0.000 A 
ATOM      3  C   UNL     1      45.662   5.026   9.153  0.00  0.00    +0.000 A 
ATOM      4  C   UNL     1      45.112   4.231  10.170  0.00  0.00    +0.000 A 
ATOM      5  C   UNL     1      44.936   2.867   9.929  0.00  0.00    +0.000 A 
ATOM      6  C   UNL     1      45.310   2.308   8.703  0.00  0.00    +0.000 A 
ENDROOT
BRANCH   1   7
ATOM      7  C   UNL     1      46.193   2.438   6.360  0.00  0.00    +0.000 C 
BRANCH   7   8
ATOM      8  C   UNL     1      47.543   2.796   5.723  0.00  0.00    +0.000 C 
BRANCH   8   9
ATOM      9  N   UNL     1      48.472   1.669   5.816  0.00  0.00    +0.000 NA
ATOM     10  H   UNL     1      48.378   1.084   4.985  0.00  0.00    +0.000 HD
ATOM     11  H   UNL     1      48.221   1.077   6.610  0.00  0.00    +0.000 HD
ENDBRANCH   8   9
ENDBRANCH   7   8
ENDBRANCH   1   7
BRANCH   4  12
ATOM     12  C   UNL     1      44.769   4.823  11.511  0.00  0.00    +0.000 C 
BRANCH  12  13
ATOM     13  N   UNL     1      45.836   4.775  12.504  0.00  0.00    +0.000 N 
ATOM     14  C   UNL     1      45.832   4.019  13.646  0.00  0.00    +0.000 A 
ATOM     15  N   UNL     1      46.639   4.509  14.561  0.00  0.00    +0.000 NA
ATOM     16  C   UNL     1      47.217   5.609  13.978  0.00  0.00    +0.000 A 
ATOM     17  C   UNL     1      48.090   6.558  14.530  0.00  0.00    +0.000 A 
ATOM     18  C   UNL     1      48.548   7.606  13.723  0.00  0.00    +0.000 A 
ATOM     19  C   UNL     1      48.176   7.685  12.380  0.00  0.00    +0.000 A 
ATOM     20  C   UNL     1      47.297   6.755  11.814  0.00  0.00    +0.000 A 
ATOM     21  C   UNL     1      46.804   5.747  12.655  0.00  0.00    +0.000 A 
ENDBRANCH  12  13
ENDBRANCH   4  12
TORSDOF 5
ENDMDL
MODEL 4
REMARK VINA RESULT:    -6.301      2.216      6.064
REMARK INTER + INTRA:          -8.531
REMARK INTER:                  -8.023
REMARK INTRA:                  -0.508
REMARK UNBOUND:                -0.573
REMARK  Name = 
REMARK  5 active torsions:
REMARK  status: ('A' for Active; 'I' for Inactive)
REMARK    1  A    between atoms: N_1  and  C_2
REMARK    2  A    between atoms: C_2  and  C_3
REMARK    3  A    between atoms: C_3  and  C_4
REMARK    4  A    between atoms: C_7  and  C_8
REMARK    5  A    between atoms: C_8  and  N_9
REMARK                            x       y       z     vdW  Elec       q    Type
REMARK                         _______ _______ _______ _____ _____    ______ ____
ROOT
ATOM      1  C   UNL     1      48.015   6.860  12.764  0.00  0.00    +0.000 A 
ATOM      2  C   UNL     1      47.306   7.685  11.883  0.00  0.00    +0.000 A 
ATOM      3  C   UNL     1      45.993   7.373  11.513  0.00  0.00    +0.000 A 
ATOM      4  C   UNL     1      45.363   6.217  11.999  0.00  0.00    +0.000 A 
ATOM      5  C   UNL     1      46.075   5.383  12.864  0.00  0.00    +0.000 A 
ATOM      6  C   UNL     1      47.384   5.701  13.240  0.00  0.00    +0.000 A 
ENDROOT
BRANCH   1   7
ATOM      7  C   UNL     1      49.456   7.110  13.162  0.00  0.00    +0.000 C 
BRANCH   7   8
ATOM      8  C   UNL     1      49.718   7.427  14.641  0.00  0.00    +0.000 C 
BRANCH   8   9
ATOM      9  N   UNL     1      51.147   7.338  14.942  0.00  0.00    +0.000 NA
ATOM     10  H   UNL     1      51.624   8.158  14.566  0.00  0.00    +0.000 HD
ATOM     11  H   UNL     1      51.553   6.530  14.465  0.00  0.00    +0.000 HD
ENDBRANCH   8   9
ENDBRANCH   7   8
ENDBRANCH   1   7
BRANCH   4  12
ATOM     12  C   UNL     1      43.933   5.910  11.643  0.00  0.00    +0.000 C 
BRANCH  12  13
ATOM     13  N   UNL     1      43.712   4.613  11.014  0.00  0.00    +0.000 N 
ATOM     14  C   UNL     1      43.111   3.531  11.602  0.00  0.00    +0.000 A 
ATOM     15  N   UNL     1      43.465   2.403  11.029  0.00  0.00    +0.000 NA
ATOM     16  C   UNL     1      44.303   2.767  10.005  0.00  0.00    +0.000 A 
ATOM     17  C   UNL     1      45.041   1.963   9.125  0.00  0.00    +0.000 A 
ATOM     18  C   UNL     1      45.837   2.578   8.152  0.00  0.00    +0.000 A 
ATOM     19  C   UNL     1      45.867   3.968   8.031  0.00  0.00    +0.000 A 
ATOM     20  C   UNL     1      45.148   4.789   8.908  0.00  0.00    +0.000 A 
ATOM     21  C   UNL     1      44.403   4.154   9.911  0.00  0.00    +0.000 A 
ENDBRANCH  12  13
ENDBRANCH   4  12
TORSDOF 5
ENDMDL
MODEL 5
REMARK VINA RESULT:    -5.314      2.841      4.458
REMARK INTER + INTRA:          -7.285
REMARK INTER:                  -6.799
REMARK INTRA:                  -0.486
REMARK UNBOUND:                -0.573
REMARK  Name = 
REMARK  5 active torsions:
REMARK  status: ('A' for Active; 'I' for Inactive)
REMARK    1  A    between atoms: N_1  and  C_2
REMARK    2  A    between atoms: C_2  and  C_3
REMARK    3  A    between atoms: C_3  and  C_4
REMARK    4  A    between atoms: C_7  and  C_8
REMARK    5  A    between atoms: C_8  and  N_9
REMARK                            x       y       z     vdW  Elec       q    Type
REMARK                         _______ _______ _______ _____ _____    ______ ____
ROOT
ATOM      1  C   UNL     1      44.980   3.901  10.801  0.00  0.00    +0.000 A 
ATOM      2  C   UNL     1      45.267   5.157  10.254  0.00  0.00    +0.000 A 
ATOM      3  C   UNL     1      45.758   6.191  11.058  0.00  0.00    +0.000 A 
ATOM      4  C   UNL     1      45.958   6.000  12.434  0.00  0.00    +0.000 A 
ATOM      5  C   UNL     1      45.656   4.753  12.985  0.00  0.00    +0.000 A 
ATOM      6  C   UNL     1      45.173   3.718  12.178  0.00  0.00    +0.000 A 
ENDROOT
BRANCH   1   7
ATOM      7  C   UNL     1      44.394   2.757   9.997  0.00  0.00    +0.000 C 
BRANCH   7   8
ATOM      8  C   UNL     1      45.069   2.440   8.655  0.00  0.00    +0.000 C 
BRANCH   8   9
ATOM      9  N   UNL     1      45.635   1.090   8.669  0.00  0.00    +0.000 NA
ATOM     10  H   UNL     1      44.951   0.440   9.058  0.00  0.00    +0.000 HD
ATOM     11  H   UNL     1      46.444   1.059   9.293  0.00  0.00    +0.000 HD
ENDBRANCH   8   9
ENDBRANCH   7   8
ENDBRANCH   1   7
BRANCH   4  12
ATOM     12  C   UNL     1      46.538   7.095  13.289  0.00  0.00    +0.000 C 
BRANCH  12  13
ATOM     13  N   UNL     1      47.949   6.943  13.625  0.00  0.00    +0.000 N 
ATOM     14  C   UNL     1      48.443   6.515  14.828  0.00  0.00    +0.000 A 
ATOM     15  N   UNL     1      49.677   6.921  15.023  0.00  0.00    +0.000 NA
ATOM     16  C   UNL     1      50.012   7.613  13.887  0.00  0.00    +0.000 A 
ATOM     17  C   UNL     1      51.177   8.337  13.591  0.00  0.00    +0.000 A 
ATOM     18  C   UNL     1      51.283   8.967  12.346  0.00  0.00    +0.000 A 
ATOM     19  C   UNL     1      50.268   8.846  11.397  0.00  0.00    +0.000 A 
ATOM     20  C   UNL     1      49.093   8.140  11.678  0.00  0.00    +0.000 A 
ATOM     21  C   UNL     1      48.981   7.564  12.951  0.00  0.00    +0.000 A 
ENDBRANCH  12  13
ENDBRANCH   4  12
TORSDOF 5
ENDMDL
MODEL 6
REMARK VINA RESULT:    -5.216      2.454      6.724
REMARK INTER + INTRA:          -7.161
REMARK INTER:                  -7.193
REMARK INTRA:                   0.031
REMARK UNBOUND:                -0.573
REMARK  Name = 
REMARK  5 active torsions:
REMARK  status: ('A' for Active; 'I' for Inactive)
REMARK    1  A    between atoms: N_1  and  C_2
REMARK    2  A    between atoms: C_2  and  C_3
REMARK    3  A    between atoms: C_3  and  C_4
REMARK    4  A    between atoms: C_7  and  C_8
REMARK    5  A    between atoms: C_8  and  N_9
REMARK                            x       y       z     vdW  Elec       q    Type
REMARK                         _______ _______ _______ _____ _____    ______ ____
ROOT
ATOM      1  C   UNL     1      47.486   4.761  15.244  0.00  0.00    +0.000 A 
ATOM      2  C   UNL     1      47.888   6.051  14.880  0.00  0.00    +0.000 A 
ATOM      3  C   UNL     1      47.515   6.594  13.646  0.00  0.00    +0.000 A 
ATOM      4  C   UNL     1      46.746   5.852  12.736  0.00  0.00    +0.000 A 
ATOM      5  C   UNL     1      46.358   4.558  13.090  0.00  0.00    +0.000 A 
ATOM      6  C   UNL     1      46.724   4.020  14.327  0.00  0.00    +0.000 A 
ENDROOT
BRANCH   1   7
ATOM      7  C   UNL     1      47.901   4.093  16.540  0.00  0.00    +0.000 C 
BRANCH   7   8
ATOM      8  C   UNL     1      47.381   4.726  17.839  0.00  0.00    +0.000 C 
BRANCH   8   9
ATOM      9  N   UNL     1      47.987   4.081  19.005  0.00  0.00    +0.000 NA
ATOM     10  H   UNL     1      47.456   4.325  19.841  0.00  0.00    +0.000 HD
ATOM     11  H   UNL     1      48.931   4.444  19.150  0.00  0.00    +0.000 HD
ENDBRANCH   8   9
ENDBRANCH   7   8
ENDBRANCH   1   7
BRANCH   4  12
ATOM     12  C   UNL     1      46.299   6.456  11.431  0.00  0.00    +0.000 C 
BRANCH  12  13
ATOM     13  N   UNL     1      45.239   5.731  10.739  0.00  0.00    +0.000 N 
ATOM     14  C   UNL     1      44.044   5.345  11.287  0.00  0.00    +0.000 A 
ATOM     15  N   UNL     1      43.513   4.333  10.639  0.00  0.00    +0.000 NA
ATOM     16  C   UNL     1      44.379   4.072   9.607  0.00  0.00    +0.000 A 
ATOM     17  C   UNL     1      44.352   3.041   8.656  0.00  0.00    +0.000 A 
ATOM     18  C   UNL     1      45.364   2.984   7.691  0.00  0.00    +0.000 A 
ATOM     19  C   UNL     1      46.362   3.958   7.647  0.00  0.00    +0.000 A 
ATOM     20  C   UNL     1      46.414   4.987   8.595  0.00  0.00    +0.000 A 
ATOM     21  C   UNL     1      45.424   4.993   9.587  0.00  0.00    +0.000 A 
ENDBRANCH  12  13
ENDBRANCH   4  12
TORSDOF 5
ENDMDL
MODEL 7
REMARK VINA RESULT:    -5.125      4.080      6.181
REMARK INTER + INTRA:          -7.046
REMARK INTER:                  -6.713
REMARK INTRA:                  -0.333
REMARK UNBOUND:                -0.573
REMARK  Name = 
REMARK  5 active torsions:
REMARK  status: ('A' for Active; 'I' for Inactive)
REMARK    1  A    between atoms: N_1  and  C_2
REMARK    2  A    between atoms: C_2  and  C_3
REMARK    3  A    between atoms: C_3  and  C_4
REMARK    4  A    between atoms: C_7  and  C_8
REMARK    5  A    between atoms: C_8  and  N_9
REMARK                            x       y       z     vdW  Elec       q    Type
REMARK                         _______ _______ _______ _____ _____    ______ ____
ROOT
ATOM      1  C   UNL     1      45.078   6.327  12.164  0.00  0.00    +0.000 A 
ATOM      2  C   UNL     1      45.828   5.173  12.414  0.00  0.00    +0.000 A 
ATOM      3  C   UNL     1      47.018   5.240  13.149  0.00  0.00    +0.000 A 
ATOM      4  C   UNL     1      47.496   6.466  13.635  0.00  0.00    +0.000 A 
ATOM      5  C   UNL     1      46.757   7.622  13.370  0.00  0.00    +0.000 A 
ATOM      6  C   UNL     1      45.565   7.552  12.644  0.00  0.00    +0.000 A 
ENDROOT
BRANCH   1   7
ATOM      7  C   UNL     1      43.812   6.332  11.330  0.00  0.00    +0.000 C 
BRANCH   7   8
ATOM      8  C   UNL     1      42.669   5.425  11.805  0.00  0.00    +0.000 C 
BRANCH   8   9
ATOM      9  N   UNL     1      42.575   5.438  13.266  0.00  0.00    +0.000 NA
ATOM     10  H   UNL     1      43.171   6.178  13.637  0.00  0.00    +0.000 HD
ATOM     11  H   UNL     1      42.940   4.561  13.645  0.00  0.00    +0.000 HD
ENDBRANCH   8   9
ENDBRANCH   7   8
ENDBRANCH   1   7
BRANCH   4  12
ATOM     12  C   UNL     1      48.746   6.531  14.470  0.00  0.00    +0.000 C 
BRANCH  12  13
ATOM     13  N   UNL     1      48.538   6.452  15.911  0.00  0.00    +0.000 N 
ATOM     14  C   UNL     1      48.926   7.392  16.829  0.00  0.00    +0.000 A 
ATOM     15  N   UNL     1      49.059   6.878  18.031  0.00  0.00    +0.000 NA
ATOM     16  C   UNL     1      48.710   5.558  17.898  0.00  0.00    +0.000 A 
ATOM     17  C   UNL     1      48.755   4.522  18.842  0.00  0.00    +0.000 A 
ATOM     18  C   UNL     1      48.343   3.239  18.460  0.00  0.00    +0.000 A 
ATOM     19  C   UNL     1      47.857   3.001  17.174  0.00  0.00    +0.000 A 
ATOM     20  C   UNL     1      47.817   4.019  16.214  0.00  0.00    +0.000 A 
ATOM     21  C   UNL     1      48.288   5.281  16.599  0.00  0.00    +0.000 A 
ENDBRANCH  12  13
ENDBRANCH   4  12
TORSDOF 5
ENDMDL
MODEL 8
REMARK VINA RESULT:    -5.028      3.116      5.938
REMARK INTER + INTRA:          -6.923
REMARK INTER:                  -6.415
REMARK INTRA:                  -0.508
REMARK UNBOUND:                -0.573
REMARK  Name = 
REMARK  5 active torsions:
REMARK  status: ('A' for Active; 'I' for Inactive)
REMARK    1  A    between atoms: N_1  and  C_2
REMARK    2  A    between atoms: C_2  and  C_3
REMARK    3  A    between atoms: C_3  and  C_4
REMARK    4  A    between atoms: C_7  and  C_8
REMARK    5  A    between atoms: C_8  and  N_9
REMARK                            x       y       z     vdW  Elec       q    Type
REMARK                         _______ _______ _______ _____ _____    ______ ____
ROOT
ATOM      1  C   UNL     1      50.212   7.918  12.281  0.00  0.00    +0.000 A 
ATOM      2  C   UNL     1      49.268   7.703  11.270  0.00  0.00    +0.000 A 
ATOM      3  C   UNL     1      47.946   7.372  11.587  0.00  0.00    +0.000 A 
ATOM      4  C   UNL     1      47.540   7.228  12.923  0.00  0.00    +0.000 A 
ATOM      5  C   UNL     1      48.485   7.424  13.932  0.00  0.00    +0.000 A 
ATOM      6  C   UNL     1      49.804   7.764  13.614  0.00  0.00    +0.000 A 
ENDROOT
BRANCH   1   7
ATOM      7  C   UNL     1      51.671   8.224  12.006  0.00  0.00    +0.000 C 
BRANCH   7   8
ATOM      8  C   UNL     1      52.174   7.964  10.579  0.00  0.00    +0.000 C 
BRANCH   8   9
ATOM      9  N   UNL     1      52.923   6.709  10.517  0.00  0.00    +0.000 NA
ATOM     10  H   UNL     1      52.522   6.110   9.795  0.00  0.00    +0.000 HD
ATOM     11  H   UNL     1      52.822   6.201  11.398  0.00  0.00    +0.000 HD
ENDBRANCH   8   9
ENDBRANCH   7   8
ENDBRANCH   1   7
BRANCH   4  12
ATOM     12  C   UNL     1      46.106   6.925  13.265  0.00  0.00    +0.000 C 
BRANCH  12  13
ATOM     13  N   UNL     1      45.723   5.521  13.161  0.00  0.00    +0.000 N 
ATOM     14  C   UNL     1      46.307   4.481  13.835  0.00  0.00    +0.000 A 
ATOM     15  N   UNL     1      46.119   3.334  13.222  0.00  0.00    +0.000 NA
ATOM     16  C   UNL     1      45.355   3.634  12.123  0.00  0.00    +0.000 A 
ATOM     17  C   UNL     1      44.934   2.804  11.073  0.00  0.00    +0.000 A 
ATOM     18  C   UNL     1      44.151   3.352  10.050  0.00  0.00    +0.000 A 
ATOM     19  C   UNL     1      43.760   4.691  10.093  0.00  0.00    +0.000 A 
ATOM     20  C   UNL     1      44.179   5.538  11.125  0.00  0.00    +0.000 A 
ATOM     21  C   UNL     1      45.010   4.984  12.108  0.00  0.00    +0.000 A 
ENDBRANCH  12  13
ENDBRANCH   4  12
TORSDOF 5
ENDMDL
MODEL 9
REMARK VINA RESULT:    -4.993      3.303      5.423
REMARK INTER + INTRA:          -6.880
REMARK INTER:                  -6.398
REMARK INTRA:                  -0.482
REMARK UNBOUND:                -0.573
REMARK  Name = 
REMARK  5 active torsions:
REMARK  status: ('A' for Active; 'I' for Inactive)
REMARK    1  A    between atoms: N_1  and  C_2
REMARK    2  A    between atoms: C_2  and  C_3
REMARK    3  A    between atoms: C_3  and  C_4
REMARK    4  A    between atoms: C_7  and  C_8
REMARK    5  A    between atoms: C_8  and  N_9
REMARK                            x       y       z     vdW  Elec       q    Type
REMARK                         _______ _______ _______ _____ _____    ______ ____
ROOT
ATOM      1  C   UNL     1      45.065   5.034  11.747  0.00  0.00    +0.000 A 
ATOM      2  C   UNL     1      45.698   6.152  11.193  0.00  0.00    +0.000 A 
ATOM      3  C   UNL     1      46.847   6.689  11.785  0.00  0.00    +0.000 A 
ATOM      4  C   UNL     1      47.381   6.131  12.957  0.00  0.00    +0.000 A 
ATOM      5  C   UNL     1      46.741   5.025  13.521  0.00  0.00    +0.000 A 
ATOM      6  C   UNL     1      45.598   4.485  12.924  0.00  0.00    +0.000 A 
ENDROOT
BRANCH   1   7
ATOM      7  C   UNL     1      43.788   4.438  11.189  0.00  0.00    +0.000 C 
BRANCH   7   8
ATOM      8  C   UNL     1      43.836   2.957  10.788  0.00  0.00    +0.000 C 
BRANCH   8   9
ATOM      9  N   UNL     1      43.025   2.149  11.700  0.00  0.00    +0.000 NA
ATOM     10  H   UNL     1      42.106   1.991  11.286  0.00  0.00    +0.000 HD
ATOM     11  H   UNL     1      42.862   2.664  12.567  0.00  0.00    +0.000 HD
ENDBRANCH   8   9
ENDBRANCH   7   8
ENDBRANCH   1   7
BRANCH   4  12
ATOM     12  C   UNL     1      48.647   6.674  13.562  0.00  0.00    +0.000 C 
BRANCH  12  13
ATOM     13  N   UNL     1      48.476   7.412  14.809  0.00  0.00    +0.000 N 
ATOM     14  C   UNL     1      48.407   8.774  14.930  0.00  0.00    +0.000 A 
ATOM     15  N   UNL     1      48.735   9.176  16.137  0.00  0.00    +0.000 NA
ATOM     16  C   UNL     1      48.993   8.027  16.841  0.00  0.00    +0.000 A 
ATOM     17  C   UNL     1      49.469   7.868  18.151  0.00  0.00    +0.000 A 
ATOM     18  C   UNL     1      49.656   6.574  18.651  0.00  0.00    +0.000 A 
ATOM     19  C   UNL     1      49.337   5.459  17.876  0.00  0.00    +0.000 A 
ATOM     20  C   UNL     1      48.873   5.596  16.562  0.00  0.00    +0.000 A 
ATOM     21  C   UNL     1      48.747   6.898  16.062  0.00  0.00    +0.000 A 
ENDBRANCH  12  13
ENDBRANCH   4  12
TORSDOF 5
ENDMDL
