MODEL 1
REMARK VINA RESULT:    -8.054      0.000      0.000
REMARK INTER + INTRA:         -11.867
REMARK INTER:                 -10.879
REMARK INTRA:                  -0.988
REMARK UNBOUND:                -0.988
REMARK  Name = 
REMARK  6 active torsions:
REMARK  status: ('A' for Active; 'I' for Inactive)
REMARK    1  A    between atoms: C_2  and  C_3
REMARK    2  A    between atoms: C_7  and  N_8
REMARK    3  A    between atoms: N_8  and  C_9
REMARK    4  A    between atoms: C_9  and  C_10
REMARK    5  A    between atoms: C_14  and  C_15
REMARK    6  A    between atoms: C_19  and  C_20
REMARK                            x       y       z     vdW  Elec       q    Type
REMARK                         _______ _______ _______ _____ _____    ______ ____
ROOT
ATOM      1  C   UNL     1      45.019   5.242  12.328  0.00  0.00    +0.000 A 
ATOM      2  C   UNL     1      45.526   4.257  13.184  0.00  0.00    +0.000 A 
ATOM      3  C   UNL     1      46.778   4.403  13.774  0.00  0.00    +0.000 A 
ATOM      4  C   UNL     1      47.551   5.534  13.501  0.00  0.00    +0.000 A 
ATOM      5  C   UNL     1      47.069   6.567  12.681  0.00  0.00    +0.000 A 
ATOM      6  C   UNL     1      45.772   6.422  12.169  0.00  0.00    +0.000 A 
ENDROOT
BRANCH   5   7
ATOM      7  C   UNL     1      47.920   7.705  12.269  0.00  0.00    +0.000 A 
ATOM      8  C   UNL     1      47.429   9.020  12.178  0.00  0.00    +0.000 A 
ATOM      9  C   UNL     1      48.242  10.075  11.744  0.00  0.00    +0.000 A 
ATOM     10  C   UNL     1      49.571   9.841  11.406  0.00  0.00    +0.000 A 
ATOM     11  C   UNL     1      50.080   8.542  11.483  0.00  0.00    +0.000 A 
ATOM     12  C   UNL     1      49.257   7.489  11.891  0.00  0.00    +0.000 A 
BRANCH  11  13
ATOM     13  C   UNL     1      51.448   8.279  11.150  0.00  0.00    +0.000 C 
ATOM     14  N   UNL     1      52.561   8.061  10.895  0.00  0.00    +0.000 NA
ENDBRANCH  11  13
ENDBRANCH   5   7
BRANCH   1  15
ATOM     15  C   UNL     1      43.767   5.009  11.484  0.00  0.00    +0.000 C 
ATOM     16  C   UNL     1      42.445   5.409  12.147  0.00  0.00    +0.000 C 
ATOM     17  C   UNL     1      42.990   6.230  11.030  0.00  0.00    +0.000 C 
BRANCH  15  18
ATOM     18  N   UNL     1      43.772   3.731  10.736  0.00  0.00    +0.000 N 
ATOM     19  H   UNL     1      43.761   2.926  11.360  0.00  0.00    +0.000 HD
BRANCH  18  24
ATOM     20  C   UNL     1      46.009   2.082   8.220  0.00  0.00    +0.000 A 
ATOM     21  C   UNL     1      46.430   3.220   7.552  0.00  0.00    +0.000 A 
ATOM     22  N   UNL     1      46.003   4.464   7.857  0.00  0.00    +0.000 NA
ATOM     23  C   UNL     1      45.124   4.565   8.885  0.00  0.00    +0.000 A 
ATOM     24  C   UNL     1      44.611   3.490   9.622  0.00  0.00    +0.000 A 
ATOM     25  C   UNL     1      45.085   2.226   9.263  0.00  0.00    +0.000 A 
BRANCH  20  27
ATOM     26  N   UNL     1      46.944  -0.242   7.570  0.00  0.00    +0.000 NA
ATOM     27  C   UNL     1      46.526   0.800   7.861  0.00  0.00    +0.000 C 
ENDBRANCH  20  27
ENDBRANCH  18  24
ENDBRANCH  15  18
ENDBRANCH   1  15
TORSDOF 6
ENDMDL
MODEL 2
REMARK VINA RESULT:    -7.766      2.565      4.138
REMARK INTER + INTRA:         -11.478
REMARK INTER:                 -10.817
REMARK INTRA:                  -0.662
REMARK UNBOUND:                -0.988
REMARK  Name = 
REMARK  6 active torsions:
REMARK  status: ('A' for Active; 'I' for Inactive)
REMARK    1  A    between atoms: C_2  and  C_3
REMARK    2  A    between atoms: C_7  and  N_8
REMARK    3  A    between atoms: N_8  and  C_9
REMARK    4  A    between atoms: C_9  and  C_10
REMARK    5  A    between atoms: C_14  and  C_15
REMARK    6  A    between atoms: C_19  and  C_20
REMARK                            x       y       z     vdW  Elec       q    Type
REMARK                         _______ _______ _______ _____ _____    ______ ____
ROOT
ATOM      1  C   UNL     1      45.505   5.264  12.192  0.00  0.00    +0.000 A 
ATOM      2  C   UNL     1      46.226   6.274  11.544  0.00  0.00    +0.000 A 
ATOM      3  C   UNL     1      47.394   6.785  12.103  0.00  0.00    +0.000 A 
ATOM      4  C   UNL     1      47.850   6.301  13.331  0.00  0.00    +0.000 A 
ATOM      5  C   UNL     1      47.184   5.261  13.999  0.00  0.00    +0.000 A 
ATOM      6  C   UNL     1      46.056   4.717  13.368  0.00  0.00    +0.000 A 
ENDROOT
BRANCH   5   7
ATOM      7  C   UNL     1      47.568   4.829  15.361  0.00  0.00    +0.000 A 
ATOM      8  C   UNL     1      47.150   3.603  15.909  0.00  0.00    +0.000 A 
ATOM      9  C   UNL     1      47.490   3.233  17.217  0.00  0.00    +0.000 A 
ATOM     10  C   UNL     1      48.270   4.076  18.001  0.00  0.00    +0.000 A 
ATOM     11  C   UNL     1      48.693   5.303  17.481  0.00  0.00    +0.000 A 
ATOM     12  C   UNL     1      48.328   5.677  16.185  0.00  0.00    +0.000 A 
BRANCH  11  13
ATOM     13  C   UNL     1      49.506   6.181  18.267  0.00  0.00    +0.000 C 
ATOM     14  N   UNL     1      50.155   6.892  18.918  0.00  0.00    +0.000 NA
ENDBRANCH  11  13
ENDBRANCH   5   7
BRANCH   1  15
ATOM     15  C   UNL     1      44.107   4.851  11.734  0.00  0.00    +0.000 C 
ATOM     16  C   UNL     1      42.983   5.114  12.741  0.00  0.00    +0.000 C 
ATOM     17  C   UNL     1      43.088   5.954  11.515  0.00  0.00    +0.000 C 
BRANCH  15  18
ATOM     18  N   UNL     1      44.063   3.557  11.016  0.00  0.00    +0.000 N 
ATOM     19  H   UNL     1      44.217   2.769  11.644  0.00  0.00    +0.000 HD
BRANCH  18  24
ATOM     20  C   UNL     1      45.969   2.005   8.186  0.00  0.00    +0.000 A 
ATOM     21  C   UNL     1      46.130   3.139   7.408  0.00  0.00    +0.000 A 
ATOM     22  N   UNL     1      45.629   4.348   7.741  0.00  0.00    +0.000 NA
ATOM     23  C   UNL     1      44.948   4.417   8.912  0.00  0.00    +0.000 A 
ATOM     24  C   UNL     1      44.704   3.340   9.773  0.00  0.00    +0.000 A 
ATOM     25  C   UNL     1      45.243   2.113   9.380  0.00  0.00    +0.000 A 
BRANCH  20  27
ATOM     26  N   UNL     1      47.029  -0.242   7.458  0.00  0.00    +0.000 NA
ATOM     27  C   UNL     1      46.553   0.764   7.785  0.00  0.00    +0.000 C 
ENDBRANCH  20  27
ENDBRANCH  18  24
ENDBRANCH  15  18
ENDBRANCH   1  15
TORSDOF 6
ENDMDL
MODEL 3
REMARK VINA RESULT:    -7.425      2.586      7.053
REMARK INTER + INTRA:         -11.017
REMARK INTER:                  -9.944
REMARK INTRA:                  -1.072
REMARK UNBOUND:                -0.988
REMARK  Name = 
REMARK  6 active torsions:
REMARK  status: ('A' for Active; 'I' for Inactive)
REMARK    1  A    between atoms: C_2  and  C_3
REMARK    2  A    between atoms: C_7  and  N_8
REMARK    3  A    between atoms: N_8  and  C_9
REMARK    4  A    between atoms: C_9  and  C_10
REMARK    5  A    between atoms: C_14  and  C_15
REMARK    6  A    between atoms: C_19  and  C_20
REMARK                            x       y       z     vdW  Elec       q    Type
REMARK                         _______ _______ _______ _____ _____    ______ ____
ROOT
ATOM      1  C   UNL     1      45.266   6.174  11.530  0.00  0.00    +0.000 A 
ATOM      2  C   UNL     1      43.889   6.034  11.745  0.00  0.00    +0.000 A 
ATOM      3  C   UNL     1      43.139   5.135  10.992  0.00  0.00    +0.000 A 
ATOM      4  C   UNL     1      43.757   4.373   9.997  0.00  0.00    +0.000 A 
ATOM      5  C   UNL     1      45.141   4.449   9.772  0.00  0.00    +0.000 A 
ATOM      6  C   UNL     1      45.875   5.306  10.602  0.00  0.00    +0.000 A 
ENDROOT
BRANCH   5   7
ATOM      7  C   UNL     1      45.791   3.756   8.638  0.00  0.00    +0.000 A 
ATOM      8  C   UNL     1      46.261   4.444   7.504  0.00  0.00    +0.000 A 
ATOM      9  C   UNL     1      46.835   3.763   6.423  0.00  0.00    +0.000 A 
ATOM     10  C   UNL     1      46.966   2.379   6.458  0.00  0.00    +0.000 A 
ATOM     11  C   UNL     1      46.502   1.673   7.571  0.00  0.00    +0.000 A 
ATOM     12  C   UNL     1      45.906   2.355   8.634  0.00  0.00    +0.000 A 
BRANCH  11  13
ATOM     13  C   UNL     1      46.636   0.249   7.633  0.00  0.00    +0.000 C 
ATOM     14  N   UNL     1      46.737  -0.909   7.668  0.00  0.00    +0.000 NA
ENDBRANCH  11  13
ENDBRANCH   5   7
BRANCH   1  15
ATOM     15  C   UNL     1      46.068   7.309  12.164  0.00  0.00    +0.000 C 
ATOM     16  C   UNL     1      45.796   8.704  11.591  0.00  0.00    +0.000 C 
ATOM     17  C   UNL     1      45.300   8.355  12.951  0.00  0.00    +0.000 C 
BRANCH  15  18
ATOM     18  N   UNL     1      47.483   6.970  12.438  0.00  0.00    +0.000 N 
ATOM     19  H   UNL     1      47.887   6.401  11.695  0.00  0.00    +0.000 HD
BRANCH  18  24
ATOM     20  C   UNL     1      47.819   5.192  15.720  0.00  0.00    +0.000 A 
ATOM     21  C   UNL     1      48.816   5.978  16.272  0.00  0.00    +0.000 A 
ATOM     22  N   UNL     1      49.391   7.015  15.625  0.00  0.00    +0.000 NA
ATOM     23  C   UNL     1      48.933   7.275  14.376  0.00  0.00    +0.000 A 
ATOM     24  C   UNL     1      47.945   6.542  13.704  0.00  0.00    +0.000 A 
ATOM     25  C   UNL     1      47.386   5.480  14.419  0.00  0.00    +0.000 A 
BRANCH  20  27
ATOM     26  N   UNL     1      46.763   3.266  17.090  0.00  0.00    +0.000 NA
ATOM     27  C   UNL     1      47.236   4.128  16.475  0.00  0.00    +0.000 C 
ENDBRANCH  20  27
ENDBRANCH  18  24
ENDBRANCH  15  18
ENDBRANCH   1  15
TORSDOF 6
ENDMDL
MODEL 4
REMARK VINA RESULT:    -6.860      2.808      7.300
REMARK INTER + INTRA:         -10.255
REMARK INTER:                  -9.091
REMARK INTRA:                  -1.164
REMARK UNBOUND:                -0.988
REMARK  Name = 
REMARK  6 active torsions:
REMARK  status: ('A' for Active; 'I' for Inactive)
REMARK    1  A    between atoms: C_2  and  C_3
REMARK    2  A    between atoms: C_7  and  N_8
REMARK    3  A    between atoms: N_8  and  C_9
REMARK    4  A    between atoms: C_9  and  C_10
REMARK    5  A    between atoms: C_14  and  C_15
REMARK    6  A    between atoms: C_19  and  C_20
REMARK                            x       y       z     vdW  Elec       q    Type
REMARK                         _______ _______ _______ _____ _____    ______ ____
ROOT
ATOM      1  C   UNL     1      47.175   7.836  12.381  0.00  0.00    +0.000 A 
ATOM      2  C   UNL     1      46.211   8.844  12.506  0.00  0.00    +0.000 A 
ATOM      3  C   UNL     1      44.914   8.651  12.037  0.00  0.00    +0.000 A 
ATOM      4  C   UNL     1      44.568   7.448  11.419  0.00  0.00    +0.000 A 
ATOM      5  C   UNL     1      45.488   6.393  11.306  0.00  0.00    +0.000 A 
ATOM      6  C   UNL     1      46.759   6.594  11.861  0.00  0.00    +0.000 A 
ENDROOT
BRANCH   5   7
ATOM      7  C   UNL     1      45.187   5.166  10.536  0.00  0.00    +0.000 A 
ATOM      8  C   UNL     1      44.386   4.131  11.051  0.00  0.00    +0.000 A 
ATOM      9  C   UNL     1      44.148   2.958  10.321  0.00  0.00    +0.000 A 
ATOM     10  C   UNL     1      44.695   2.803   9.052  0.00  0.00    +0.000 A 
ATOM     11  C   UNL     1      45.499   3.815   8.521  0.00  0.00    +0.000 A 
ATOM     12  C   UNL     1      45.754   4.970   9.265  0.00  0.00    +0.000 A 
BRANCH  11  13
ATOM     13  C   UNL     1      46.063   3.680   7.212  0.00  0.00    +0.000 C 
ATOM     14  N   UNL     1      46.514   3.556   6.148  0.00  0.00    +0.000 NA
ENDBRANCH  11  13
ENDBRANCH   5   7
BRANCH   1  15
ATOM     15  C   UNL     1      48.653   8.097  12.664  0.00  0.00    +0.000 C 
ATOM     16  C   UNL     1      49.434   8.752  11.520  0.00  0.00    +0.000 C 
ATOM     17  C   UNL     1      49.108   9.542  12.739  0.00  0.00    +0.000 C 
BRANCH  15  18
ATOM     18  N   UNL     1      49.334   6.998  13.386  0.00  0.00    +0.000 N 
ATOM     19  H   UNL     1      49.388   6.150  12.822  0.00  0.00    +0.000 HD
BRANCH  18  24
ATOM     20  C   UNL     1      48.038   5.374  16.505  0.00  0.00    +0.000 A 
ATOM     21  C   UNL     1      48.448   6.333  17.415  0.00  0.00    +0.000 A 
ATOM     22  N   UNL     1      49.139   7.441  17.069  0.00  0.00    +0.000 NA
ATOM     23  C   UNL     1      49.417   7.591  15.750  0.00  0.00    +0.000 A 
ATOM     24  C   UNL     1      49.073   6.683  14.740  0.00  0.00    +0.000 A 
ATOM     25  C   UNL     1      48.361   5.555  15.154  0.00  0.00    +0.000 A 
BRANCH  20  27
ATOM     26  N   UNL     1      46.674   3.320  17.295  0.00  0.00    +0.000 NA
ATOM     27  C   UNL     1      47.284   4.241  16.941  0.00  0.00    +0.000 C 
ENDBRANCH  20  27
ENDBRANCH  18  24
ENDBRANCH  15  18
ENDBRANCH   1  15
TORSDOF 6
ENDMDL
MODEL 5
REMARK VINA RESULT:    -6.578      2.778      5.065
REMARK INTER + INTRA:          -9.873
REMARK INTER:                  -8.842
REMARK INTRA:                  -1.031
REMARK UNBOUND:                -0.988
REMARK  Name = 
REMARK  6 active torsions:
REMARK  status: ('A' for Active; 'I' for Inactive)
REMARK    1  A    between atoms: C_2  and  C_3
REMARK    2  A    between atoms: C_7  and  N_8
REMARK    3  A    between atoms: N_8  and  C_9
REMARK    4  A    between atoms: C_9  and  C_10
REMARK    5  A    between atoms: C_14  and  C_15
REMARK    6  A    between atoms: C_19  and  C_20
REMARK                            x       y       z     vdW  Elec       q    Type
REMARK                         _______ _______ _______ _____ _____    ______ ____
ROOT
ATOM      1  C   UNL     1      46.873   7.937  12.461  0.00  0.00    +0.000 A 
ATOM      2  C   UNL     1      47.887   8.624  11.782  0.00  0.00    +0.000 A 
ATOM      3  C   UNL     1      49.210   8.543  12.208  0.00  0.00    +0.000 A 
ATOM      4  C   UNL     1      49.535   7.783  13.334  0.00  0.00    +0.000 A 
ATOM      5  C   UNL     1      48.560   7.045  14.024  0.00  0.00    +0.000 A 
ATOM      6  C   UNL     1      47.253   7.088  13.520  0.00  0.00    +0.000 A 
ENDROOT
BRANCH   5   7
ATOM      7  C   UNL     1      48.856   6.348  15.295  0.00  0.00    +0.000 A 
ATOM      8  C   UNL     1      49.975   6.665  16.086  0.00  0.00    +0.000 A 
ATOM      9  C   UNL     1      50.260   5.963  17.264  0.00  0.00    +0.000 A 
ATOM     10  C   UNL     1      49.421   4.936  17.686  0.00  0.00    +0.000 A 
ATOM     11  C   UNL     1      48.306   4.598  16.914  0.00  0.00    +0.000 A 
ATOM     12  C   UNL     1      48.043   5.286  15.726  0.00  0.00    +0.000 A 
BRANCH  11  13
ATOM     13  C   UNL     1      47.424   3.553  17.335  0.00  0.00    +0.000 C 
ATOM     14  N   UNL     1      46.705   2.699  17.660  0.00  0.00    +0.000 NA
ENDBRANCH  11  13
ENDBRANCH   5   7
BRANCH   1  15
ATOM     15  C   UNL     1      45.395   8.191  12.171  0.00  0.00    +0.000 C 
ATOM     16  C   UNL     1      44.887   9.590  12.535  0.00  0.00    +0.000 C 
ATOM     17  C   UNL     1      45.057   9.215  11.104  0.00  0.00    +0.000 C 
BRANCH  15  18
ATOM     18  N   UNL     1      44.508   7.056  12.511  0.00  0.00    +0.000 N 
ATOM     19  H   UNL     1      44.563   6.815  13.500  0.00  0.00    +0.000 HD
BRANCH  18  24
ATOM     20  C   UNL     1      44.908   4.545   9.757  0.00  0.00    +0.000 A 
ATOM     21  C   UNL     1      43.918   3.660  10.148  0.00  0.00    +0.000 A 
ATOM     22  N   UNL     1      43.167   3.825  11.259  0.00  0.00    +0.000 NA
ATOM     23  C   UNL     1      43.420   4.934  11.998  0.00  0.00    +0.000 A 
ATOM     24  C   UNL     1      44.405   5.890  11.716  0.00  0.00    +0.000 A 
ATOM     25  C   UNL     1      45.152   5.669  10.557  0.00  0.00    +0.000 A 
BRANCH  20  27
ATOM     26  N   UNL     1      46.238   4.137   7.574  0.00  0.00    +0.000 NA
ATOM     27  C   UNL     1      45.643   4.321   8.552  0.00  0.00    +0.000 C 
ENDBRANCH  20  27
ENDBRANCH  18  24
ENDBRANCH  15  18
ENDBRANCH   1  15
TORSDOF 6
ENDMDL
MODEL 6
REMARK VINA RESULT:    -6.499      3.400      8.143
REMARK INTER + INTRA:          -9.766
REMARK INTER:                  -8.712
REMARK INTRA:                  -1.055
REMARK UNBOUND:                -0.988
REMARK  Name = 
REMARK  6 active torsions:
REMARK  status: ('A' for Active; 'I' for Inactive)
REMARK    1  A    between atoms: C_2  and  C_3
REMARK    2  A    between atoms: C_7  and  N_8
REMARK    3  A    between atoms: N_8  and  C_9
REMARK    4  A    between atoms: C_9  and  C_10
REMARK    5  A    between atoms: C_14  and  C_15
REMARK    6  A    between atoms: C_19  and  C_20
REMARK                            x       y       z     vdW  Elec       q    Type
REMARK                         _______ _______ _______ _____ _____    ______ ____
ROOT
ATOM      1  C   UNL     1      47.287   7.719  12.417  0.00  0.00    +0.000 A 
ATOM      2  C   UNL     1      46.362   8.763  12.541  0.00  0.00    +0.000 A 
ATOM      3  C   UNL     1      45.058   8.618  12.073  0.00  0.00    +0.000 A 
ATOM      4  C   UNL     1      44.667   7.427  11.457  0.00  0.00    +0.000 A 
ATOM      5  C   UNL     1      45.546   6.338  11.345  0.00  0.00    +0.000 A 
ATOM      6  C   UNL     1      46.825   6.492  11.899  0.00  0.00    +0.000 A 
ENDROOT
BRANCH   5   7
ATOM      7  C   UNL     1      45.198   5.123  10.578  0.00  0.00    +0.000 A 
ATOM      8  C   UNL     1      44.372   4.111  11.101  0.00  0.00    +0.000 A 
ATOM      9  C   UNL     1      44.090   2.948  10.372  0.00  0.00    +0.000 A 
ATOM     10  C   UNL     1      44.616   2.778   9.096  0.00  0.00    +0.000 A 
ATOM     11  C   UNL     1      45.445   3.766   8.557  0.00  0.00    +0.000 A 
ATOM     12  C   UNL     1      45.743   4.911   9.299  0.00  0.00    +0.000 A 
BRANCH  11  13
ATOM     13  C   UNL     1      45.989   3.616   7.241  0.00  0.00    +0.000 C 
ATOM     14  N   UNL     1      46.417   3.486   6.168  0.00  0.00    +0.000 NA
ENDBRANCH  11  13
ENDBRANCH   5   7
BRANCH   1  15
ATOM     15  C   UNL     1      48.774   7.924  12.698  0.00  0.00    +0.000 C 
ATOM     16  C   UNL     1      49.675   7.969  11.460  0.00  0.00    +0.000 C 
ATOM     17  C   UNL     1      49.405   9.219  12.223  0.00  0.00    +0.000 C 
BRANCH  15  18
ATOM     18  N   UNL     1      49.281   7.157  13.859  0.00  0.00    +0.000 N 
ATOM     19  H   UNL     1      49.288   6.154  13.677  0.00  0.00    +0.000 HD
BRANCH  18  24
ATOM     20  C   UNL     1      48.319   8.896  17.036  0.00  0.00    +0.000 A 
ATOM     21  C   UNL     1      48.363   7.803  17.884  0.00  0.00    +0.000 A 
ATOM     22  N   UNL     1      48.653   6.550  17.470  0.00  0.00    +0.000 NA
ATOM     23  C   UNL     1      48.921   6.399  16.149  0.00  0.00    +0.000 A 
ATOM     24  C   UNL     1      48.889   7.422  15.192  0.00  0.00    +0.000 A 
ATOM     25  C   UNL     1      48.581   8.696  15.675  0.00  0.00    +0.000 A 
BRANCH  20  27
ATOM     26  N   UNL     1      47.802  11.254  17.970  0.00  0.00    +0.000 NA
ATOM     27  C   UNL     1      48.033  10.199  17.551  0.00  0.00    +0.000 C 
ENDBRANCH  20  27
ENDBRANCH  18  24
ENDBRANCH  15  18
ENDBRANCH   1  15
TORSDOF 6
ENDMDL
MODEL 7
REMARK VINA RESULT:    -6.485      3.421      7.455
REMARK INTER + INTRA:          -9.748
REMARK INTER:                  -9.844
REMARK INTRA:                   0.096
REMARK UNBOUND:                -0.988
REMARK  Name = 
REMARK  6 active torsions:
REMARK  status: ('A' for Active; 'I' for Inactive)
REMARK    1  A    between atoms: C_2  and  C_3
REMARK    2  A    between atoms: C_7  and  N_8
REMARK    3  A    between atoms: N_8  and  C_9
REMARK    4  A    between atoms: C_9  and  C_10
REMARK    5  A    between atoms: C_14  and  C_15
REMARK    6  A    between atoms: C_19  and  C_20
REMARK                            x       y       z     vdW  Elec       q    Type
REMARK                         _______ _______ _______ _____ _____    ______ ____
ROOT
ATOM      1  C   UNL     1      45.270   4.715  12.877  0.00  0.00    +0.000 A 
ATOM      2  C   UNL     1      43.932   5.121  12.933  0.00  0.00    +0.000 A 
ATOM      3  C   UNL     1      43.094   4.966  11.831  0.00  0.00    +0.000 A 
ATOM      4  C   UNL     1      43.593   4.416  10.648  0.00  0.00    +0.000 A 
ATOM      5  C   UNL     1      44.917   3.958  10.557  0.00  0.00    +0.000 A 
ATOM      6  C   UNL     1      45.707   4.057  11.710  0.00  0.00    +0.000 A 
ENDROOT
BRANCH   5   7
ATOM      7  C   UNL     1      45.503   3.500   9.277  0.00  0.00    +0.000 A 
ATOM      8  C   UNL     1      45.783   4.383   8.218  0.00  0.00    +0.000 A 
ATOM      9  C   UNL     1      46.298   3.922   7.000  0.00  0.00    +0.000 A 
ATOM     10  C   UNL     1      46.560   2.568   6.819  0.00  0.00    +0.000 A 
ATOM     11  C   UNL     1      46.284   1.670   7.854  0.00  0.00    +0.000 A 
ATOM     12  C   UNL     1      45.745   2.133   9.057  0.00  0.00    +0.000 A 
BRANCH  11  13
ATOM     13  C   UNL     1      46.555   0.274   7.694  0.00  0.00    +0.000 C 
ATOM     14  N   UNL     1      46.791  -0.858   7.567  0.00  0.00    +0.000 NA
ENDBRANCH  11  13
ENDBRANCH   5   7
BRANCH   1  15
ATOM     15  C   UNL     1      46.270   5.084  13.972  0.00  0.00    +0.000 C 
ATOM     16  C   UNL     1      47.696   5.367  13.489  0.00  0.00    +0.000 C 
ATOM     17  C   UNL     1      46.838   6.491  13.956  0.00  0.00    +0.000 C 
BRANCH  15  18
ATOM     18  N   UNL     1      46.137   4.281  15.208  0.00  0.00    +0.000 N 
ATOM     19  H   UNL     1      45.238   4.432  15.663  0.00  0.00    +0.000 HD
BRANCH  18  24
ATOM     20  C   UNL     1      49.104   3.070  17.152  0.00  0.00    +0.000 A 
ATOM     21  C   UNL     1      48.982   3.909  18.246  0.00  0.00    +0.000 A 
ATOM     22  N   UNL     1      48.021   4.851  18.360  0.00  0.00    +0.000 NA
ATOM     23  C   UNL     1      47.140   4.939  17.332  0.00  0.00    +0.000 A 
ATOM     24  C   UNL     1      47.170   4.161  16.168  0.00  0.00    +0.000 A 
ATOM     25  C   UNL     1      48.186   3.205  16.102  0.00  0.00    +0.000 A 
BRANCH  20  27
ATOM     26  N   UNL     1      50.965   1.272  17.084  0.00  0.00    +0.000 NA
ATOM     27  C   UNL     1      50.131   2.076  17.113  0.00  0.00    +0.000 C 
ENDBRANCH  20  27
ENDBRANCH  18  24
ENDBRANCH  15  18
ENDBRANCH   1  15
TORSDOF 6
ENDMDL
MODEL 8
REMARK VINA RESULT:    -6.089      3.636      6.637
REMARK INTER + INTRA:          -9.213
REMARK INTER:                  -8.066
REMARK INTRA:                  -1.147
REMARK UNBOUND:                -0.988
REMARK  Name = 
REMARK  6 active torsions:
REMARK  status: ('A' for Active; 'I' for Inactive)
REMARK    1  A    between atoms: C_2  and  C_3
REMARK    2  A    between atoms: C_7  and  N_8
REMARK    3  A    between atoms: N_8  and  C_9
REMARK    4  A    between atoms: C_9  and  C_10
REMARK    5  A    between atoms: C_14  and  C_15
REMARK    6  A    between atoms: C_19  and  C_20
REMARK                            x       y       z     vdW  Elec       q    Type
REMARK                         _______ _______ _______ _____ _____    ______ ____
ROOT
ATOM      1  C   UNL     1      49.131   8.967  13.868  0.00  0.00    +0.000 A 
ATOM      2  C   UNL     1      48.977  10.115  14.655  0.00  0.00    +0.000 A 
ATOM      3  C   UNL     1      49.123  10.054  16.039  0.00  0.00    +0.000 A 
ATOM      4  C   UNL     1      49.411   8.835  16.656  0.00  0.00    +0.000 A 
ATOM      5  C   UNL     1      49.615   7.665  15.906  0.00  0.00    +0.000 A 
ATOM      6  C   UNL     1      49.538   7.781  14.512  0.00  0.00    +0.000 A 
ENDROOT
BRANCH   5   7
ATOM      7  C   UNL     1      49.783   6.342  16.545  0.00  0.00    +0.000 A 
ATOM      8  C   UNL     1      51.037   5.860  16.963  0.00  0.00    +0.000 A 
ATOM      9  C   UNL     1      51.180   4.586  17.527  0.00  0.00    +0.000 A 
ATOM     10  C   UNL     1      50.068   3.769  17.700  0.00  0.00    +0.000 A 
ATOM     11  C   UNL     1      48.811   4.222  17.287  0.00  0.00    +0.000 A 
ATOM     12  C   UNL     1      48.680   5.484  16.701  0.00  0.00    +0.000 A 
BRANCH  11  13
ATOM     13  C   UNL     1      47.651   3.403  17.465  0.00  0.00    +0.000 C 
ATOM     14  N   UNL     1      46.699   2.751  17.608  0.00  0.00    +0.000 NA
ENDBRANCH  11  13
ENDBRANCH   5   7
BRANCH   1  15
ATOM     15  C   UNL     1      48.747   8.948  12.390  0.00  0.00    +0.000 C 
ATOM     16  C   UNL     1      49.553   9.890  11.490  0.00  0.00    +0.000 C 
ATOM     17  C   UNL     1      49.774   8.420  11.406  0.00  0.00    +0.000 C 
BRANCH  15  18
ATOM     18  N   UNL     1      47.288   8.886  12.145  0.00  0.00    +0.000 N 
ATOM     19  H   UNL     1      46.806   9.703  12.519  0.00  0.00    +0.000 HD
BRANCH  18  24
ATOM     20  C   UNL     1      46.229   5.390  12.982  0.00  0.00    +0.000 A 
ATOM     21  C   UNL     1      44.950   5.436  12.452  0.00  0.00    +0.000 A 
ATOM     22  N   UNL     1      44.421   6.538  11.879  0.00  0.00    +0.000 NA
ATOM     23  C   UNL     1      45.219   7.634  11.828  0.00  0.00    +0.000 A 
ATOM     24  C   UNL     1      46.519   7.716  12.345  0.00  0.00    +0.000 A 
ATOM     25  C   UNL     1      47.015   6.548  12.928  0.00  0.00    +0.000 A 
BRANCH  20  27
ATOM     26  N   UNL     1      47.144   3.195  14.006  0.00  0.00    +0.000 NA
ATOM     27  C   UNL     1      46.733   4.178  13.548  0.00  0.00    +0.000 C 
ENDBRANCH  20  27
ENDBRANCH  18  24
ENDBRANCH  15  18
ENDBRANCH   1  15
TORSDOF 6
ENDMDL
MODEL 9
REMARK VINA RESULT:    -6.064      3.852      6.140
REMARK INTER + INTRA:          -9.178
REMARK INTER:                  -8.254
REMARK INTRA:                  -0.924
REMARK UNBOUND:                -0.988
REMARK  Name = 
REMARK  6 active torsions:
REMARK  status: ('A' for Active; 'I' for Inactive)
REMARK    1  A    between atoms: C_2  and  C_3
REMARK    2  A    between atoms: C_7  and  N_8
REMARK    3  A    between atoms: N_8  and  C_9
REMARK    4  A    between atoms: C_9  and  C_10
REMARK    5  A    between atoms: C_14  and  C_15
REMARK    6  A    between atoms: C_19  and  C_20
REMARK                            x       y       z     vdW  Elec       q    Type
REMARK                         _______ _______ _______ _____ _____    ______ ____
ROOT
ATOM      1  C   UNL     1      48.394   8.144  14.295  0.00  0.00    +0.000 A 
ATOM      2  C   UNL     1      48.368   9.430  14.846  0.00  0.00    +0.000 A 
ATOM      3  C   UNL     1      48.514   9.619  16.218  0.00  0.00    +0.000 A 
ATOM      4  C   UNL     1      48.672   8.517  17.061  0.00  0.00    +0.000 A 
ATOM      5  C   UNL     1      48.746   7.211  16.550  0.00  0.00    +0.000 A 
ATOM      6  C   UNL     1      48.674   7.066  15.158  0.00  0.00    +0.000 A 
ENDROOT
BRANCH   5   7
ATOM      7  C   UNL     1      48.775   6.023  17.432  0.00  0.00    +0.000 A 
ATOM      8  C   UNL     1      48.244   6.038  18.734  0.00  0.00    +0.000 A 
ATOM      9  C   UNL     1      48.321   4.913  19.567  0.00  0.00    +0.000 A 
ATOM     10  C   UNL     1      48.918   3.744  19.110  0.00  0.00    +0.000 A 
ATOM     11  C   UNL     1      49.458   3.706  17.821  0.00  0.00    +0.000 A 
ATOM     12  C   UNL     1      49.401   4.839  17.005  0.00  0.00    +0.000 A 
BRANCH  11  13
ATOM     13  C   UNL     1      50.067   2.510  17.326  0.00  0.00    +0.000 C 
ATOM     14  N   UNL     1      50.563   1.544  16.908  0.00  0.00    +0.000 NA
ENDBRANCH  11  13
ENDBRANCH   5   7
BRANCH   1  15
ATOM     15  C   UNL     1      48.002   7.883  12.841  0.00  0.00    +0.000 C 
ATOM     16  C   UNL     1      48.653   8.811  11.810  0.00  0.00    +0.000 C 
ATOM     17  C   UNL     1      49.086   7.389  11.901  0.00  0.00    +0.000 C 
BRANCH  15  18
ATOM     18  N   UNL     1      46.565   7.582  12.647  0.00  0.00    +0.000 N 
ATOM     19  H   UNL     1      45.988   8.007  13.371  0.00  0.00    +0.000 HD
BRANCH  18  24
ATOM     20  C   UNL     1      45.182   4.646  10.773  0.00  0.00    +0.000 A 
ATOM     21  C   UNL     1      44.932   3.818  11.854  0.00  0.00    +0.000 A 
ATOM     22  N   UNL     1      45.218   4.154  13.131  0.00  0.00    +0.000 NA
ATOM     23  C   UNL     1      45.768   5.378  13.324  0.00  0.00    +0.000 A 
ATOM     24  C   UNL     1      46.083   6.295  12.312  0.00  0.00    +0.000 A 
ATOM     25  C   UNL     1      45.768   5.896  11.011  0.00  0.00    +0.000 A 
BRANCH  20  27
ATOM     26  N   UNL     1      44.536   3.904   8.378  0.00  0.00    +0.000 NA
ATOM     27  C   UNL     1      44.825   4.235   9.451  0.00  0.00    +0.000 C 
ENDBRANCH  20  27
ENDBRANCH  18  24
ENDBRANCH  15  18
ENDBRANCH   1  15
TORSDOF 6
ENDMDL
