MODEL 1
REMARK VINA RESULT:    -9.166      0.000      0.000
REMARK INTER + INTRA:         -12.095
REMARK INTER:                 -11.309
REMARK INTRA:                  -0.786
REMARK UNBOUND:                -0.786
REMARK  Name = 
REMARK  4 active torsions:
REMARK  status: ('A' for Active; 'I' for Inactive)
REMARK    1  A    between atoms: C_2  and  C_4
REMARK    2  A    between atoms: N_8  and  C_9
REMARK    3  A    between atoms: C_9  and  C_10
REMARK    4  A    between atoms: C_14  and  C_15
REMARK                            x       y       z     vdW  Elec       q    Type
REMARK                         _______ _______ _______ _____ _____    ______ ____
ROOT
ATOM      1  C   UNL     1      43.434   4.877  11.041  0.00  0.00    +0.000 C 
ENDROOT
BRANCH   1   6
ATOM      2  C   UNL     1      46.381   2.256   7.729  0.00  0.00    +0.000 A 
ATOM      3  C   UNL     1      45.653   1.781   8.815  0.00  0.00    +0.000 A 
ATOM      4  C   UNL     1      44.798   2.652   9.497  0.00  0.00    +0.000 A 
ATOM      5  C   UNL     1      44.694   3.979   9.094  0.00  0.00    +0.000 A 
ATOM      6  N   UNL     1      43.815   4.885   9.638  0.00  0.00    +0.000 N 
ATOM      7  N   UNL     1      45.403   4.450   8.047  0.00  0.00    +0.000 NA
ATOM      8  C   UNL     1      46.233   3.592   7.396  0.00  0.00    +0.000 A 
ATOM      9  H   UNL     1      44.018   5.794   9.236  0.00  0.00    +0.000 HD
BRANCH   2  11
ATOM     10  N   UNL     1      48.409   2.027   6.406  0.00  0.00    +0.000 N 
ATOM     11  C   UNL     1      47.306   1.418   6.938  0.00  0.00    +0.000 C 
ATOM     12  O   UNL     1      47.117   0.219   6.792  0.00  0.00    +0.000 OA
ATOM     13  H   UNL     1      49.083   1.418   5.955  0.00  0.00    +0.000 HD
ATOM     14  H   UNL     1      48.733   2.934   6.710  0.00  0.00    +0.000 HD
ENDBRANCH   2  11
ENDBRANCH   1   6
BRANCH   1  15
ATOM     15  C   UNL     1      44.568   5.196  11.999  0.00  0.00    +0.000 A 
ATOM     16  C   UNL     1      44.966   4.268  12.956  0.00  0.00    +0.000 A 
ATOM     17  C   UNL     1      46.069   4.556  13.750  0.00  0.00    +0.000 A 
ATOM     18  C   UNL     1      46.755   5.751  13.559  0.00  0.00    +0.000 A 
ATOM     19  C   UNL     1      46.323   6.636  12.572  0.00  0.00    +0.000 A 
ATOM     20  N   UNL     1      45.232   6.368  11.806  0.00  0.00    +0.000 NA
BRANCH  19  21
ATOM     21  C   UNL     1      47.030   7.896  12.258  0.00  0.00    +0.000 A 
ATOM     22  C   UNL     1      48.403   7.894  11.940  0.00  0.00    +0.000 A 
ATOM     23  C   UNL     1      49.096   9.078  11.660  0.00  0.00    +0.000 A 
ATOM     24  C   UNL     1      48.426  10.297  11.698  0.00  0.00    +0.000 A 
ATOM     25  C   UNL     1      47.075  10.317  12.011  0.00  0.00    +0.000 A 
ATOM     26  F   UNL     1      46.427  11.489  12.057  0.00  0.00    +0.000 F 
ATOM     27  C   UNL     1      46.380   9.142  12.288  0.00  0.00    +0.000 A 
ENDBRANCH  19  21
ENDBRANCH   1  15
TORSDOF 4
ENDMDL
MODEL 2
REMARK VINA RESULT:    -7.938      4.952      7.991
REMARK INTER + INTRA:         -10.581
REMARK INTER:                 -10.094
REMARK INTRA:                  -0.487
REMARK UNBOUND:                -0.786
REMARK  Name = 
REMARK  4 active torsions:
REMARK  status: ('A' for Active; 'I' for Inactive)
REMARK    1  A    between atoms: C_2  and  C_4
REMARK    2  A    between atoms: N_8  and  C_9
REMARK    3  A    between atoms: C_9  and  C_10
REMARK    4  A    between atoms: C_14  and  C_15
REMARK                            x       y       z     vdW  Elec       q    Type
REMARK                         _______ _______ _______ _____ _____    ______ ____
ROOT
ATOM      1  C   UNL     1      45.971   5.246  13.697  0.00  0.00    +0.000 C 
ENDROOT
BRANCH   1   6
ATOM      2  C   UNL     1      49.415   3.733  17.215  0.00  0.00    +0.000 A 
ATOM      3  C   UNL     1      48.885   5.001  17.001  0.00  0.00    +0.000 A 
ATOM      4  C   UNL     1      47.846   5.160  16.079  0.00  0.00    +0.000 A 
ATOM      5  C   UNL     1      47.364   4.057  15.381  0.00  0.00    +0.000 A 
ATOM      6  N   UNL     1      46.287   4.094  14.527  0.00  0.00    +0.000 N 
ATOM      7  N   UNL     1      47.877   2.826  15.577  0.00  0.00    +0.000 NA
ATOM      8  C   UNL     1      48.890   2.687  16.473  0.00  0.00    +0.000 A 
ATOM      9  H   UNL     1      46.216   3.187  14.078  0.00  0.00    +0.000 HD
BRANCH   2  11
ATOM     10  N   UNL     1      51.125   2.238  18.087  0.00  0.00    +0.000 N 
ATOM     11  C   UNL     1      50.509   3.456  18.170  0.00  0.00    +0.000 C 
ATOM     12  O   UNL     1      50.877   4.295  18.980  0.00  0.00    +0.000 OA
ATOM     13  H   UNL     1      51.937   2.106  18.679  0.00  0.00    +0.000 HD
ATOM     14  H   UNL     1      51.030   1.631  17.285  0.00  0.00    +0.000 HD
ENDBRANCH   2  11
ENDBRANCH   1   6
BRANCH   1  15
ATOM     15  C   UNL     1      45.015   4.949  12.556  0.00  0.00    +0.000 A 
ATOM     16  C   UNL     1      43.705   5.415  12.593  0.00  0.00    +0.000 A 
ATOM     17  C   UNL     1      42.888   5.208  11.488  0.00  0.00    +0.000 A 
ATOM     18  C   UNL     1      43.402   4.557  10.372  0.00  0.00    +0.000 A 
ATOM     19  C   UNL     1      44.728   4.127  10.383  0.00  0.00    +0.000 A 
ATOM     20  N   UNL     1      45.525   4.310  11.469  0.00  0.00    +0.000 NA
BRANCH  19  21
ATOM     21  C   UNL     1      45.373   3.485   9.217  0.00  0.00    +0.000 A 
ATOM     22  C   UNL     1      45.829   4.256   8.128  0.00  0.00    +0.000 A 
ATOM     23  C   UNL     1      46.424   3.666   7.006  0.00  0.00    +0.000 A 
ATOM     24  C   UNL     1      46.571   2.284   6.947  0.00  0.00    +0.000 A 
ATOM     25  C   UNL     1      46.126   1.510   8.009  0.00  0.00    +0.000 A 
ATOM     26  F   UNL     1      46.257   0.178   7.954  0.00  0.00    +0.000 F 
ATOM     27  C   UNL     1      45.536   2.092   9.129  0.00  0.00    +0.000 A 
ENDBRANCH  19  21
ENDBRANCH   1  15
TORSDOF 4
ENDMDL
MODEL 3
REMARK VINA RESULT:    -7.865      3.899      7.168
REMARK INTER + INTRA:         -10.491
REMARK INTER:                 -10.113
REMARK INTRA:                  -0.378
REMARK UNBOUND:                -0.786
REMARK  Name = 
REMARK  4 active torsions:
REMARK  status: ('A' for Active; 'I' for Inactive)
REMARK    1  A    between atoms: C_2  and  C_4
REMARK    2  A    between atoms: N_8  and  C_9
REMARK    3  A    between atoms: C_9  and  C_10
REMARK    4  A    between atoms: C_14  and  C_15
REMARK                            x       y       z     vdW  Elec       q    Type
REMARK                         _______ _______ _______ _____ _____    ______ ____
ROOT
ATOM      1  C   UNL     1      43.962   6.628  11.391  0.00  0.00    +0.000 C 
ENDROOT
BRANCH   1   6
ATOM      2  C   UNL     1      48.472   6.994  13.851  0.00  0.00    +0.000 A 
ATOM      3  C   UNL     1      47.631   5.893  13.729  0.00  0.00    +0.000 A 
ATOM      4  C   UNL     1      46.518   5.974  12.887  0.00  0.00    +0.000 A 
ATOM      5  C   UNL     1      46.257   7.152  12.194  0.00  0.00    +0.000 A 
ATOM      6  N   UNL     1      45.247   7.300  11.274  0.00  0.00    +0.000 N 
ATOM      7  N   UNL     1      47.063   8.227  12.313  0.00  0.00    +0.000 NA
ATOM      8  C   UNL     1      48.140   8.134  13.139  0.00  0.00    +0.000 A 
ATOM      9  H   UNL     1      45.216   8.276  11.000  0.00  0.00    +0.000 HD
BRANCH   2  11
ATOM     10  N   UNL     1      50.732   7.775  14.298  0.00  0.00    +0.000 N 
ATOM     11  C   UNL     1      49.676   7.009  14.709  0.00  0.00    +0.000 C 
ATOM     12  O   UNL     1      49.718   6.392  15.764  0.00  0.00    +0.000 OA
ATOM     13  H   UNL     1      51.507   7.855  14.947  0.00  0.00    +0.000 HD
ATOM     14  H   UNL     1      50.647   8.487  13.586  0.00  0.00    +0.000 HD
ENDBRANCH   2  11
ENDBRANCH   1   6
BRANCH   1  15
ATOM     15  C   UNL     1      44.024   5.124  11.201  0.00  0.00    +0.000 A 
ATOM     16  C   UNL     1      43.251   4.279  11.993  0.00  0.00    +0.000 A 
ATOM     17  C   UNL     1      43.260   2.916  11.726  0.00  0.00    +0.000 A 
ATOM     18  C   UNL     1      44.026   2.432  10.670  0.00  0.00    +0.000 A 
ATOM     19  C   UNL     1      44.767   3.326   9.898  0.00  0.00    +0.000 A 
ATOM     20  N   UNL     1      44.777   4.659  10.168  0.00  0.00    +0.000 NA
BRANCH  19  21
ATOM     21  C   UNL     1      45.555   2.907   8.720  0.00  0.00    +0.000 A 
ATOM     22  C   UNL     1      45.944   3.843   7.740  0.00  0.00    +0.000 A 
ATOM     23  C   UNL     1      46.672   3.462   6.606  0.00  0.00    +0.000 A 
ATOM     24  C   UNL     1      47.024   2.129   6.425  0.00  0.00    +0.000 A 
ATOM     25  C   UNL     1      46.648   1.194   7.378  0.00  0.00    +0.000 A 
ATOM     26  F   UNL     1      46.976  -0.094   7.204  0.00  0.00    +0.000 F 
ATOM     27  C   UNL     1      45.925   1.567   8.509  0.00  0.00    +0.000 A 
ENDBRANCH  19  21
ENDBRANCH   1  15
TORSDOF 4
ENDMDL
MODEL 4
REMARK VINA RESULT:    -7.789      4.077      7.428
REMARK INTER + INTRA:         -10.396
REMARK INTER:                 -10.292
REMARK INTRA:                  -0.104
REMARK UNBOUND:                -0.786
REMARK  Name = 
REMARK  4 active torsions:
REMARK  status: ('A' for Active; 'I' for Inactive)
REMARK    1  A    between atoms: C_2  and  C_4
REMARK    2  A    between atoms: N_8  and  C_9
REMARK    3  A    between atoms: C_9  and  C_10
REMARK    4  A    between atoms: C_14  and  C_15
REMARK                            x       y       z     vdW  Elec       q    Type
REMARK                         _______ _______ _______ _____ _____    ______ ____
ROOT
ATOM      1  C   UNL     1      45.354   7.043  11.499  0.00  0.00    +0.000 C 
ENDROOT
BRANCH   1   6
ATOM      2  C   UNL     1      47.765   5.017  15.575  0.00  0.00    +0.000 A 
ATOM      3  C   UNL     1      46.747   4.469  14.802  0.00  0.00    +0.000 A 
ATOM      4  C   UNL     1      46.335   5.136  13.644  0.00  0.00    +0.000 A 
ATOM      5  C   UNL     1      46.936   6.338  13.285  0.00  0.00    +0.000 A 
ATOM      6  N   UNL     1      46.669   7.018  12.120  0.00  0.00    +0.000 N 
ATOM      7  N   UNL     1      47.919   6.880  14.033  0.00  0.00    +0.000 NA
ATOM      8  C   UNL     1      48.305   6.222  15.159  0.00  0.00    +0.000 A 
ATOM      9  H   UNL     1      47.161   7.904  12.158  0.00  0.00    +0.000 HD
BRANCH   2  11
ATOM     10  N   UNL     1      47.357   3.993  17.744  0.00  0.00    +0.000 N 
ATOM     11  C   UNL     1      48.277   4.391  16.812  0.00  0.00    +0.000 C 
ATOM     12  O   UNL     1      49.472   4.200  16.986  0.00  0.00    +0.000 OA
ATOM     13  H   UNL     1      47.718   3.475  18.536  0.00  0.00    +0.000 HD
ATOM     14  H   UNL     1      46.374   3.897  17.535  0.00  0.00    +0.000 HD
ENDBRANCH   2  11
ENDBRANCH   1   6
BRANCH   1  15
ATOM     15  C   UNL     1      44.804   5.673  11.147  0.00  0.00    +0.000 A 
ATOM     16  C   UNL     1      43.616   5.221  11.714  0.00  0.00    +0.000 A 
ATOM     17  C   UNL     1      43.093   4.004  11.294  0.00  0.00    +0.000 A 
ATOM     18  C   UNL     1      43.757   3.279  10.311  0.00  0.00    +0.000 A 
ATOM     19  C   UNL     1      44.934   3.788   9.765  0.00  0.00    +0.000 A 
ATOM     20  N   UNL     1      45.460   4.968  10.186  0.00  0.00    +0.000 NA
BRANCH  19  21
ATOM     21  C   UNL     1      45.667   3.115   8.671  0.00  0.00    +0.000 A 
ATOM     22  C   UNL     1      46.141   3.845   7.562  0.00  0.00    +0.000 A 
ATOM     23  C   UNL     1      46.819   3.223   6.507  0.00  0.00    +0.000 A 
ATOM     24  C   UNL     1      47.036   1.849   6.537  0.00  0.00    +0.000 A 
ATOM     25  C   UNL     1      46.575   1.115   7.620  0.00  0.00    +0.000 A 
ATOM     26  F   UNL     1      46.772  -0.210   7.651  0.00  0.00    +0.000 F 
ATOM     27  C   UNL     1      45.901   1.728   8.674  0.00  0.00    +0.000 A 
ENDBRANCH  19  21
ENDBRANCH   1  15
TORSDOF 4
ENDMDL
MODEL 5
REMARK VINA RESULT:    -7.455      3.866      7.198
REMARK INTER + INTRA:          -9.985
REMARK INTER:                  -9.239
REMARK INTRA:                  -0.746
REMARK UNBOUND:                -0.786
REMARK  Name = 
REMARK  4 active torsions:
REMARK  status: ('A' for Active; 'I' for Inactive)
REMARK    1  A    between atoms: C_2  and  C_4
REMARK    2  A    between atoms: N_8  and  C_9
REMARK    3  A    between atoms: C_9  and  C_10
REMARK    4  A    between atoms: C_14  and  C_15
REMARK                            x       y       z     vdW  Elec       q    Type
REMARK                         _______ _______ _______ _____ _____    ______ ____
ROOT
ATOM      1  C   UNL     1      45.738   4.866  13.844  0.00  0.00    +0.000 C 
ENDROOT
BRANCH   1   6
ATOM      2  C   UNL     1      48.136   9.047  12.028  0.00  0.00    +0.000 A 
ATOM      3  C   UNL     1      46.949   8.966  12.749  0.00  0.00    +0.000 A 
ATOM      4  C   UNL     1      46.553   7.731  13.273  0.00  0.00    +0.000 A 
ATOM      5  C   UNL     1      47.337   6.603  13.059  0.00  0.00    +0.000 A 
ATOM      6  N   UNL     1      47.082   5.369  13.610  0.00  0.00    +0.000 N 
ATOM      7  N   UNL     1      48.485   6.672  12.354  0.00  0.00    +0.000 NA
ATOM      8  C   UNL     1      48.856   7.878  11.847  0.00  0.00    +0.000 A 
ATOM      9  H   UNL     1      47.742   4.709  13.212  0.00  0.00    +0.000 HD
BRANCH   2  11
ATOM     10  N   UNL     1      47.728  11.184  10.939  0.00  0.00    +0.000 N 
ATOM     11  C   UNL     1      48.647  10.303  11.438  0.00  0.00    +0.000 C 
ATOM     12  O   UNL     1      49.841  10.564  11.427  0.00  0.00    +0.000 OA
ATOM     13  H   UNL     1      48.087  12.081  10.633  0.00  0.00    +0.000 HD
ATOM     14  H   UNL     1      46.742  11.128  11.156  0.00  0.00    +0.000 HD
ENDBRANCH   2  11
ENDBRANCH   1   6
BRANCH   1  15
ATOM     15  C   UNL     1      44.881   4.771  12.595  0.00  0.00    +0.000 A 
ATOM     16  C   UNL     1      43.643   5.405  12.538  0.00  0.00    +0.000 A 
ATOM     17  C   UNL     1      42.930   5.377  11.346  0.00  0.00    +0.000 A 
ATOM     18  C   UNL     1      43.475   4.733  10.240  0.00  0.00    +0.000 A 
ATOM     19  C   UNL     1      44.726   4.129  10.349  0.00  0.00    +0.000 A 
ATOM     20  N   UNL     1      45.419   4.137  11.519  0.00  0.00    +0.000 NA
BRANCH  19  21
ATOM     21  C   UNL     1      45.406   3.479   9.208  0.00  0.00    +0.000 A 
ATOM     22  C   UNL     1      45.933   4.246   8.149  0.00  0.00    +0.000 A 
ATOM     23  C   UNL     1      46.561   3.649   7.049  0.00  0.00    +0.000 A 
ATOM     24  C   UNL     1      46.674   2.264   6.984  0.00  0.00    +0.000 A 
ATOM     25  C   UNL     1      46.160   1.494   8.017  0.00  0.00    +0.000 A 
ATOM     26  F   UNL     1      46.257   0.159   7.956  0.00  0.00    +0.000 F 
ATOM     27  C   UNL     1      45.534   2.082   9.115  0.00  0.00    +0.000 A 
ENDBRANCH  19  21
ENDBRANCH   1  15
TORSDOF 4
ENDMDL
MODEL 6
REMARK VINA RESULT:    -7.236      2.958      3.538
REMARK INTER + INTRA:          -9.715
REMARK INTER:                  -9.153
REMARK INTRA:                  -0.562
REMARK UNBOUND:                -0.786
REMARK  Name = 
REMARK  4 active torsions:
REMARK  status: ('A' for Active; 'I' for Inactive)
REMARK    1  A    between atoms: C_2  and  C_4
REMARK    2  A    between atoms: N_8  and  C_9
REMARK    3  A    between atoms: C_9  and  C_10
REMARK    4  A    between atoms: C_14  and  C_15
REMARK                            x       y       z     vdW  Elec       q    Type
REMARK                         _______ _______ _______ _____ _____    ______ ____
ROOT
ATOM      1  C   UNL     1      43.266   4.423  11.238  0.00  0.00    +0.000 C 
ENDROOT
BRANCH   1   6
ATOM      2  C   UNL     1      46.428   2.737   7.539  0.00  0.00    +0.000 A 
ATOM      3  C   UNL     1      46.070   4.044   7.853  0.00  0.00    +0.000 A 
ATOM      4  C   UNL     1      45.306   4.286   8.998  0.00  0.00    +0.000 A 
ATOM      5  C   UNL     1      44.904   3.223   9.801  0.00  0.00    +0.000 A 
ATOM      6  N   UNL     1      44.234   3.366  10.993  0.00  0.00    +0.000 N 
ATOM      7  N   UNL     1      45.240   1.952   9.499  0.00  0.00    +0.000 NA
ATOM      8  C   UNL     1      45.980   1.732   8.380  0.00  0.00    +0.000 A 
ATOM      9  H   UNL     1      43.974   2.440  11.316  0.00  0.00    +0.000 HD
BRANCH   2  11
ATOM     10  N   UNL     1      47.231   3.242   5.299  0.00  0.00    +0.000 N 
ATOM     11  C   UNL     1      47.237   2.374   6.356  0.00  0.00    +0.000 C 
ATOM     12  O   UNL     1      47.916   1.358   6.333  0.00  0.00    +0.000 OA
ATOM     13  H   UNL     1      47.869   3.029   4.541  0.00  0.00    +0.000 HD
ATOM     14  H   UNL     1      46.900   4.193   5.374  0.00  0.00    +0.000 HD
ENDBRANCH   2  11
ENDBRANCH   1   6
BRANCH   1  15
ATOM     15  C   UNL     1      43.880   5.749  11.649  0.00  0.00    +0.000 A 
ATOM     16  C   UNL     1      45.008   5.783  12.463  0.00  0.00    +0.000 A 
ATOM     17  C   UNL     1      45.599   7.010  12.738  0.00  0.00    +0.000 A 
ATOM     18  C   UNL     1      45.062   8.167  12.183  0.00  0.00    +0.000 A 
ATOM     19  C   UNL     1      43.942   8.072  11.359  0.00  0.00    +0.000 A 
ATOM     20  N   UNL     1      43.347   6.876  11.103  0.00  0.00    +0.000 NA
BRANCH  19  21
ATOM     21  C   UNL     1      43.346   9.240  10.677  0.00  0.00    +0.000 A 
ATOM     22  C   UNL     1      44.131  10.078   9.860  0.00  0.00    +0.000 A 
ATOM     23  C   UNL     1      43.591  11.202   9.222  0.00  0.00    +0.000 A 
ATOM     24  C   UNL     1      42.246  11.515   9.393  0.00  0.00    +0.000 A 
ATOM     25  C   UNL     1      41.459  10.702  10.195  0.00  0.00    +0.000 A 
ATOM     26  F   UNL     1      40.165  11.003  10.371  0.00  0.00    +0.000 F 
ATOM     27  C   UNL     1      41.991   9.582  10.831  0.00  0.00    +0.000 A 
ENDBRANCH  19  21
ENDBRANCH   1  15
TORSDOF 4
ENDMDL
MODEL 7
REMARK VINA RESULT:    -7.221      2.648      3.726
REMARK INTER + INTRA:          -9.697
REMARK INTER:                  -9.094
REMARK INTRA:                  -0.602
REMARK UNBOUND:                -0.786
REMARK  Name = 
REMARK  4 active torsions:
REMARK  status: ('A' for Active; 'I' for Inactive)
REMARK    1  A    between atoms: C_2  and  C_4
REMARK    2  A    between atoms: N_8  and  C_9
REMARK    3  A    between atoms: C_9  and  C_10
REMARK    4  A    between atoms: C_14  and  C_15
REMARK                            x       y       z     vdW  Elec       q    Type
REMARK                         _______ _______ _______ _____ _____    ______ ____
ROOT
ATOM      1  C   UNL     1      43.546   4.725  11.059  0.00  0.00    +0.000 C 
ENDROOT
BRANCH   1   6
ATOM      2  C   UNL     1      46.517   2.672   7.386  0.00  0.00    +0.000 A 
ATOM      3  C   UNL     1      46.478   3.984   7.845  0.00  0.00    +0.000 A 
ATOM      4  C   UNL     1      45.693   4.294   8.960  0.00  0.00    +0.000 A 
ATOM      5  C   UNL     1      44.954   3.296   9.587  0.00  0.00    +0.000 A 
ATOM      6  N   UNL     1      44.229   3.481  10.741  0.00  0.00    +0.000 N 
ATOM      7  N   UNL     1      44.980   2.023   9.144  0.00  0.00    +0.000 NA
ATOM      8  C   UNL     1      45.745   1.737   8.056  0.00  0.00    +0.000 A 
ATOM      9  H   UNL     1      43.710   2.628  10.921  0.00  0.00    +0.000 HD
BRANCH   2  11
ATOM     10  N   UNL     1      47.241   2.998   5.087  0.00  0.00    +0.000 N 
ATOM     11  C   UNL     1      47.318   2.239   6.222  0.00  0.00    +0.000 C 
ATOM     12  O   UNL     1      48.050   1.261   6.278  0.00  0.00    +0.000 OA
ATOM     13  H   UNL     1      47.873   2.746   4.336  0.00  0.00    +0.000 HD
ATOM     14  H   UNL     1      46.861   3.934   5.080  0.00  0.00    +0.000 HD
ENDBRANCH   2  11
ENDBRANCH   1   6
BRANCH   1  15
ATOM     15  C   UNL     1      44.449   5.806  11.626  0.00  0.00    +0.000 A 
ATOM     16  C   UNL     1      44.289   7.133  11.240  0.00  0.00    +0.000 A 
ATOM     17  C   UNL     1      45.068   8.107  11.853  0.00  0.00    +0.000 A 
ATOM     18  C   UNL     1      45.972   7.736  12.842  0.00  0.00    +0.000 A 
ATOM     19  C   UNL     1      46.077   6.393  13.201  0.00  0.00    +0.000 A 
ATOM     20  N   UNL     1      45.332   5.434  12.591  0.00  0.00    +0.000 NA
BRANCH  19  21
ATOM     21  C   UNL     1      46.964   5.920  14.286  0.00  0.00    +0.000 A 
ATOM     22  C   UNL     1      48.025   6.722  14.754  0.00  0.00    +0.000 A 
ATOM     23  C   UNL     1      48.888   6.283  15.766  0.00  0.00    +0.000 A 
ATOM     24  C   UNL     1      48.711   5.024  16.330  0.00  0.00    +0.000 A 
ATOM     25  C   UNL     1      47.673   4.221  15.879  0.00  0.00    +0.000 A 
ATOM     26  F   UNL     1      47.503   3.003  16.412  0.00  0.00    +0.000 F 
ATOM     27  C   UNL     1      46.809   4.652  14.874  0.00  0.00    +0.000 A 
ENDBRANCH  19  21
ENDBRANCH   1  15
TORSDOF 4
ENDMDL
MODEL 8
REMARK VINA RESULT:    -6.771      4.120      7.421
REMARK INTER + INTRA:          -9.140
REMARK INTER:                  -8.476
REMARK INTRA:                  -0.665
REMARK UNBOUND:                -0.786
REMARK  Name = 
REMARK  4 active torsions:
REMARK  status: ('A' for Active; 'I' for Inactive)
REMARK    1  A    between atoms: C_2  and  C_4
REMARK    2  A    between atoms: N_8  and  C_9
REMARK    3  A    between atoms: C_9  and  C_10
REMARK    4  A    between atoms: C_14  and  C_15
REMARK                            x       y       z     vdW  Elec       q    Type
REMARK                         _______ _______ _______ _____ _____    ______ ____
ROOT
ATOM      1  C   UNL     1      45.568   7.603  12.004  0.00  0.00    +0.000 C 
ENDROOT
BRANCH   1   6
ATOM      2  C   UNL     1      49.952   7.422  14.701  0.00  0.00    +0.000 A 
ATOM      3  C   UNL     1      48.716   6.862  15.006  0.00  0.00    +0.000 A 
ATOM      4  C   UNL     1      47.692   6.910  14.055  0.00  0.00    +0.000 A 
ATOM      5  C   UNL     1      47.914   7.524  12.827  0.00  0.00    +0.000 A 
ATOM      6  N   UNL     1      47.005   7.539  11.795  0.00  0.00    +0.000 N 
ATOM      7  N   UNL     1      49.107   8.076  12.526  0.00  0.00    +0.000 NA
ATOM      8  C   UNL     1      50.092   8.026  13.462  0.00  0.00    +0.000 A 
ATOM      9  H   UNL     1      47.377   8.136  11.063  0.00  0.00    +0.000 HD
BRANCH   2  11
ATOM     10  N   UNL     1      52.338   7.174  15.104  0.00  0.00    +0.000 N 
ATOM     11  C   UNL     1      51.100   7.420  15.632  0.00  0.00    +0.000 C 
ATOM     12  O   UNL     1      50.959   7.662  16.822  0.00  0.00    +0.000 OA
ATOM     13  H   UNL     1      53.123   7.278  15.737  0.00  0.00    +0.000 HD
ATOM     14  H   UNL     1      52.530   7.225  14.114  0.00  0.00    +0.000 HD
ENDBRANCH   2  11
ENDBRANCH   1   6
BRANCH   1  15
ATOM     15  C   UNL     1      44.833   6.314  11.688  0.00  0.00    +0.000 A 
ATOM     16  C   UNL     1      43.612   6.030  12.293  0.00  0.00    +0.000 A 
ATOM     17  C   UNL     1      42.922   4.887  11.906  0.00  0.00    +0.000 A 
ATOM     18  C   UNL     1      43.457   4.068  10.918  0.00  0.00    +0.000 A 
ATOM     19  C   UNL     1      44.675   4.411  10.333  0.00  0.00    +0.000 A 
ATOM     20  N   UNL     1      45.364   5.517  10.722  0.00  0.00    +0.000 NA
BRANCH  19  21
ATOM     21  C   UNL     1      45.284   3.634   9.232  0.00  0.00    +0.000 A 
ATOM     22  C   UNL     1      45.361   2.227   9.297  0.00  0.00    +0.000 A 
ATOM     23  C   UNL     1      45.952   1.475   8.275  0.00  0.00    +0.000 A 
ATOM     24  C   UNL     1      46.487   2.117   7.162  0.00  0.00    +0.000 A 
ATOM     25  C   UNL     1      46.421   3.501   7.084  0.00  0.00    +0.000 A 
ATOM     26  F   UNL     1      46.942   4.126   6.019  0.00  0.00    +0.000 F 
ATOM     27  C   UNL     1      45.832   4.255   8.097  0.00  0.00    +0.000 A 
ENDBRANCH  19  21
ENDBRANCH   1  15
TORSDOF 4
ENDMDL
MODEL 9
REMARK VINA RESULT:    -6.626      5.239      8.501
REMARK INTER + INTRA:          -8.962
REMARK INTER:                  -8.485
REMARK INTRA:                  -0.477
REMARK UNBOUND:                -0.786
REMARK  Name = 
REMARK  4 active torsions:
REMARK  status: ('A' for Active; 'I' for Inactive)
REMARK    1  A    between atoms: C_2  and  C_4
REMARK    2  A    between atoms: N_8  and  C_9
REMARK    3  A    between atoms: C_9  and  C_10
REMARK    4  A    between atoms: C_14  and  C_15
REMARK                            x       y       z     vdW  Elec       q    Type
REMARK                         _______ _______ _______ _____ _____    ______ ____
ROOT
ATOM      1  C   UNL     1      48.066   6.862  14.103  0.00  0.00    +0.000 C 
ENDROOT
BRANCH   1   6
ATOM      2  C   UNL     1      50.023   5.115  18.535  0.00  0.00    +0.000 A 
ATOM      3  C   UNL     1      49.921   6.426  18.083  0.00  0.00    +0.000 A 
ATOM      4  C   UNL     1      49.217   6.688  16.903  0.00  0.00    +0.000 A 
ATOM      5  C   UNL     1      48.640   5.641  16.193  0.00  0.00    +0.000 A 
ATOM      6  N   UNL     1      47.852   5.805  15.079  0.00  0.00    +0.000 N 
ATOM      7  N   UNL     1      48.741   4.366  16.620  0.00  0.00    +0.000 NA
ATOM      8  C   UNL     1      49.432   4.126  17.767  0.00  0.00    +0.000 A 
ATOM      9  H   UNL     1      47.650   4.885  14.702  0.00  0.00    +0.000 HD
BRANCH   2  11
ATOM     10  N   UNL     1      50.014   4.680  20.929  0.00  0.00    +0.000 N 
ATOM     11  C   UNL     1      50.739   4.732  19.770  0.00  0.00    +0.000 C 
ATOM     12  O   UNL     1      51.925   4.437  19.756  0.00  0.00    +0.000 OA
ATOM     13  H   UNL     1      50.495   4.318  21.743  0.00  0.00    +0.000 HD
ATOM     14  H   UNL     1      49.004   4.664  20.941  0.00  0.00    +0.000 HD
ENDBRANCH   2  11
ENDBRANCH   1   6
BRANCH   1  15
ATOM     15  C   UNL     1      46.889   7.103  13.175  0.00  0.00    +0.000 A 
ATOM     16  C   UNL     1      46.299   8.361  13.097  0.00  0.00    +0.000 A 
ATOM     17  C   UNL     1      45.288   8.570  12.166  0.00  0.00    +0.000 A 
ATOM     18  C   UNL     1      44.904   7.527  11.330  0.00  0.00    +0.000 A 
ATOM     19  C   UNL     1      45.542   6.293  11.440  0.00  0.00    +0.000 A 
ATOM     20  N   UNL     1      46.518   6.078  12.362  0.00  0.00    +0.000 NA
BRANCH  19  21
ATOM     21  C   UNL     1      45.242   5.152  10.549  0.00  0.00    +0.000 A 
ATOM     22  C   UNL     1      44.514   4.040  11.019  0.00  0.00    +0.000 A 
ATOM     23  C   UNL     1      44.238   2.940  10.197  0.00  0.00    +0.000 A 
ATOM     24  C   UNL     1      44.691   2.927   8.882  0.00  0.00    +0.000 A 
ATOM     25  C   UNL     1      45.411   4.013   8.404  0.00  0.00    +0.000 A 
ATOM     26  F   UNL     1      45.858   4.002   7.141  0.00  0.00    +0.000 F 
ATOM     27  C   UNL     1      45.688   5.111   9.216  0.00  0.00    +0.000 A 
ENDBRANCH  19  21
ENDBRANCH   1  15
TORSDOF 4
ENDMDL
