MODEL 1
REMARK VINA RESULT:    -7.289      0.000      0.000
REMARK INTER + INTRA:         -12.120
REMARK INTER:                 -10.698
REMARK INTRA:                  -1.422
REMARK UNBOUND:                -1.422
REMARK  Name = 
REMARK  10 active torsions:
REMARK  status: ('A' for Active; 'I' for Inactive)
REMARK    1  A    between atoms: C_1  and  C_2
REMARK    2  A    between atoms: C_2  and  C_3
REMARK    3  A    between atoms: C_3  and  N_4
REMARK    4  A    between atoms: C_3  and  C_18
REMARK    5  A    between atoms: C_5  and  C_7
REMARK    6  A    between atoms: N_13  and  C_14
REMARK    7  A    between atoms: C_21  and  C_22
REMARK    8  A    between atoms: C_22  and  N_23
REMARK    9  A    between atoms: N_23  and  C_24
REMARK   10  A    between atoms: C_24  and  N_26
REMARK                            x       y       z     vdW  Elec       q    Type
REMARK                         _______ _______ _______ _____ _____    ______ ____
ROOT
ATOM      1  C   UNL     1      48.505   8.799  12.693  0.00  0.00    +0.000 C 
ENDROOT
BRANCH   1   2
ATOM      2  C   UNL     1      47.223   8.096  12.237  0.00  0.00    +0.000 A 
ATOM      3  C   UNL     1      46.051   8.824  11.987  0.00  0.00    +0.000 A 
ATOM      4  C   UNL     1      44.851   8.170  11.654  0.00  0.00    +0.000 A 
ATOM      5  C   UNL     1      44.795   6.770  11.561  0.00  0.00    +0.000 A 
ATOM      6  C   UNL     1      45.967   6.045  11.801  0.00  0.00    +0.000 A 
ATOM      7  C   UNL     1      47.161   6.697  12.128  0.00  0.00    +0.000 A 
BRANCH   5   8
ATOM      8  C   UNL     1      43.501   6.034  11.294  0.00  0.00    +0.000 C 
BRANCH   8   9
ATOM      9  N   UNL     1      43.563   5.065  10.200  0.00  0.00    +0.000 N 
ATOM     10  H   UNL     1      42.885   5.211   9.467  0.00  0.00    +0.000 HD
BRANCH   9  11
ATOM     11  C   UNL     1      43.928   3.736  10.377  0.00  0.00    +0.000 C 
ATOM     12  S   UNL     1      43.454   2.816  11.705  0.00  0.00    +0.000 S 
BRANCH  11  13
ATOM     13  N   UNL     1      44.716   3.223   9.353  0.00  0.00    +0.000 N 
ATOM     14  C   UNL     1      44.845   1.817   8.993  0.00  0.00    +0.000 C 
ATOM     15  C   UNL     1      46.139   1.772   8.200  0.00  0.00    +0.000 C 
ATOM     16  C   UNL     1      46.127   3.085   7.426  0.00  0.00    +0.000 C 
ATOM     17  C   UNL     1      45.330   4.046   8.305  0.00  0.00    +0.000 C 
ENDBRANCH  11  13
ENDBRANCH   9  11
ENDBRANCH   8   9
ENDBRANCH   5   8
ENDBRANCH   1   2
BRANCH   1  18
ATOM     18  N   UNL     1      48.819   8.409  14.064  0.00  0.00    +0.000 N 
ATOM     19  C   UNL     1      50.076   8.089  14.506  0.00  0.00    +0.000 C 
ATOM     20  O   UNL     1      51.057   8.066  13.766  0.00  0.00    +0.000 OA
ATOM     21  H   UNL     1      48.056   8.440  14.732  0.00  0.00    +0.000 HD
BRANCH  19  22
ATOM     22  C   UNL     1      50.204   7.751  15.935  0.00  0.00    +0.000 A 
ATOM     23  C   UNL     1      51.046   8.496  16.751  0.00  0.00    +0.000 A 
ATOM     24  S   UNL     1      50.993   8.026  18.392  0.00  0.00    +0.000 S 
ATOM     25  C   UNL     1      49.841   6.812  18.058  0.00  0.00    +0.000 A 
ATOM     26  N   UNL     1      49.327   6.059  19.060  0.00  0.00    +0.000 NA
ATOM     27  C   UNL     1      48.456   5.182  18.670  0.00  0.00    +0.000 A 
ATOM     28  N   UNL     1      48.071   4.961  17.367  0.00  0.00    +0.000 N 
ATOM     29  C   UNL     1      47.156   3.881  17.045  0.00  0.00    +0.000 C 
ATOM     30  C   UNL     1      48.602   5.693  16.320  0.00  0.00    +0.000 A 
ATOM     31  O   UNL     1      48.339   5.453  15.142  0.00  0.00    +0.000 OA
ATOM     32  C   UNL     1      49.542   6.734  16.715  0.00  0.00    +0.000 A 
ENDBRANCH  19  22
ENDBRANCH   1  18
BRANCH   1  34
ATOM     33  C   UNL     1      49.068  10.875  11.289  0.00  0.00    +0.000 C 
ATOM     34  C   UNL     1      48.378  10.333  12.537  0.00  0.00    +0.000 C 
ENDBRANCH   1  34
TORSDOF 8
ENDMDL
MODEL 2
REMARK VINA RESULT:    -7.216      2.131      2.822
REMARK INTER + INTRA:         -12.014
REMARK INTER:                 -10.501
REMARK INTRA:                  -1.513
REMARK UNBOUND:                -1.422
REMARK  Name = 
REMARK  10 active torsions:
REMARK  status: ('A' for Active; 'I' for Inactive)
REMARK    1  A    between atoms: C_1  and  C_2
REMARK    2  A    between atoms: C_2  and  C_3
REMARK    3  A    between atoms: C_3  and  N_4
REMARK    4  A    between atoms: C_3  and  C_18
REMARK    5  A    between atoms: C_5  and  C_7
REMARK    6  A    between atoms: N_13  and  C_14
REMARK    7  A    between atoms: C_21  and  C_22
REMARK    8  A    between atoms: C_22  and  N_23
REMARK    9  A    between atoms: N_23  and  C_24
REMARK   10  A    between atoms: C_24  and  N_26
REMARK                            x       y       z     vdW  Elec       q    Type
REMARK                         _______ _______ _______ _____ _____    ______ ____
ROOT
ATOM      1  C   UNL     1      48.619   6.934  14.061  0.00  0.00    +0.000 C 
ENDROOT
BRANCH   1   2
ATOM      2  C   UNL     1      47.365   6.573  13.260  0.00  0.00    +0.000 A 
ATOM      3  C   UNL     1      47.125   7.141  12.000  0.00  0.00    +0.000 A 
ATOM      4  C   UNL     1      45.930   6.877  11.305  0.00  0.00    +0.000 A 
ATOM      5  C   UNL     1      44.947   6.038  11.852  0.00  0.00    +0.000 A 
ATOM      6  C   UNL     1      45.191   5.466  13.105  0.00  0.00    +0.000 A 
ATOM      7  C   UNL     1      46.381   5.723  13.794  0.00  0.00    +0.000 A 
BRANCH   5   8
ATOM      8  C   UNL     1      43.617   5.809  11.170  0.00  0.00    +0.000 C 
BRANCH   8   9
ATOM      9  N   UNL     1      43.658   4.868  10.052  0.00  0.00    +0.000 N 
ATOM     10  H   UNL     1      42.967   5.034   9.334  0.00  0.00    +0.000 HD
BRANCH   9  11
ATOM     11  C   UNL     1      44.022   3.534  10.188  0.00  0.00    +0.000 C 
ATOM     12  S   UNL     1      43.503   2.558  11.458  0.00  0.00    +0.000 S 
BRANCH  11  13
ATOM     13  N   UNL     1      44.853   3.066   9.176  0.00  0.00    +0.000 N 
ATOM     14  C   UNL     1      45.057   1.671   8.811  0.00  0.00    +0.000 C 
ATOM     15  C   UNL     1      46.366   1.694   8.040  0.00  0.00    +0.000 C 
ATOM     16  C   UNL     1      46.303   3.010   7.274  0.00  0.00    +0.000 C 
ATOM     17  C   UNL     1      45.445   3.925   8.143  0.00  0.00    +0.000 C 
ENDBRANCH  11  13
ENDBRANCH   9  11
ENDBRANCH   8   9
ENDBRANCH   5   8
ENDBRANCH   1   2
BRANCH   1  18
ATOM     18  N   UNL     1      48.365   6.745  15.485  0.00  0.00    +0.000 N 
ATOM     19  C   UNL     1      49.322   6.389  16.399  0.00  0.00    +0.000 C 
ATOM     20  O   UNL     1      50.488   6.157  16.087  0.00  0.00    +0.000 OA
ATOM     21  H   UNL     1      47.427   6.953  15.811  0.00  0.00    +0.000 HD
BRANCH  19  22
ATOM     22  C   UNL     1      48.884   6.278  17.801  0.00  0.00    +0.000 A 
ATOM     23  C   UNL     1      49.036   5.077  18.482  0.00  0.00    +0.000 A 
ATOM     24  S   UNL     1      48.566   5.160  20.122  0.00  0.00    +0.000 S 
ATOM     25  C   UNL     1      48.147   6.807  19.969  0.00  0.00    +0.000 A 
ATOM     26  N   UNL     1      47.713   7.508  21.044  0.00  0.00    +0.000 NA
ATOM     27  C   UNL     1      47.438   8.749  20.791  0.00  0.00    +0.000 A 
ATOM     28  N   UNL     1      47.524   9.353  19.558  0.00  0.00    +0.000 N 
ATOM     29  C   UNL     1      47.097  10.729  19.382  0.00  0.00    +0.000 C 
ATOM     30  C   UNL     1      47.936   8.655  18.436  0.00  0.00    +0.000 A 
ATOM     31  O   UNL     1      47.936   9.150  17.310  0.00  0.00    +0.000 OA
ATOM     32  C   UNL     1      48.314   7.269  18.682  0.00  0.00    +0.000 A 
ENDBRANCH  19  22
ENDBRANCH   1  18
BRANCH   1  34
ATOM     33  C   UNL     1      50.560   8.462  13.357  0.00  0.00    +0.000 C 
ATOM     34  C   UNL     1      49.085   8.373  13.736  0.00  0.00    +0.000 C 
ENDBRANCH   1  34
TORSDOF 8
ENDMDL
MODEL 3
REMARK VINA RESULT:    -6.995      2.138      8.152
REMARK INTER + INTRA:         -11.689
REMARK INTER:                 -10.089
REMARK INTRA:                  -1.600
REMARK UNBOUND:                -1.422
REMARK  Name = 
REMARK  10 active torsions:
REMARK  status: ('A' for Active; 'I' for Inactive)
REMARK    1  A    between atoms: C_1  and  C_2
REMARK    2  A    between atoms: C_2  and  C_3
REMARK    3  A    between atoms: C_3  and  N_4
REMARK    4  A    between atoms: C_3  and  C_18
REMARK    5  A    between atoms: C_5  and  C_7
REMARK    6  A    between atoms: N_13  and  C_14
REMARK    7  A    between atoms: C_21  and  C_22
REMARK    8  A    between atoms: C_22  and  N_23
REMARK    9  A    between atoms: N_23  and  C_24
REMARK   10  A    between atoms: C_24  and  N_26
REMARK                            x       y       z     vdW  Elec       q    Type
REMARK                         _______ _______ _______ _____ _____    ______ ____
ROOT
ATOM      1  C   UNL     1      47.458   8.067  12.698  0.00  0.00    +0.000 C 
ENDROOT
BRANCH   1   2
ATOM      2  C   UNL     1      48.148   8.037  14.065  0.00  0.00    +0.000 A 
ATOM      3  C   UNL     1      49.048   7.014  14.397  0.00  0.00    +0.000 A 
ATOM      4  C   UNL     1      49.613   6.938  15.682  0.00  0.00    +0.000 A 
ATOM      5  C   UNL     1      49.293   7.885  16.669  0.00  0.00    +0.000 A 
ATOM      6  C   UNL     1      48.402   8.910  16.334  0.00  0.00    +0.000 A 
ATOM      7  C   UNL     1      47.844   8.989  15.053  0.00  0.00    +0.000 A 
BRANCH   5   8
ATOM      8  C   UNL     1      49.814   7.778  18.084  0.00  0.00    +0.000 C 
BRANCH   8   9
ATOM      9  N   UNL     1      48.974   6.992  18.987  0.00  0.00    +0.000 N 
ATOM     10  H   UNL     1      48.518   7.526  19.712  0.00  0.00    +0.000 HD
BRANCH   9  11
ATOM     11  C   UNL     1      49.256   5.679  19.344  0.00  0.00    +0.000 C 
ATOM     12  S   UNL     1      50.116   5.261  20.729  0.00  0.00    +0.000 S 
BRANCH  11  13
ATOM     13  N   UNL     1      48.757   4.730  18.458  0.00  0.00    +0.000 N 
ATOM     14  C   UNL     1      47.425   4.723  17.870  0.00  0.00    +0.000 C 
ATOM     15  C   UNL     1      47.246   3.284  17.416  0.00  0.00    +0.000 C 
ATOM     16  C   UNL     1      48.637   2.888  16.936  0.00  0.00    +0.000 C 
ATOM     17  C   UNL     1      49.592   3.738  17.770  0.00  0.00    +0.000 C 
ENDBRANCH  11  13
ENDBRANCH   9  11
ENDBRANCH   8   9
ENDBRANCH   5   8
ENDBRANCH   1   2
BRANCH   1  18
ATOM     18  N   UNL     1      46.733   6.819  12.485  0.00  0.00    +0.000 N 
ATOM     19  C   UNL     1      45.539   6.724  11.819  0.00  0.00    +0.000 C 
ATOM     20  O   UNL     1      44.947   7.702  11.369  0.00  0.00    +0.000 OA
ATOM     21  H   UNL     1      47.186   5.969  12.806  0.00  0.00    +0.000 HD
BRANCH  19  22
ATOM     22  C   UNL     1      44.973   5.371  11.674  0.00  0.00    +0.000 A 
ATOM     23  C   UNL     1      44.267   4.798  12.724  0.00  0.00    +0.000 A 
ATOM     24  S   UNL     1      43.600   3.273  12.344  0.00  0.00    +0.000 S 
ATOM     25  C   UNL     1      44.235   3.335  10.762  0.00  0.00    +0.000 A 
ATOM     26  N   UNL     1      43.980   2.338   9.880  0.00  0.00    +0.000 NA
ATOM     27  C   UNL     1      44.515   2.515   8.713  0.00  0.00    +0.000 A 
ATOM     28  N   UNL     1      45.308   3.578   8.348  0.00  0.00    +0.000 N 
ATOM     29  C   UNL     1      45.929   3.616   7.036  0.00  0.00    +0.000 C 
ATOM     30  C   UNL     1      45.611   4.595   9.236  0.00  0.00    +0.000 A 
ATOM     31  O   UNL     1      46.388   5.508   8.959  0.00  0.00    +0.000 OA
ATOM     32  C   UNL     1      44.983   4.472  10.545  0.00  0.00    +0.000 A 
ENDBRANCH  19  22
ENDBRANCH   1  18
BRANCH   1  34
ATOM     33  C   UNL     1      48.969   9.794  11.544  0.00  0.00    +0.000 C 
ATOM     34  C   UNL     1      48.479   8.349  11.571  0.00  0.00    +0.000 C 
ENDBRANCH   1  34
TORSDOF 8
ENDMDL
MODEL 4
REMARK VINA RESULT:    -6.239      4.306      8.034
REMARK INTER + INTRA:         -10.579
REMARK INTER:                  -9.815
REMARK INTRA:                  -0.765
REMARK UNBOUND:                -1.422
REMARK  Name = 
REMARK  10 active torsions:
REMARK  status: ('A' for Active; 'I' for Inactive)
REMARK    1  A    between atoms: C_1  and  C_2
REMARK    2  A    between atoms: C_2  and  C_3
REMARK    3  A    between atoms: C_3  and  N_4
REMARK    4  A    between atoms: C_3  and  C_18
REMARK    5  A    between atoms: C_5  and  C_7
REMARK    6  A    between atoms: N_13  and  C_14
REMARK    7  A    between atoms: C_21  and  C_22
REMARK    8  A    between atoms: C_22  and  N_23
REMARK    9  A    between atoms: N_23  and  C_24
REMARK   10  A    between atoms: C_24  and  N_26
REMARK                            x       y       z     vdW  Elec       q    Type
REMARK                         _______ _______ _______ _____ _____    ______ ____
ROOT
ATOM      1  C   UNL     1      45.771   8.292  12.117  0.00  0.00    +0.000 C 
ENDROOT
BRANCH   1   2
ATOM      2  C   UNL     1      47.280   8.535  12.020  0.00  0.00    +0.000 A 
ATOM      3  C   UNL     1      47.810   9.830  12.112  0.00  0.00    +0.000 A 
ATOM      4  C   UNL     1      49.185  10.062  11.933  0.00  0.00    +0.000 A 
ATOM      5  C   UNL     1      50.066   9.004  11.660  0.00  0.00    +0.000 A 
ATOM      6  C   UNL     1      49.538   7.711  11.577  0.00  0.00    +0.000 A 
ATOM      7  C   UNL     1      48.170   7.480  11.759  0.00  0.00    +0.000 A 
BRANCH   5   8
ATOM      8  C   UNL     1      51.534   9.233  11.374  0.00  0.00    +0.000 C 
BRANCH   8   9
ATOM      9  N   UNL     1      52.195   8.143  10.660  0.00  0.00    +0.000 N 
ATOM     10  H   UNL     1      52.704   7.499  11.248  0.00  0.00    +0.000 HD
BRANCH   9  11
ATOM     11  C   UNL     1      52.720   8.275   9.381  0.00  0.00    +0.000 C 
ATOM     12  S   UNL     1      52.983   9.763   8.638  0.00  0.00    +0.000 S 
BRANCH  11  13
ATOM     13  N   UNL     1      53.019   7.066   8.761  0.00  0.00    +0.000 N 
ATOM     14  C   UNL     1      53.614   5.900   9.401  0.00  0.00    +0.000 C 
ATOM     15  C   UNL     1      54.163   5.098   8.233  0.00  0.00    +0.000 C 
ATOM     16  C   UNL     1      53.128   5.314   7.136  0.00  0.00    +0.000 C 
ATOM     17  C   UNL     1      52.532   6.688   7.430  0.00  0.00    +0.000 C 
ENDBRANCH  11  13
ENDBRANCH   9  11
ENDBRANCH   8   9
ENDBRANCH   5   8
ENDBRANCH   1   2
BRANCH   1  18
ATOM     18  N   UNL     1      45.482   6.883  11.873  0.00  0.00    +0.000 N 
ATOM     19  C   UNL     1      44.256   6.400  11.500  0.00  0.00    +0.000 C 
ATOM     20  O   UNL     1      43.267   7.118  11.373  0.00  0.00    +0.000 OA
ATOM     21  H   UNL     1      46.267   6.241  11.931  0.00  0.00    +0.000 HD
BRANCH  19  22
ATOM     22  C   UNL     1      44.164   4.947  11.266  0.00  0.00    +0.000 A 
ATOM     23  C   UNL     1      43.442   4.148  12.143  0.00  0.00    +0.000 A 
ATOM     24  S   UNL     1      43.361   2.512  11.663  0.00  0.00    +0.000 S 
ATOM     25  C   UNL     1      44.289   2.825  10.265  0.00  0.00    +0.000 A 
ATOM     26  N   UNL     1      44.548   1.836   9.377  0.00  0.00    +0.000 NA
ATOM     27  C   UNL     1      45.255   2.211   8.358  0.00  0.00    +0.000 A 
ATOM     28  N   UNL     1      45.759   3.475   8.155  0.00  0.00    +0.000 N 
ATOM     29  C   UNL     1      46.620   3.750   7.019  0.00  0.00    +0.000 C 
ATOM     30  C   UNL     1      45.537   4.498   9.061  0.00  0.00    +0.000 A 
ATOM     31  O   UNL     1      46.051   5.610   8.944  0.00  0.00    +0.000 OA
ATOM     32  C   UNL     1      44.695   4.140  10.195  0.00  0.00    +0.000 A 
ENDBRANCH  19  22
ENDBRANCH   1  18
BRANCH   1  34
ATOM     33  C   UNL     1      44.356  10.419  11.846  0.00  0.00    +0.000 C 
ATOM     34  C   UNL     1      44.999   9.222  11.152  0.00  0.00    +0.000 C 
ENDBRANCH   1  34
TORSDOF 8
ENDMDL
MODEL 5
REMARK VINA RESULT:    -6.161      3.719      5.768
REMARK INTER + INTRA:         -10.465
REMARK INTER:                  -9.117
REMARK INTRA:                  -1.348
REMARK UNBOUND:                -1.422
REMARK  Name = 
REMARK  10 active torsions:
REMARK  status: ('A' for Active; 'I' for Inactive)
REMARK    1  A    between atoms: C_1  and  C_2
REMARK    2  A    between atoms: C_2  and  C_3
REMARK    3  A    between atoms: C_3  and  N_4
REMARK    4  A    between atoms: C_3  and  C_18
REMARK    5  A    between atoms: C_5  and  C_7
REMARK    6  A    between atoms: N_13  and  C_14
REMARK    7  A    between atoms: C_21  and  C_22
REMARK    8  A    between atoms: C_22  and  N_23
REMARK    9  A    between atoms: N_23  and  C_24
REMARK   10  A    between atoms: C_24  and  N_26
REMARK                            x       y       z     vdW  Elec       q    Type
REMARK                         _______ _______ _______ _____ _____    ______ ____
ROOT
ATOM      1  C   UNL     1      49.021   9.217  12.774  0.00  0.00    +0.000 C 
ENDROOT
BRANCH   1   2
ATOM      2  C   UNL     1      47.717   8.534  12.356  0.00  0.00    +0.000 A 
ATOM      3  C   UNL     1      46.473   9.119  12.634  0.00  0.00    +0.000 A 
ATOM      4  C   UNL     1      45.275   8.450  12.329  0.00  0.00    +0.000 A 
ATOM      5  C   UNL     1      45.290   7.177  11.735  0.00  0.00    +0.000 A 
ATOM      6  C   UNL     1      46.531   6.598  11.450  0.00  0.00    +0.000 A 
ATOM      7  C   UNL     1      47.723   7.266  11.749  0.00  0.00    +0.000 A 
BRANCH   5   8
ATOM      8  C   UNL     1      44.021   6.395  11.478  0.00  0.00    +0.000 C 
BRANCH   8   9
ATOM      9  N   UNL     1      44.087   5.480  10.340  0.00  0.00    +0.000 N 
ATOM     10  H   UNL     1      43.598   5.794   9.515  0.00  0.00    +0.000 HD
BRANCH   9  11
ATOM     11  C   UNL     1      44.141   4.098  10.474  0.00  0.00    +0.000 C 
ATOM     12  S   UNL     1      43.414   3.262  11.743  0.00  0.00    +0.000 S 
BRANCH  11  13
ATOM     13  N   UNL     1      44.842   3.455   9.460  0.00  0.00    +0.000 N 
ATOM     14  C   UNL     1      44.745   2.044   9.111  0.00  0.00    +0.000 C 
ATOM     15  C   UNL     1      46.020   1.785   8.327  0.00  0.00    +0.000 C 
ATOM     16  C   UNL     1      46.225   3.076   7.545  0.00  0.00    +0.000 C 
ATOM     17  C   UNL     1      45.588   4.160   8.410  0.00  0.00    +0.000 C 
ENDBRANCH  11  13
ENDBRANCH   9  11
ENDBRANCH   8   9
ENDBRANCH   5   8
ENDBRANCH   1   2
BRANCH   1  18
ATOM     18  N   UNL     1      49.887   9.382  11.611  0.00  0.00    +0.000 N 
ATOM     19  C   UNL     1      50.820  10.377  11.478  0.00  0.00    +0.000 C 
ATOM     20  O   UNL     1      50.984  11.254  12.323  0.00  0.00    +0.000 OA
ATOM     21  H   UNL     1      49.821   8.670  10.891  0.00  0.00    +0.000 HD
BRANCH  19  22
ATOM     22  C   UNL     1      51.625  10.362  10.243  0.00  0.00    +0.000 A 
ATOM     23  C   UNL     1      51.743  11.515   9.478  0.00  0.00    +0.000 A 
ATOM     24  S   UNL     1      52.791  11.340   8.142  0.00  0.00    +0.000 S 
ATOM     25  C   UNL     1      53.121   9.717   8.550  0.00  0.00    +0.000 A 
ATOM     26  N   UNL     1      54.002   8.990   7.821  0.00  0.00    +0.000 NA
ATOM     27  C   UNL     1      54.165   7.776   8.244  0.00  0.00    +0.000 A 
ATOM     28  N   UNL     1      53.508   7.204   9.308  0.00  0.00    +0.000 N 
ATOM     29  C   UNL     1      53.706   5.802   9.628  0.00  0.00    +0.000 C 
ATOM     30  C   UNL     1      52.579   7.912  10.052  0.00  0.00    +0.000 A 
ATOM     31  O   UNL     1      51.917   7.394  10.951  0.00  0.00    +0.000 OA
ATOM     32  C   UNL     1      52.405   9.302   9.652  0.00  0.00    +0.000 A 
ENDBRANCH  19  22
ENDBRANCH   1  18
BRANCH   1  34
ATOM     33  C   UNL     1      49.730   9.177  15.243  0.00  0.00    +0.000 C 
ATOM     34  C   UNL     1      49.715   8.431  13.912  0.00  0.00    +0.000 C 
ENDBRANCH   1  34
TORSDOF 8
ENDMDL
MODEL 6
REMARK VINA RESULT:    -5.947      3.133      4.914
REMARK INTER + INTRA:         -10.151
REMARK INTER:                  -8.836
REMARK INTRA:                  -1.316
REMARK UNBOUND:                -1.422
REMARK  Name = 
REMARK  10 active torsions:
REMARK  status: ('A' for Active; 'I' for Inactive)
REMARK    1  A    between atoms: C_1  and  C_2
REMARK    2  A    between atoms: C_2  and  C_3
REMARK    3  A    between atoms: C_3  and  N_4
REMARK    4  A    between atoms: C_3  and  C_18
REMARK    5  A    between atoms: C_5  and  C_7
REMARK    6  A    between atoms: N_13  and  C_14
REMARK    7  A    between atoms: C_21  and  C_22
REMARK    8  A    between atoms: C_22  and  N_23
REMARK    9  A    between atoms: N_23  and  C_24
REMARK   10  A    between atoms: C_24  and  N_26
REMARK                            x       y       z     vdW  Elec       q    Type
REMARK                         _______ _______ _______ _____ _____    ______ ____
ROOT
ATOM      1  C   UNL     1      49.274   7.680  15.143  0.00  0.00    +0.000 C 
ENDROOT
BRANCH   1   2
ATOM      2  C   UNL     1      48.221   7.492  14.049  0.00  0.00    +0.000 A 
ATOM      3  C   UNL     1      47.364   8.541  13.683  0.00  0.00    +0.000 A 
ATOM      4  C   UNL     1      46.339   8.341  12.741  0.00  0.00    +0.000 A 
ATOM      5  C   UNL     1      46.146   7.087  12.139  0.00  0.00    +0.000 A 
ATOM      6  C   UNL     1      47.006   6.044  12.498  0.00  0.00    +0.000 A 
ATOM      7  C   UNL     1      48.029   6.244  13.432  0.00  0.00    +0.000 A 
BRANCH   5   8
ATOM      8  C   UNL     1      44.997   6.819  11.192  0.00  0.00    +0.000 C 
BRANCH   8   9
ATOM      9  N   UNL     1      45.260   5.787  10.191  0.00  0.00    +0.000 N 
ATOM     10  H   UNL     1      45.479   6.137   9.270  0.00  0.00    +0.000 HD
BRANCH   9  11
ATOM     11  C   UNL     1      44.633   4.547  10.190  0.00  0.00    +0.000 C 
ATOM     12  S   UNL     1      43.354   4.155  11.213  0.00  0.00    +0.000 S 
BRANCH  11  13
ATOM     13  N   UNL     1      45.148   3.650   9.259  0.00  0.00    +0.000 N 
ATOM     14  C   UNL     1      44.839   2.229   9.177  0.00  0.00    +0.000 C 
ATOM     15  C   UNL     1      45.991   1.664   8.363  0.00  0.00    +0.000 C 
ATOM     16  C   UNL     1      46.283   2.764   7.349  0.00  0.00    +0.000 C 
ATOM     17  C   UNL     1      45.874   4.057   8.050  0.00  0.00    +0.000 C 
ENDBRANCH  11  13
ENDBRANCH   9  11
ENDBRANCH   8   9
ENDBRANCH   5   8
ENDBRANCH   1   2
BRANCH   1  18
ATOM     18  N   UNL     1      50.608   7.660  14.552  0.00  0.00    +0.000 N 
ATOM     19  C   UNL     1      51.234   8.758  14.023  0.00  0.00    +0.000 C 
ATOM     20  O   UNL     1      50.703   9.864  13.964  0.00  0.00    +0.000 OA
ATOM     21  H   UNL     1      51.113   6.781  14.599  0.00  0.00    +0.000 HD
BRANCH  19  22
ATOM     22  C   UNL     1      52.596   8.549  13.499  0.00  0.00    +0.000 A 
ATOM     23  C   UNL     1      53.694   8.734  14.329  0.00  0.00    +0.000 A 
ATOM     24  S   UNL     1      55.183   8.353  13.584  0.00  0.00    +0.000 S 
ATOM     25  C   UNL     1      54.401   7.927  12.128  0.00  0.00    +0.000 A 
ATOM     26  N   UNL     1      55.114   7.456  11.077  0.00  0.00    +0.000 NA
ATOM     27  C   UNL     1      54.397   7.163  10.039  0.00  0.00    +0.000 A 
ATOM     28  N   UNL     1      53.034   7.325   9.936  0.00  0.00    +0.000 N 
ATOM     29  C   UNL     1      52.354   7.049   8.683  0.00  0.00    +0.000 C 
ATOM     30  C   UNL     1      52.283   7.832  10.981  0.00  0.00    +0.000 A 
ATOM     31  O   UNL     1      51.080   8.068  10.880  0.00  0.00    +0.000 OA
ATOM     32  C   UNL     1      53.038   8.121  12.194  0.00  0.00    +0.000 A 
ENDBRANCH  19  22
ENDBRANCH   1  18
BRANCH   1  34
ATOM     33  C   UNL     1      50.439   6.078  16.779  0.00  0.00    +0.000 C 
ATOM     34  C   UNL     1      49.111   6.616  16.254  0.00  0.00    +0.000 C 
ENDBRANCH   1  34
TORSDOF 8
ENDMDL
MODEL 7
REMARK VINA RESULT:    -5.942      2.599      8.534
REMARK INTER + INTRA:         -10.144
REMARK INTER:                  -8.872
REMARK INTRA:                  -1.271
REMARK UNBOUND:                -1.422
REMARK  Name = 
REMARK  10 active torsions:
REMARK  status: ('A' for Active; 'I' for Inactive)
REMARK    1  A    between atoms: C_1  and  C_2
REMARK    2  A    between atoms: C_2  and  C_3
REMARK    3  A    between atoms: C_3  and  N_4
REMARK    4  A    between atoms: C_3  and  C_18
REMARK    5  A    between atoms: C_5  and  C_7
REMARK    6  A    between atoms: N_13  and  C_14
REMARK    7  A    between atoms: C_21  and  C_22
REMARK    8  A    between atoms: C_22  and  N_23
REMARK    9  A    between atoms: N_23  and  C_24
REMARK   10  A    between atoms: C_24  and  N_26
REMARK                            x       y       z     vdW  Elec       q    Type
REMARK                         _______ _______ _______ _____ _____    ______ ____
ROOT
ATOM      1  C   UNL     1      45.564   8.233  12.299  0.00  0.00    +0.000 C 
ENDROOT
BRANCH   1   2
ATOM      2  C   UNL     1      47.067   8.472  12.475  0.00  0.00    +0.000 A 
ATOM      3  C   UNL     1      48.007   7.671  11.811  0.00  0.00    +0.000 A 
ATOM      4  C   UNL     1      49.385   7.833  12.041  0.00  0.00    +0.000 A 
ATOM      5  C   UNL     1      49.858   8.803  12.940  0.00  0.00    +0.000 A 
ATOM      6  C   UNL     1      48.919   9.607  13.594  0.00  0.00    +0.000 A 
ATOM      7  C   UNL     1      47.548   9.449  13.362  0.00  0.00    +0.000 A 
BRANCH   5   8
ATOM      8  C   UNL     1      51.326   8.940  13.275  0.00  0.00    +0.000 C 
BRANCH   8   9
ATOM      9  N   UNL     1      51.912   7.779  13.941  0.00  0.00    +0.000 N 
ATOM     10  H   UNL     1      51.693   6.891  13.513  0.00  0.00    +0.000 HD
BRANCH   9  11
ATOM     11  C   UNL     1      52.121   7.709  15.313  0.00  0.00    +0.000 C 
ATOM     12  S   UNL     1      53.649   7.602  16.012  0.00  0.00    +0.000 S 
BRANCH  11  13
ATOM     13  N   UNL     1      50.953   7.744  16.068  0.00  0.00    +0.000 N 
ATOM     14  C   UNL     1      50.489   8.863  16.876  0.00  0.00    +0.000 C 
ATOM     15  C   UNL     1      49.497   8.222  17.831  0.00  0.00    +0.000 C 
ATOM     16  C   UNL     1      48.821   7.155  16.978  0.00  0.00    +0.000 C 
ATOM     17  C   UNL     1      49.875   6.756  15.949  0.00  0.00    +0.000 C 
ENDBRANCH  11  13
ENDBRANCH   9  11
ENDBRANCH   8   9
ENDBRANCH   5   8
ENDBRANCH   1   2
BRANCH   1  18
ATOM     18  N   UNL     1      45.320   6.825  12.007  0.00  0.00    +0.000 N 
ATOM     19  C   UNL     1      44.131   6.328  11.541  0.00  0.00    +0.000 C 
ATOM     20  O   UNL     1      43.139   7.031  11.363  0.00  0.00    +0.000 OA
ATOM     21  H   UNL     1      46.112   6.197  12.103  0.00  0.00    +0.000 HD
BRANCH  19  22
ATOM     22  C   UNL     1      44.084   4.880  11.271  0.00  0.00    +0.000 A 
ATOM     23  C   UNL     1      43.360   4.042  12.109  0.00  0.00    +0.000 A 
ATOM     24  S   UNL     1      43.336   2.415  11.589  0.00  0.00    +0.000 S 
ATOM     25  C   UNL     1      44.291   2.786  10.224  0.00  0.00    +0.000 A 
ATOM     26  N   UNL     1      44.598   1.826   9.319  0.00  0.00    +0.000 NA
ATOM     27  C   UNL     1      45.321   2.244   8.329  0.00  0.00    +0.000 A 
ATOM     28  N   UNL     1      45.797   3.525   8.169  0.00  0.00    +0.000 N 
ATOM     29  C   UNL     1      46.679   3.850   7.063  0.00  0.00    +0.000 C 
ATOM     30  C   UNL     1      45.525   4.520   9.093  0.00  0.00    +0.000 A 
ATOM     31  O   UNL     1      46.012   5.647   9.016  0.00  0.00    +0.000 OA
ATOM     32  C   UNL     1      44.664   4.113  10.195  0.00  0.00    +0.000 A 
ENDBRANCH  19  22
ENDBRANCH   1  18
BRANCH   1  34
ATOM     33  C   UNL     1      44.341  10.431  11.775  0.00  0.00    +0.000 C 
ATOM     34  C   UNL     1      44.981   9.166  11.211  0.00  0.00    +0.000 C 
ENDBRANCH   1  34
TORSDOF 8
ENDMDL
MODEL 8
REMARK VINA RESULT:    -5.883      1.644      2.150
REMARK INTER + INTRA:         -10.057
REMARK INTER:                  -9.082
REMARK INTRA:                  -0.975
REMARK UNBOUND:                -1.422
REMARK  Name = 
REMARK  10 active torsions:
REMARK  status: ('A' for Active; 'I' for Inactive)
REMARK    1  A    between atoms: C_1  and  C_2
REMARK    2  A    between atoms: C_2  and  C_3
REMARK    3  A    between atoms: C_3  and  N_4
REMARK    4  A    between atoms: C_3  and  C_18
REMARK    5  A    between atoms: C_5  and  C_7
REMARK    6  A    between atoms: N_13  and  C_14
REMARK    7  A    between atoms: C_21  and  C_22
REMARK    8  A    between atoms: C_22  and  N_23
REMARK    9  A    between atoms: N_23  and  C_24
REMARK   10  A    between atoms: C_24  and  N_26
REMARK                            x       y       z     vdW  Elec       q    Type
REMARK                         _______ _______ _______ _____ _____    ______ ____
ROOT
ATOM      1  C   UNL     1      50.189   8.986  14.469  0.00  0.00    +0.000 C 
ENDROOT
BRANCH   1   2
ATOM      2  C   UNL     1      49.056   8.455  13.586  0.00  0.00    +0.000 A 
ATOM      3  C   UNL     1      47.995   9.285  13.196  0.00  0.00    +0.000 A 
ATOM      4  C   UNL     1      46.911   8.774  12.460  0.00  0.00    +0.000 A 
ATOM      5  C   UNL     1      46.861   7.419  12.095  0.00  0.00    +0.000 A 
ATOM      6  C   UNL     1      47.924   6.594  12.478  0.00  0.00    +0.000 A 
ATOM      7  C   UNL     1      49.006   7.103  13.205  0.00  0.00    +0.000 A 
BRANCH   5   8
ATOM      8  C   UNL     1      45.668   6.822  11.384  0.00  0.00    +0.000 C 
BRANCH   8   9
ATOM      9  N   UNL     1      45.616   5.361  11.398  0.00  0.00    +0.000 N 
ATOM     10  H   UNL     1      46.514   4.905  11.335  0.00  0.00    +0.000 HD
BRANCH   9  11
ATOM     11  C   UNL     1      44.570   4.628  10.850  0.00  0.00    +0.000 C 
ATOM     12  S   UNL     1      42.987   4.708  11.417  0.00  0.00    +0.000 S 
BRANCH  11  13
ATOM     13  N   UNL     1      44.941   3.823   9.778  0.00  0.00    +0.000 N 
ATOM     14  C   UNL     1      44.563   2.430   9.583  0.00  0.00    +0.000 C 
ATOM     15  C   UNL     1      45.594   1.920   8.590  0.00  0.00    +0.000 C 
ATOM     16  C   UNL     1      45.822   3.114   7.670  0.00  0.00    +0.000 C 
ATOM     17  C   UNL     1      45.548   4.335   8.544  0.00  0.00    +0.000 C 
ENDBRANCH  11  13
ENDBRANCH   9  11
ENDBRANCH   8   9
ENDBRANCH   5   8
ENDBRANCH   1   2
BRANCH   1  18
ATOM     18  N   UNL     1      50.156   8.322  15.767  0.00  0.00    +0.000 N 
ATOM     19  C   UNL     1      49.182   8.521  16.710  0.00  0.00    +0.000 C 
ATOM     20  O   UNL     1      48.258   9.317  16.558  0.00  0.00    +0.000 OA
ATOM     21  H   UNL     1      50.875   7.628  15.941  0.00  0.00    +0.000 HD
BRANCH  19  22
ATOM     22  C   UNL     1      49.298   7.734  17.952  0.00  0.00    +0.000 A 
ATOM     23  C   UNL     1      49.585   8.371  19.152  0.00  0.00    +0.000 A 
ATOM     24  S   UNL     1      49.584   7.320  20.497  0.00  0.00    +0.000 S 
ATOM     25  C   UNL     1      49.195   5.981  19.513  0.00  0.00    +0.000 A 
ATOM     26  N   UNL     1      48.997   4.759  20.063  0.00  0.00    +0.000 NA
ATOM     27  C   UNL     1      48.700   3.834  19.204  0.00  0.00    +0.000 A 
ATOM     28  N   UNL     1      48.614   4.005  17.842  0.00  0.00    +0.000 N 
ATOM     29  C   UNL     1      48.367   2.868  16.973  0.00  0.00    +0.000 C 
ATOM     30  C   UNL     1      48.842   5.234  17.249  0.00  0.00    +0.000 A 
ATOM     31  O   UNL     1      48.857   5.389  16.028  0.00  0.00    +0.000 OA
ATOM     32  C   UNL     1      49.120   6.320  18.179  0.00  0.00    +0.000 A 
ENDBRANCH  19  22
ENDBRANCH   1  18
BRANCH   1  34
ATOM     33  C   UNL     1      51.296  11.134  15.343  0.00  0.00    +0.000 C 
ATOM     34  C   UNL     1      50.111  10.526  14.597  0.00  0.00    +0.000 C 
ENDBRANCH   1  34
TORSDOF 8
ENDMDL
MODEL 9
REMARK VINA RESULT:    -5.065      3.084      5.054
REMARK INTER + INTRA:          -8.856
REMARK INTER:                  -8.177
REMARK INTRA:                  -0.679
REMARK UNBOUND:                -1.422
REMARK  Name = 
REMARK  10 active torsions:
REMARK  status: ('A' for Active; 'I' for Inactive)
REMARK    1  A    between atoms: C_1  and  C_2
REMARK    2  A    between atoms: C_2  and  C_3
REMARK    3  A    between atoms: C_3  and  N_4
REMARK    4  A    between atoms: C_3  and  C_18
REMARK    5  A    between atoms: C_5  and  C_7
REMARK    6  A    between atoms: N_13  and  C_14
REMARK    7  A    between atoms: C_21  and  C_22
REMARK    8  A    between atoms: C_22  and  N_23
REMARK    9  A    between atoms: N_23  and  C_24
REMARK   10  A    between atoms: C_24  and  N_26
REMARK                            x       y       z     vdW  Elec       q    Type
REMARK                         _______ _______ _______ _____ _____    ______ ____
ROOT
ATOM      1  C   UNL     1      47.664   9.243  13.655  0.00  0.00    +0.000 C 
ENDROOT
BRANCH   1   2
ATOM      2  C   UNL     1      46.543   8.393  13.050  0.00  0.00    +0.000 A 
ATOM      3  C   UNL     1      46.365   7.055  13.433  0.00  0.00    +0.000 A 
ATOM      4  C   UNL     1      45.392   6.250  12.813  0.00  0.00    +0.000 A 
ATOM      5  C   UNL     1      44.572   6.764  11.796  0.00  0.00    +0.000 A 
ATOM      6  C   UNL     1      44.744   8.100  11.421  0.00  0.00    +0.000 A 
ATOM      7  C   UNL     1      45.708   8.903  12.041  0.00  0.00    +0.000 A 
BRANCH   5   8
ATOM      8  C   UNL     1      43.580   5.899  11.050  0.00  0.00    +0.000 C 
BRANCH   8   9
ATOM      9  N   UNL     1      44.152   5.121   9.952  0.00  0.00    +0.000 N 
ATOM     10  H   UNL     1      43.909   5.449   9.029  0.00  0.00    +0.000 HD
BRANCH   9  11
ATOM     11  C   UNL     1      44.380   3.752  10.023  0.00  0.00    +0.000 C 
ATOM     12  S   UNL     1      43.737   2.769  11.229  0.00  0.00    +0.000 S 
BRANCH  11  13
ATOM     13  N   UNL     1      45.183   3.256   9.002  0.00  0.00    +0.000 N 
ATOM     14  C   UNL     1      46.021   4.045   8.110  0.00  0.00    +0.000 C 
ATOM     15  C   UNL     1      46.263   3.114   6.935  0.00  0.00    +0.000 C 
ATOM     16  C   UNL     1      46.378   1.741   7.587  0.00  0.00    +0.000 C 
ATOM     17  C   UNL     1      45.516   1.835   8.843  0.00  0.00    +0.000 C 
ENDBRANCH  11  13
ENDBRANCH   9  11
ENDBRANCH   8   9
ENDBRANCH   5   8
ENDBRANCH   1   2
BRANCH   1  18
ATOM     18  N   UNL     1      48.866   9.128  12.835  0.00  0.00    +0.000 N 
ATOM     19  C   UNL     1      49.644   8.002  12.759  0.00  0.00    +0.000 C 
ATOM     20  O   UNL     1      49.415   6.989  13.415  0.00  0.00    +0.000 OA
ATOM     21  H   UNL     1      49.091   9.922  12.245  0.00  0.00    +0.000 HD
BRANCH  19  22
ATOM     22  C   UNL     1      50.802   8.064  11.850  0.00  0.00    +0.000 A 
ATOM     23  C   UNL     1      50.837   7.264  10.715  0.00  0.00    +0.000 A 
ATOM     24  S   UNL     1      52.205   7.539   9.731  0.00  0.00    +0.000 S 
ATOM     25  C   UNL     1      52.790   8.739  10.794  0.00  0.00    +0.000 A 
ATOM     26  N   UNL     1      53.923   9.421  10.503  0.00  0.00    +0.000 NA
ATOM     27  C   UNL     1      54.250  10.308  11.389  0.00  0.00    +0.000 A 
ATOM     28  N   UNL     1      53.570  10.559  12.558  0.00  0.00    +0.000 N 
ATOM     29  C   UNL     1      54.089  11.515  13.520  0.00  0.00    +0.000 C 
ATOM     30  C   UNL     1      52.427   9.857  12.898  0.00  0.00    +0.000 A 
ATOM     31  O   UNL     1      51.854  10.004  13.977  0.00  0.00    +0.000 OA
ATOM     32  C   UNL     1      51.985   8.889  11.902  0.00  0.00    +0.000 A 
ENDBRANCH  19  22
ENDBRANCH   1  18
BRANCH   1  34
ATOM     33  C   UNL     1      48.739   9.879  15.900  0.00  0.00    +0.000 C 
ATOM     34  C   UNL     1      47.922   8.847  15.128  0.00  0.00    +0.000 C 
ENDBRANCH   1  34
TORSDOF 8
ENDMDL
