MODEL 1
REMARK VINA RESULT:    -8.082      0.000      0.000
REMARK INTER + INTRA:         -12.073
REMARK INTER:                 -10.917
REMARK INTRA:                  -1.155
REMARK UNBOUND:                -1.155
REMARK  Name = 
REMARK  7 active torsions:
REMARK  status: ('A' for Active; 'I' for Inactive)
REMARK    1  A    between atoms: C_1  and  C_2
REMARK    2  A    between atoms: C_2  and  C_3
REMARK    3  A    between atoms: C_7  and  C_8
REMARK    4  A    between atoms: C_8  and  C_9
REMARK    5  A    between atoms: C_9  and  N_10
REMARK    6  A    between atoms: N_10  and  C_11
REMARK    7  A    between atoms: C_14  and  C_15
REMARK                            x       y       z     vdW  Elec       q    Type
REMARK                         _______ _______ _______ _____ _____    ______ ____
ROOT
ATOM      1  C   UNL     1      43.162   4.675  11.035  0.00  0.00    +0.000 C 
ENDROOT
BRANCH   1   2
ATOM      2  N   UNL     1      43.865   5.102   9.817  0.00  0.00    +0.000 N 
ATOM      3  H   UNL     1      44.420   5.942   9.951  0.00  0.00    +0.000 HD
BRANCH   2   4
ATOM      4  C   UNL     1      44.606   4.083   9.185  0.00  0.00    +0.000 A 
ATOM      5  C   UNL     1      45.578   4.360   8.216  0.00  0.00    +0.000 A 
ATOM      6  C   UNL     1      46.339   3.347   7.632  0.00  0.00    +0.000 A 
ATOM      7  C   UNL     1      46.175   2.020   8.037  0.00  0.00    +0.000 A 
ATOM      8  C   UNL     1      45.228   1.726   9.025  0.00  0.00    +0.000 A 
ATOM      9  C   UNL     1      44.460   2.752   9.597  0.00  0.00    +0.000 A 
BRANCH   7  10
ATOM     10  C   UNL     1      47.021   0.986   7.388  0.00  0.00    +0.000 C 
ATOM     11  N   UNL     1      46.739  -0.329   7.615  0.00  0.00    +0.000 N 
ATOM     12  O   UNL     1      47.975   1.299   6.673  0.00  0.00    +0.000 OA
ATOM     13  H   UNL     1      45.989  -0.668   8.196  0.00  0.00    +0.000 HD
ATOM     14  H   UNL     1      47.350  -1.004   7.172  0.00  0.00    +0.000 HD
ENDBRANCH   7  10
ENDBRANCH   2   4
ENDBRANCH   1   2
BRANCH   1  15
ATOM     15  C   UNL     1      43.577   5.503  12.252  0.00  0.00    +0.000 C 
BRANCH  15  20
ATOM     16  C   UNL     1      47.245   6.333  12.923  0.00  0.00    +0.000 A 
ATOM     17  C   UNL     1      47.669   5.138  13.530  0.00  0.00    +0.000 A 
ATOM     18  C   UNL     1      46.823   4.044  13.667  0.00  0.00    +0.000 A 
ATOM     19  C   UNL     1      45.496   4.132  13.222  0.00  0.00    +0.000 A 
ATOM     20  C   UNL     1      45.033   5.311  12.633  0.00  0.00    +0.000 A 
ATOM     21  C   UNL     1      45.920   6.384  12.447  0.00  0.00    +0.000 A 
BRANCH  16  23
ATOM     22  C   UNL     1      48.637   7.775  11.457  0.00  0.00    +0.000 C 
ATOM     23  C   UNL     1      48.182   7.549  12.911  0.00  0.00    +0.000 C 
ATOM     24  C   UNL     1      47.493   8.784  13.504  0.00  0.00    +0.000 C 
ATOM     25  C   UNL     1      47.951   8.827  14.955  0.00  0.00    +0.000 C 
ATOM     26  O   UNL     1      48.986   7.853  15.124  0.00  0.00    +0.000 OA
ATOM     27  C   UNL     1      49.421   7.471  13.815  0.00  0.00    +0.000 C 
ENDBRANCH  16  23
ENDBRANCH  15  20
ENDBRANCH   1  15
TORSDOF 6
ENDMDL
MODEL 2
REMARK VINA RESULT:    -7.877      2.507      3.653
REMARK INTER + INTRA:         -11.795
REMARK INTER:                 -10.954
REMARK INTRA:                  -0.841
REMARK UNBOUND:                -1.155
REMARK  Name = 
REMARK  7 active torsions:
REMARK  status: ('A' for Active; 'I' for Inactive)
REMARK    1  A    between atoms: C_1  and  C_2
REMARK    2  A    between atoms: C_2  and  C_3
REMARK    3  A    between atoms: C_7  and  C_8
REMARK    4  A    between atoms: C_8  and  C_9
REMARK    5  A    between atoms: C_9  and  N_10
REMARK    6  A    between atoms: N_10  and  C_11
REMARK    7  A    between atoms: C_14  and  C_15
REMARK                            x       y       z     vdW  Elec       q    Type
REMARK                         _______ _______ _______ _____ _____    ______ ____
ROOT
ATOM      1  C   UNL     1      44.511   4.591  11.924  0.00  0.00    +0.000 C 
ENDROOT
BRANCH   1   2
ATOM      2  N   UNL     1      43.900   3.824  10.830  0.00  0.00    +0.000 N 
ATOM      3  H   UNL     1      43.049   4.248  10.472  0.00  0.00    +0.000 HD
BRANCH   2   4
ATOM      4  C   UNL     1      44.789   3.485   9.789  0.00  0.00    +0.000 A 
ATOM      5  C   UNL     1      45.052   2.156   9.438  0.00  0.00    +0.000 A 
ATOM      6  C   UNL     1      45.897   1.833   8.376  0.00  0.00    +0.000 A 
ATOM      7  C   UNL     1      46.473   2.843   7.601  0.00  0.00    +0.000 A 
ATOM      8  C   UNL     1      46.199   4.179   7.918  0.00  0.00    +0.000 A 
ATOM      9  C   UNL     1      45.358   4.492   8.997  0.00  0.00    +0.000 A 
BRANCH   7  10
ATOM     10  C   UNL     1      47.354   2.438   6.475  0.00  0.00    +0.000 C 
ATOM     11  N   UNL     1      47.212   3.068   5.274  0.00  0.00    +0.000 N 
ATOM     12  O   UNL     1      48.185   1.538   6.607  0.00  0.00    +0.000 OA
ATOM     13  H   UNL     1      46.549   3.801   5.080  0.00  0.00    +0.000 HD
ATOM     14  H   UNL     1      47.816   2.751   4.525  0.00  0.00    +0.000 HD
ENDBRANCH   7  10
ENDBRANCH   2   4
ENDBRANCH   1   2
BRANCH   1  15
ATOM     15  C   UNL     1      45.641   3.814  12.603  0.00  0.00    +0.000 C 
BRANCH  15  20
ATOM     16  C   UNL     1      47.611   4.934  15.678  0.00  0.00    +0.000 A 
ATOM     17  C   UNL     1      48.258   6.071  15.165  0.00  0.00    +0.000 A 
ATOM     18  C   UNL     1      48.024   6.530  13.874  0.00  0.00    +0.000 A 
ATOM     19  C   UNL     1      47.145   5.828  13.037  0.00  0.00    +0.000 A 
ATOM     20  C   UNL     1      46.499   4.681  13.505  0.00  0.00    +0.000 A 
ATOM     21  C   UNL     1      46.701   4.269  14.833  0.00  0.00    +0.000 A 
BRANCH  16  23
ATOM     22  C   UNL     1      47.154   5.154  18.109  0.00  0.00    +0.000 C 
ATOM     23  C   UNL     1      48.001   4.403  17.065  0.00  0.00    +0.000 C 
ATOM     24  C   UNL     1      47.815   2.884  17.148  0.00  0.00    +0.000 C 
ATOM     25  C   UNL     1      49.195   2.305  16.872  0.00  0.00    +0.000 C 
ATOM     26  O   UNL     1      50.135   3.385  16.865  0.00  0.00    +0.000 OA
ATOM     27  C   UNL     1      49.483   4.515  17.452  0.00  0.00    +0.000 C 
ENDBRANCH  16  23
ENDBRANCH  15  20
ENDBRANCH   1  15
TORSDOF 6
ENDMDL
MODEL 3
REMARK VINA RESULT:    -7.711      1.231      2.163
REMARK INTER + INTRA:         -11.571
REMARK INTER:                 -10.732
REMARK INTRA:                  -0.839
REMARK UNBOUND:                -1.155
REMARK  Name = 
REMARK  7 active torsions:
REMARK  status: ('A' for Active; 'I' for Inactive)
REMARK    1  A    between atoms: C_1  and  C_2
REMARK    2  A    between atoms: C_2  and  C_3
REMARK    3  A    between atoms: C_7  and  C_8
REMARK    4  A    between atoms: C_8  and  C_9
REMARK    5  A    between atoms: C_9  and  N_10
REMARK    6  A    between atoms: N_10  and  C_11
REMARK    7  A    between atoms: C_14  and  C_15
REMARK                            x       y       z     vdW  Elec       q    Type
REMARK                         _______ _______ _______ _____ _____    ______ ____
ROOT
ATOM      1  C   UNL     1      43.759   4.814  11.339  0.00  0.00    +0.000 C 
ENDROOT
BRANCH   1   2
ATOM      2  N   UNL     1      43.628   4.781   9.876  0.00  0.00    +0.000 N 
ATOM      3  H   UNL     1      43.575   5.706   9.458  0.00  0.00    +0.000 HD
BRANCH   2   4
ATOM      4  C   UNL     1      44.580   3.970   9.224  0.00  0.00    +0.000 A 
ATOM      5  C   UNL     1      44.584   2.576   9.352  0.00  0.00    +0.000 A 
ATOM      6  C   UNL     1      45.500   1.780   8.665  0.00  0.00    +0.000 A 
ATOM      7  C   UNL     1      46.420   2.361   7.788  0.00  0.00    +0.000 A 
ATOM      8  C   UNL     1      46.414   3.751   7.624  0.00  0.00    +0.000 A 
ATOM      9  C   UNL     1      45.494   4.543   8.330  0.00  0.00    +0.000 A 
BRANCH   7  10
ATOM     10  C   UNL     1      47.364   1.462   7.075  0.00  0.00    +0.000 C 
ATOM     11  N   UNL     1      48.492   1.999   6.527  0.00  0.00    +0.000 N 
ATOM     12  O   UNL     1      47.131   0.258   6.956  0.00  0.00    +0.000 OA
ATOM     13  H   UNL     1      48.748   2.972   6.566  0.00  0.00    +0.000 HD
ATOM     14  H   UNL     1      49.100   1.358   6.032  0.00  0.00    +0.000 HD
ENDBRANCH   7  10
ENDBRANCH   2   4
ENDBRANCH   1   2
BRANCH   1  15
ATOM     15  C   UNL     1      45.221   4.923  11.778  0.00  0.00    +0.000 C 
BRANCH  15  20
ATOM     16  C   UNL     1      47.516   7.891  12.499  0.00  0.00    +0.000 A 
ATOM     17  C   UNL     1      46.641   8.959  12.236  0.00  0.00    +0.000 A 
ATOM     18  C   UNL     1      45.308   8.750  11.899  0.00  0.00    +0.000 A 
ATOM     19  C   UNL     1      44.819   7.441  11.783  0.00  0.00    +0.000 A 
ATOM     20  C   UNL     1      45.664   6.355  12.016  0.00  0.00    +0.000 A 
ATOM     21  C   UNL     1      46.991   6.586  12.415  0.00  0.00    +0.000 A 
BRANCH  16  23
ATOM     22  C   UNL     1      49.766   7.834  11.450  0.00  0.00    +0.000 C 
ATOM     23  C   UNL     1      49.004   8.176  12.744  0.00  0.00    +0.000 C 
ATOM     24  C   UNL     1      49.224   9.628  13.183  0.00  0.00    +0.000 C 
ATOM     25  C   UNL     1      49.296   9.570  14.703  0.00  0.00    +0.000 C 
ATOM     26  O   UNL     1      49.349   8.194  15.092  0.00  0.00    +0.000 OA
ATOM     27  C   UNL     1      49.661   7.437  13.919  0.00  0.00    +0.000 C 
ENDBRANCH  16  23
ENDBRANCH  15  20
ENDBRANCH   1  15
TORSDOF 6
ENDMDL
MODEL 4
REMARK VINA RESULT:    -6.698      4.851      8.152
REMARK INTER + INTRA:         -10.202
REMARK INTER:                  -9.529
REMARK INTRA:                  -0.673
REMARK UNBOUND:                -1.155
REMARK  Name = 
REMARK  7 active torsions:
REMARK  status: ('A' for Active; 'I' for Inactive)
REMARK    1  A    between atoms: C_1  and  C_2
REMARK    2  A    between atoms: C_2  and  C_3
REMARK    3  A    between atoms: C_7  and  C_8
REMARK    4  A    between atoms: C_8  and  C_9
REMARK    5  A    between atoms: C_9  and  N_10
REMARK    6  A    between atoms: N_10  and  C_11
REMARK    7  A    between atoms: C_14  and  C_15
REMARK                            x       y       z     vdW  Elec       q    Type
REMARK                         _______ _______ _______ _____ _____    ______ ____
ROOT
ATOM      1  C   UNL     1      47.961   5.224  15.913  0.00  0.00    +0.000 C 
ENDROOT
BRANCH   1   2
ATOM      2  N   UNL     1      48.136   4.674  17.265  0.00  0.00    +0.000 N 
ATOM      3  H   UNL     1      47.299   4.221  17.623  0.00  0.00    +0.000 HD
BRANCH   2   4
ATOM      4  C   UNL     1      49.276   3.859  17.420  0.00  0.00    +0.000 A 
ATOM      5  C   UNL     1      49.268   2.498  17.093  0.00  0.00    +0.000 A 
ATOM      6  C   UNL     1      50.416   1.712  17.205  0.00  0.00    +0.000 A 
ATOM      7  C   UNL     1      51.625   2.283  17.610  0.00  0.00    +0.000 A 
ATOM      8  C   UNL     1      51.660   3.649  17.913  0.00  0.00    +0.000 A 
ATOM      9  C   UNL     1      50.496   4.428  17.809  0.00  0.00    +0.000 A 
BRANCH   7  10
ATOM     10  C   UNL     1      52.815   1.400  17.699  0.00  0.00    +0.000 C 
ATOM     11  N   UNL     1      52.643   0.109  18.106  0.00  0.00    +0.000 N 
ATOM     12  O   UNL     1      53.943   1.819  17.434  0.00  0.00    +0.000 OA
ATOM     13  H   UNL     1      51.761  -0.307  18.355  0.00  0.00    +0.000 HD
ATOM     14  H   UNL     1      53.481  -0.457  18.174  0.00  0.00    +0.000 HD
ENDBRANCH   7  10
ENDBRANCH   2   4
ENDBRANCH   1   2
BRANCH   1  15
ATOM     15  C   UNL     1      47.051   4.345  15.054  0.00  0.00    +0.000 C 
BRANCH  15  20
ATOM     16  C   UNL     1      45.231   5.060  11.772  0.00  0.00    +0.000 A 
ATOM     17  C   UNL     1      45.972   6.159  11.305  0.00  0.00    +0.000 A 
ATOM     18  C   UNL     1      47.088   6.635  11.984  0.00  0.00    +0.000 A 
ATOM     19  C   UNL     1      47.476   6.031  13.188  0.00  0.00    +0.000 A 
ATOM     20  C   UNL     1      46.751   4.950  13.695  0.00  0.00    +0.000 A 
ATOM     21  C   UNL     1      45.665   4.444  12.963  0.00  0.00    +0.000 A 
BRANCH  16  23
ATOM     22  C   UNL     1      42.868   5.716  11.378  0.00  0.00    +0.000 C 
ATOM     23  C   UNL     1      43.938   4.658  11.049  0.00  0.00    +0.000 C 
ATOM     24  C   UNL     1      44.170   4.513   9.541  0.00  0.00    +0.000 C 
ATOM     25  C   UNL     1      44.399   3.025   9.321  0.00  0.00    +0.000 C 
ATOM     26  O   UNL     1      44.095   2.344  10.543  0.00  0.00    +0.000 OA
ATOM     27  C   UNL     1      43.376   3.265  11.370  0.00  0.00    +0.000 C 
ENDBRANCH  16  23
ENDBRANCH  15  20
ENDBRANCH   1  15
TORSDOF 6
ENDMDL
MODEL 5
REMARK VINA RESULT:    -6.479      3.556      5.695
REMARK INTER + INTRA:          -9.906
REMARK INTER:                  -8.822
REMARK INTRA:                  -1.084
REMARK UNBOUND:                -1.155
REMARK  Name = 
REMARK  7 active torsions:
REMARK  status: ('A' for Active; 'I' for Inactive)
REMARK    1  A    between atoms: C_1  and  C_2
REMARK    2  A    between atoms: C_2  and  C_3
REMARK    3  A    between atoms: C_7  and  C_8
REMARK    4  A    between atoms: C_8  and  C_9
REMARK    5  A    between atoms: C_9  and  N_10
REMARK    6  A    between atoms: N_10  and  C_11
REMARK    7  A    between atoms: C_14  and  C_15
REMARK                            x       y       z     vdW  Elec       q    Type
REMARK                         _______ _______ _______ _____ _____    ______ ____
ROOT
ATOM      1  C   UNL     1      48.361   7.147  13.559  0.00  0.00    +0.000 C 
ENDROOT
BRANCH   1   2
ATOM      2  N   UNL     1      46.900   7.308  13.559  0.00  0.00    +0.000 N 
ATOM      3  H   UNL     1      46.599   8.213  13.210  0.00  0.00    +0.000 HD
BRANCH   2   4
ATOM      4  C   UNL     1      46.198   6.252  12.943  0.00  0.00    +0.000 A 
ATOM      5  C   UNL     1      45.525   6.414  11.726  0.00  0.00    +0.000 A 
ATOM      6  C   UNL     1      44.874   5.350  11.102  0.00  0.00    +0.000 A 
ATOM      7  C   UNL     1      44.916   4.071  11.664  0.00  0.00    +0.000 A 
ATOM      8  C   UNL     1      45.609   3.882  12.865  0.00  0.00    +0.000 A 
ATOM      9  C   UNL     1      46.250   4.962  13.490  0.00  0.00    +0.000 A 
BRANCH   7  10
ATOM     10  C   UNL     1      44.214   2.975  10.947  0.00  0.00    +0.000 C 
ATOM     11  N   UNL     1      44.849   2.361   9.908  0.00  0.00    +0.000 N 
ATOM     12  O   UNL     1      43.074   2.633  11.264  0.00  0.00    +0.000 OA
ATOM     13  H   UNL     1      45.772   2.590   9.577  0.00  0.00    +0.000 HD
ATOM     14  H   UNL     1      44.331   1.633   9.431  0.00  0.00    +0.000 HD
ENDBRANCH   7  10
ENDBRANCH   2   4
ENDBRANCH   1   2
BRANCH   1  15
ATOM     15  C   UNL     1      49.021   7.939  14.689  0.00  0.00    +0.000 C 
BRANCH  15  20
ATOM     16  C   UNL     1      49.759   5.083  17.115  0.00  0.00    +0.000 A 
ATOM     17  C   UNL     1      51.145   5.242  17.281  0.00  0.00    +0.000 A 
ATOM     18  C   UNL     1      51.841   6.289  16.687  0.00  0.00    +0.000 A 
ATOM     19  C   UNL     1      51.157   7.200  15.869  0.00  0.00    +0.000 A 
ATOM     20  C   UNL     1      49.783   7.061  15.664  0.00  0.00    +0.000 A 
ATOM     21  C   UNL     1      49.087   6.034  16.322  0.00  0.00    +0.000 A 
BRANCH  16  23
ATOM     22  C   UNL     1      48.865   4.074  19.201  0.00  0.00    +0.000 C 
ATOM     23  C   UNL     1      49.066   3.841  17.692  0.00  0.00    +0.000 C 
ATOM     24  C   UNL     1      47.746   3.556  16.966  0.00  0.00    +0.000 C 
ATOM     25  C   UNL     1      48.093   2.505  15.921  0.00  0.00    +0.000 C 
ATOM     26  O   UNL     1      49.427   2.052  16.173  0.00  0.00    +0.000 OA
ATOM     27  C   UNL     1      49.781   2.497  17.487  0.00  0.00    +0.000 C 
ENDBRANCH  16  23
ENDBRANCH  15  20
ENDBRANCH   1  15
TORSDOF 6
ENDMDL
MODEL 6
REMARK VINA RESULT:    -6.438      4.220      6.379
REMARK INTER + INTRA:          -9.851
REMARK INTER:                  -8.425
REMARK INTRA:                  -1.427
REMARK UNBOUND:                -1.155
REMARK  Name = 
REMARK  7 active torsions:
REMARK  status: ('A' for Active; 'I' for Inactive)
REMARK    1  A    between atoms: C_1  and  C_2
REMARK    2  A    between atoms: C_2  and  C_3
REMARK    3  A    between atoms: C_7  and  C_8
REMARK    4  A    between atoms: C_8  and  C_9
REMARK    5  A    between atoms: C_9  and  N_10
REMARK    6  A    between atoms: N_10  and  C_11
REMARK    7  A    between atoms: C_14  and  C_15
REMARK                            x       y       z     vdW  Elec       q    Type
REMARK                         _______ _______ _______ _____ _____    ______ ____
ROOT
ATOM      1  C   UNL     1      49.108   7.947  13.292  0.00  0.00    +0.000 C 
ENDROOT
BRANCH   1   2
ATOM      2  N   UNL     1      48.740   6.619  12.780  0.00  0.00    +0.000 N 
ATOM      3  H   UNL     1      49.265   5.865  13.214  0.00  0.00    +0.000 HD
BRANCH   2   4
ATOM      4  C   UNL     1      47.355   6.358  12.781  0.00  0.00    +0.000 A 
ATOM      5  C   UNL     1      46.446   7.156  12.077  0.00  0.00    +0.000 A 
ATOM      6  C   UNL     1      45.083   6.861  12.046  0.00  0.00    +0.000 A 
ATOM      7  C   UNL     1      44.594   5.721  12.690  0.00  0.00    +0.000 A 
ATOM      8  C   UNL     1      45.491   4.894  13.375  0.00  0.00    +0.000 A 
ATOM      9  C   UNL     1      46.859   5.208  13.410  0.00  0.00    +0.000 A 
BRANCH   7  10
ATOM     10  C   UNL     1      43.135   5.451  12.612  0.00  0.00    +0.000 C 
ATOM     11  N   UNL     1      42.379   6.188  11.749  0.00  0.00    +0.000 N 
ATOM     12  O   UNL     1      42.605   4.596  13.324  0.00  0.00    +0.000 OA
ATOM     13  H   UNL     1      42.730   6.914  11.146  0.00  0.00    +0.000 HD
ATOM     14  H   UNL     1      41.385   5.990  11.739  0.00  0.00    +0.000 HD
ENDBRANCH   7  10
ENDBRANCH   2   4
ENDBRANCH   1   2
BRANCH   1  15
ATOM     15  C   UNL     1      48.742   8.109  14.768  0.00  0.00    +0.000 C 
BRANCH  15  20
ATOM     16  C   UNL     1      49.665   5.228  17.101  0.00  0.00    +0.000 A 
ATOM     17  C   UNL     1      51.055   5.414  17.196  0.00  0.00    +0.000 A 
ATOM     18  C   UNL     1      51.697   6.484  16.585  0.00  0.00    +0.000 A 
ATOM     19  C   UNL     1      50.952   7.395  15.821  0.00  0.00    +0.000 A 
ATOM     20  C   UNL     1      49.572   7.231  15.686  0.00  0.00    +0.000 A 
ATOM     21  C   UNL     1      48.933   6.179  16.362  0.00  0.00    +0.000 A 
BRANCH  16  23
ATOM     22  C   UNL     1      48.900   4.168  19.212  0.00  0.00    +0.000 C 
ATOM     23  C   UNL     1      49.029   3.962  17.691  0.00  0.00    +0.000 C 
ATOM     24  C   UNL     1      47.680   3.660  17.028  0.00  0.00    +0.000 C 
ATOM     25  C   UNL     1      47.995   2.634  15.950  0.00  0.00    +0.000 C 
ATOM     26  O   UNL     1      49.349   2.206  16.126  0.00  0.00    +0.000 OA
ATOM     27  C   UNL     1      49.760   2.638  17.428  0.00  0.00    +0.000 C 
ENDBRANCH  16  23
ENDBRANCH  15  20
ENDBRANCH   1  15
TORSDOF 6
ENDMDL
MODEL 7
REMARK VINA RESULT:    -6.215      4.644      7.825
REMARK INTER + INTRA:          -9.551
REMARK INTER:                  -8.928
REMARK INTRA:                  -0.623
REMARK UNBOUND:                -1.155
REMARK  Name = 
REMARK  7 active torsions:
REMARK  status: ('A' for Active; 'I' for Inactive)
REMARK    1  A    between atoms: C_1  and  C_2
REMARK    2  A    between atoms: C_2  and  C_3
REMARK    3  A    between atoms: C_7  and  C_8
REMARK    4  A    between atoms: C_8  and  C_9
REMARK    5  A    between atoms: C_9  and  N_10
REMARK    6  A    between atoms: N_10  and  C_11
REMARK    7  A    between atoms: C_14  and  C_15
REMARK                            x       y       z     vdW  Elec       q    Type
REMARK                         _______ _______ _______ _____ _____    ______ ____
ROOT
ATOM      1  C   UNL     1      48.817   7.604  15.676  0.00  0.00    +0.000 C 
ENDROOT
BRANCH   1   2
ATOM      2  N   UNL     1      48.314   6.692  16.714  0.00  0.00    +0.000 N 
ATOM      3  H   UNL     1      47.336   6.448  16.590  0.00  0.00    +0.000 HD
BRANCH   2   4
ATOM      4  C   UNL     1      49.114   5.550  16.923  0.00  0.00    +0.000 A 
ATOM      5  C   UNL     1      50.467   5.642  17.270  0.00  0.00    +0.000 A 
ATOM      6  C   UNL     1      51.237   4.506  17.522  0.00  0.00    +0.000 A 
ATOM      7  C   UNL     1      50.656   3.236  17.473  0.00  0.00    +0.000 A 
ATOM      8  C   UNL     1      49.297   3.125  17.156  0.00  0.00    +0.000 A 
ATOM      9  C   UNL     1      48.535   4.274  16.893  0.00  0.00    +0.000 A 
BRANCH   7  10
ATOM     10  C   UNL     1      51.522   2.064  17.762  0.00  0.00    +0.000 C 
ATOM     11  N   UNL     1      52.546   2.211  18.651  0.00  0.00    +0.000 N 
ATOM     12  O   UNL     1      51.343   0.983  17.199  0.00  0.00    +0.000 OA
ATOM     13  H   UNL     1      52.769   3.061  19.142  0.00  0.00    +0.000 HD
ATOM     14  H   UNL     1      53.127   1.396  18.807  0.00  0.00    +0.000 HD
ENDBRANCH   7  10
ENDBRANCH   2   4
ENDBRANCH   1   2
BRANCH   1  15
ATOM     15  C   UNL     1      48.813   6.950  14.293  0.00  0.00    +0.000 C 
BRANCH  15  20
ATOM     16  C   UNL     1      45.541   5.989  12.572  0.00  0.00    +0.000 A 
ATOM     17  C   UNL     1      44.938   7.252  12.449  0.00  0.00    +0.000 A 
ATOM     18  C   UNL     1      45.586   8.417  12.843  0.00  0.00    +0.000 A 
ATOM     19  C   UNL     1      46.866   8.341  13.411  0.00  0.00    +0.000 A 
ATOM     20  C   UNL     1      47.489   7.101  13.569  0.00  0.00    +0.000 A 
ATOM     21  C   UNL     1      46.843   5.941  13.108  0.00  0.00    +0.000 A 
BRANCH  16  23
ATOM     22  C   UNL     1      45.539   3.510  12.720  0.00  0.00    +0.000 C 
ATOM     23  C   UNL     1      44.731   4.729  12.237  0.00  0.00    +0.000 C 
ATOM     24  C   UNL     1      43.334   4.786  12.864  0.00  0.00    +0.000 C 
ATOM     25  C   UNL     1      42.427   5.297  11.752  0.00  0.00    +0.000 C 
ATOM     26  O   UNL     1      43.181   5.309  10.536  0.00  0.00    +0.000 OA
ATOM     27  C   UNL     1      44.356   4.525  10.761  0.00  0.00    +0.000 C 
ENDBRANCH  16  23
ENDBRANCH  15  20
ENDBRANCH   1  15
TORSDOF 6
ENDMDL
MODEL 8
REMARK VINA RESULT:    -6.091      3.635      5.475
REMARK INTER + INTRA:          -9.383
REMARK INTER:                  -8.465
REMARK INTRA:                  -0.918
REMARK UNBOUND:                -1.155
REMARK  Name = 
REMARK  7 active torsions:
REMARK  status: ('A' for Active; 'I' for Inactive)
REMARK    1  A    between atoms: C_1  and  C_2
REMARK    2  A    between atoms: C_2  and  C_3
REMARK    3  A    between atoms: C_7  and  C_8
REMARK    4  A    between atoms: C_8  and  C_9
REMARK    5  A    between atoms: C_9  and  N_10
REMARK    6  A    between atoms: N_10  and  C_11
REMARK    7  A    between atoms: C_14  and  C_15
REMARK                            x       y       z     vdW  Elec       q    Type
REMARK                         _______ _______ _______ _____ _____    ______ ____
ROOT
ATOM      1  C   UNL     1      48.668   6.973  12.978  0.00  0.00    +0.000 C 
ENDROOT
BRANCH   1   2
ATOM      2  N   UNL     1      47.247   7.320  12.838  0.00  0.00    +0.000 N 
ATOM      3  H   UNL     1      47.094   8.168  12.299  0.00  0.00    +0.000 HD
BRANCH   2   4
ATOM      4  C   UNL     1      46.431   6.263  12.387  0.00  0.00    +0.000 A 
ATOM      5  C   UNL     1      45.898   6.233  11.093  0.00  0.00    +0.000 A 
ATOM      6  C   UNL     1      45.130   5.159  10.642  0.00  0.00    +0.000 A 
ATOM      7  C   UNL     1      44.910   4.054  11.469  0.00  0.00    +0.000 A 
ATOM      8  C   UNL     1      45.460   4.051  12.756  0.00  0.00    +0.000 A 
ATOM      9  C   UNL     1      46.220   5.143  13.203  0.00  0.00    +0.000 A 
BRANCH   7  10
ATOM     10  C   UNL     1      44.096   2.934  10.929  0.00  0.00    +0.000 C 
ATOM     11  N   UNL     1      44.577   2.229   9.865  0.00  0.00    +0.000 N 
ATOM     12  O   UNL     1      42.998   2.653  11.412  0.00  0.00    +0.000 OA
ATOM     13  H   UNL     1      45.455   2.403   9.404  0.00  0.00    +0.000 HD
ATOM     14  H   UNL     1      43.985   1.487   9.513  0.00  0.00    +0.000 HD
ENDBRANCH   7  10
ENDBRANCH   2   4
ENDBRANCH   1   2
BRANCH   1  15
ATOM     15  C   UNL     1      49.377   7.873  13.992  0.00  0.00    +0.000 C 
BRANCH  15  20
ATOM     16  C   UNL     1      49.117   5.648  17.087  0.00  0.00    +0.000 A 
ATOM     17  C   UNL     1      50.472   5.553  17.447  0.00  0.00    +0.000 A 
ATOM     18  C   UNL     1      51.464   6.244  16.760  0.00  0.00    +0.000 A 
ATOM     19  C   UNL     1      51.120   7.035  15.655  0.00  0.00    +0.000 A 
ATOM     20  C   UNL     1      49.786   7.136  15.255  0.00  0.00    +0.000 A 
ATOM     21  C   UNL     1      48.791   6.481  15.998  0.00  0.00    +0.000 A 
BRANCH  16  23
ATOM     22  C   UNL     1      47.286   4.010  16.722  0.00  0.00    +0.000 C 
ATOM     23  C   UNL     1      48.081   4.768  17.801  0.00  0.00    +0.000 C 
ATOM     24  C   UNL     1      48.756   3.820  18.800  0.00  0.00    +0.000 C 
ATOM     25  C   UNL     1      48.639   4.522  20.145  0.00  0.00    +0.000 C 
ATOM     26  O   UNL     1      47.776   5.652  19.982  0.00  0.00    +0.000 OA
ATOM     27  C   UNL     1      47.095   5.486  18.735  0.00  0.00    +0.000 C 
ENDBRANCH  16  23
ENDBRANCH  15  20
ENDBRANCH   1  15
TORSDOF 6
ENDMDL
MODEL 9
REMARK VINA RESULT:    -5.705      4.350      7.591
REMARK INTER + INTRA:          -8.861
REMARK INTER:                  -7.653
REMARK INTRA:                  -1.208
REMARK UNBOUND:                -1.155
REMARK  Name = 
REMARK  7 active torsions:
REMARK  status: ('A' for Active; 'I' for Inactive)
REMARK    1  A    between atoms: C_1  and  C_2
REMARK    2  A    between atoms: C_2  and  C_3
REMARK    3  A    between atoms: C_7  and  C_8
REMARK    4  A    between atoms: C_8  and  C_9
REMARK    5  A    between atoms: C_9  and  N_10
REMARK    6  A    between atoms: N_10  and  C_11
REMARK    7  A    between atoms: C_14  and  C_15
REMARK                            x       y       z     vdW  Elec       q    Type
REMARK                         _______ _______ _______ _____ _____    ______ ____
ROOT
ATOM      1  C   UNL     1      48.585   8.378  16.491  0.00  0.00    +0.000 C 
ENDROOT
BRANCH   1   2
ATOM      2  N   UNL     1      49.045   7.728  17.725  0.00  0.00    +0.000 N 
ATOM      3  H   UNL     1      48.452   7.927  18.526  0.00  0.00    +0.000 HD
BRANCH   2   4
ATOM      4  C   UNL     1      49.300   6.347  17.596  0.00  0.00    +0.000 A 
ATOM      5  C   UNL     1      48.306   5.438  17.217  0.00  0.00    +0.000 A 
ATOM      6  C   UNL     1      48.581   4.081  17.047  0.00  0.00    +0.000 A 
ATOM      7  C   UNL     1      49.883   3.600  17.211  0.00  0.00    +0.000 A 
ATOM      8  C   UNL     1      50.897   4.498  17.561  0.00  0.00    +0.000 A 
ATOM      9  C   UNL     1      50.606   5.859  17.742  0.00  0.00    +0.000 A 
BRANCH   7  10
ATOM     10  C   UNL     1      50.118   2.148  17.004  0.00  0.00    +0.000 C 
ATOM     11  N   UNL     1      51.037   1.515  17.788  0.00  0.00    +0.000 N 
ATOM     12  O   UNL     1      49.516   1.522  16.130  0.00  0.00    +0.000 OA
ATOM     13  H   UNL     1      51.581   1.955  18.512  0.00  0.00    +0.000 HD
ATOM     14  H   UNL     1      51.184   0.530  17.604  0.00  0.00    +0.000 HD
ENDBRANCH   7  10
ENDBRANCH   2   4
ENDBRANCH   1   2
BRANCH   1  15
ATOM     15  C   UNL     1      49.665   8.374  15.408  0.00  0.00    +0.000 C 
BRANCH  15  20
ATOM     16  C   UNL     1      47.457   6.598  12.846  0.00  0.00    +0.000 A 
ATOM     17  C   UNL     1      48.006   7.093  11.651  0.00  0.00    +0.000 A 
ATOM     18  C   UNL     1      49.115   7.931  11.643  0.00  0.00    +0.000 A 
ATOM     19  C   UNL     1      49.692   8.328  12.858  0.00  0.00    +0.000 A 
ATOM     20  C   UNL     1      49.161   7.874  14.067  0.00  0.00    +0.000 A 
ATOM     21  C   UNL     1      48.079   6.978  14.052  0.00  0.00    +0.000 A 
BRANCH  16  23
ATOM     22  C   UNL     1      46.238   4.715  13.911  0.00  0.00    +0.000 C 
ATOM     23  C   UNL     1      46.160   5.779  12.800  0.00  0.00    +0.000 C 
ATOM     24  C   UNL     1      44.930   6.682  12.945  0.00  0.00    +0.000 C 
ATOM     25  C   UNL     1      44.462   6.938  11.520  0.00  0.00    +0.000 C 
ATOM     26  O   UNL     1      45.203   6.077  10.649  0.00  0.00    +0.000 OA
ATOM     27  C   UNL     1      45.830   5.087  11.469  0.00  0.00    +0.000 C 
ENDBRANCH  16  23
ENDBRANCH  15  20
ENDBRANCH   1  15
TORSDOF 6
ENDMDL
