MODEL 1
REMARK VINA RESULT:    -7.908      0.000      0.000
REMARK INTER + INTRA:         -10.363
REMARK INTER:                  -9.757
REMARK INTRA:                  -0.606
REMARK UNBOUND:                -0.606
REMARK  Name = 
REMARK  5 active torsions:
REMARK  status: ('A' for Active; 'I' for Inactive)
REMARK    1  A    between atoms: C_1  and  C_2
REMARK    2  A    between atoms: C_2  and  N_3
REMARK    3  A    between atoms: C_2  and  C_13
REMARK    4  A    between atoms: N_3  and  C_4
REMARK    5  A    between atoms: C_7  and  C_8
REMARK                            x       y       z     vdW  Elec       q    Type
REMARK                         _______ _______ _______ _____ _____    ______ ____
ROOT
ATOM      1  C   UNL     1      44.607   3.944   9.301  0.00  0.00    +0.000 A 
ATOM      2  C   UNL     1      45.577   4.351   8.378  0.00  0.00    +0.000 A 
ATOM      3  C   UNL     1      46.368   3.417   7.712  0.00  0.00    +0.000 A 
ATOM      4  C   UNL     1      46.191   2.075   8.019  0.00  0.00    +0.000 A 
ATOM      5  N   UNL     1      45.283   1.622   8.929  0.00  0.00    +0.000 NA
ATOM      6  C   UNL     1      44.523   2.571   9.540  0.00  0.00    +0.000 A 
ENDROOT
BRANCH   4   7
ATOM      7  C   UNL     1      47.056   1.051   7.349  0.00  0.00    +0.000 C 
ATOM      8  N   UNL     1      46.770  -0.254   7.654  0.00  0.00    +0.000 N 
ATOM      9  O   UNL     1      47.969   1.346   6.590  0.00  0.00    +0.000 OA
ATOM     10  H   UNL     1      46.019  -0.463   8.301  0.00  0.00    +0.000 HD
ATOM     11  H   UNL     1      47.333  -0.991   7.261  0.00  0.00    +0.000 HD
ENDBRANCH   4   7
BRANCH   1  12
ATOM     12  N   UNL     1      43.904   4.943   9.978  0.00  0.00    +0.000 N 
ATOM     13  H   UNL     1      44.310   5.843   9.723  0.00  0.00    +0.000 HD
BRANCH  12  15
ATOM     14  C   UNL     1      42.280   5.561  11.722  0.00  0.00    +0.000 C 
ATOM     15  C   UNL     1      43.614   4.862  11.419  0.00  0.00    +0.000 C 
BRANCH  15  16
ATOM     16  C   UNL     1      44.759   5.539  12.239  0.00  0.00    +0.000 C 
ATOM     17  C   UNL     1      45.502   6.631  11.442  0.00  0.00    +0.000 C 
ATOM     18  C   UNL     1      46.603   7.293  12.264  0.00  0.00    +0.000 C 
ATOM     19  C   UNL     1      47.582   6.265  12.813  0.00  0.00    +0.000 C 
ATOM     20  C   UNL     1      46.862   5.203  13.636  0.00  0.00    +0.000 C 
ATOM     21  C   UNL     1      45.755   4.519  12.830  0.00  0.00    +0.000 C 
ENDBRANCH  15  16
ENDBRANCH  12  15
ENDBRANCH   1  12
TORSDOF 4
ENDMDL
MODEL 2
REMARK VINA RESULT:    -7.504      1.318      1.975
REMARK INTER + INTRA:          -9.865
REMARK INTER:                  -9.349
REMARK INTRA:                  -0.516
REMARK UNBOUND:                -0.606
REMARK  Name = 
REMARK  5 active torsions:
REMARK  status: ('A' for Active; 'I' for Inactive)
REMARK    1  A    between atoms: C_1  and  C_2
REMARK    2  A    between atoms: C_2  and  N_3
REMARK    3  A    between atoms: C_2  and  C_13
REMARK    4  A    between atoms: N_3  and  C_4
REMARK    5  A    between atoms: C_7  and  C_8
REMARK                            x       y       z     vdW  Elec       q    Type
REMARK                         _______ _______ _______ _____ _____    ______ ____
ROOT
ATOM      1  C   UNL     1      44.739   4.026   9.100  0.00  0.00    +0.000 A 
ATOM      2  C   UNL     1      44.850   2.631   9.111  0.00  0.00    +0.000 A 
ATOM      3  C   UNL     1      45.826   1.985   8.355  0.00  0.00    +0.000 A 
ATOM      4  C   UNL     1      46.659   2.763   7.563  0.00  0.00    +0.000 A 
ATOM      5  N   UNL     1      46.580   4.121   7.491  0.00  0.00    +0.000 NA
ATOM      6  C   UNL     1      45.622   4.706   8.260  0.00  0.00    +0.000 A 
ENDROOT
BRANCH   4   7
ATOM      7  C   UNL     1      47.691   2.092   6.708  0.00  0.00    +0.000 C 
ATOM      8  N   UNL     1      48.076   2.788   5.593  0.00  0.00    +0.000 N 
ATOM      9  O   UNL     1      48.156   0.991   6.968  0.00  0.00    +0.000 OA
ATOM     10  H   UNL     1      47.657   3.689   5.396  0.00  0.00    +0.000 HD
ATOM     11  H   UNL     1      48.745   2.380   4.959  0.00  0.00    +0.000 HD
ENDBRANCH   4   7
BRANCH   1  12
ATOM     12  N   UNL     1      43.692   4.594   9.829  0.00  0.00    +0.000 N 
ATOM     13  H   UNL     1      43.399   5.445   9.349  0.00  0.00    +0.000 HD
BRANCH  12  15
ATOM     14  C   UNL     1      42.840   5.940  11.706  0.00  0.00    +0.000 C 
ATOM     15  C   UNL     1      43.762   4.785  11.287  0.00  0.00    +0.000 C 
BRANCH  15  16
ATOM     16  C   UNL     1      45.230   5.101  11.720  0.00  0.00    +0.000 C 
ATOM     17  C   UNL     1      45.533   4.671  13.170  0.00  0.00    +0.000 C 
ATOM     18  C   UNL     1      46.975   4.971  13.569  0.00  0.00    +0.000 C 
ATOM     19  C   UNL     1      47.318   6.438  13.357  0.00  0.00    +0.000 C 
ATOM     20  C   UNL     1      47.059   6.863  11.915  0.00  0.00    +0.000 C 
ATOM     21  C   UNL     1      45.616   6.578  11.494  0.00  0.00    +0.000 C 
ENDBRANCH  15  16
ENDBRANCH  12  15
ENDBRANCH   1  12
TORSDOF 4
ENDMDL
MODEL 3
REMARK VINA RESULT:    -6.489      3.573      6.171
REMARK INTER + INTRA:          -8.613
REMARK INTER:                  -7.992
REMARK INTRA:                  -0.620
REMARK UNBOUND:                -0.606
REMARK  Name = 
REMARK  5 active torsions:
REMARK  status: ('A' for Active; 'I' for Inactive)
REMARK    1  A    between atoms: C_1  and  C_2
REMARK    2  A    between atoms: C_2  and  N_3
REMARK    3  A    between atoms: C_2  and  C_13
REMARK    4  A    between atoms: N_3  and  C_4
REMARK    5  A    between atoms: C_7  and  C_8
REMARK                            x       y       z     vdW  Elec       q    Type
REMARK                         _______ _______ _______ _____ _____    ______ ____
ROOT
ATOM      1  C   UNL     1      46.351   5.559  12.483  0.00  0.00    +0.000 A 
ATOM      2  C   UNL     1      46.781   6.630  11.691  0.00  0.00    +0.000 A 
ATOM      3  C   UNL     1      47.948   7.326  12.002  0.00  0.00    +0.000 A 
ATOM      4  C   UNL     1      48.648   6.951  13.140  0.00  0.00    +0.000 A 
ATOM      5  N   UNL     1      48.263   5.935  13.963  0.00  0.00    +0.000 NA
ATOM      6  C   UNL     1      47.128   5.275  13.608  0.00  0.00    +0.000 A 
ENDROOT
BRANCH   4   7
ATOM      7  C   UNL     1      49.883   7.708  13.522  0.00  0.00    +0.000 C 
ATOM      8  N   UNL     1      50.508   7.283  14.665  0.00  0.00    +0.000 N 
ATOM      9  O   UNL     1      50.309   8.655  12.875  0.00  0.00    +0.000 OA
ATOM     10  H   UNL     1      50.118   6.507  15.187  0.00  0.00    +0.000 HD
ATOM     11  H   UNL     1      51.327   7.768  14.994  0.00  0.00    +0.000 HD
ENDBRANCH   4   7
BRANCH   1  12
ATOM     12  N   UNL     1      45.137   4.957  12.146  0.00  0.00    +0.000 N 
ATOM     13  H   UNL     1      45.274   3.947  12.153  0.00  0.00    +0.000 HD
BRANCH  12  15
ATOM     14  C   UNL     1      42.863   5.526  11.396  0.00  0.00    +0.000 C 
ATOM     15  C   UNL     1      44.338   5.393  10.989  0.00  0.00    +0.000 C 
BRANCH  15  16
ATOM     16  C   UNL     1      44.470   4.363   9.822  0.00  0.00    +0.000 C 
ATOM     17  C   UNL     1      44.589   2.907  10.319  0.00  0.00    +0.000 C 
ATOM     18  C   UNL     1      44.698   1.914   9.166  0.00  0.00    +0.000 C 
ATOM     19  C   UNL     1      45.852   2.265   8.236  0.00  0.00    +0.000 C 
ATOM     20  C   UNL     1      45.721   3.689   7.709  0.00  0.00    +0.000 C 
ATOM     21  C   UNL     1      45.616   4.706   8.848  0.00  0.00    +0.000 C 
ENDBRANCH  15  16
ENDBRANCH  12  15
ENDBRANCH   1  12
TORSDOF 4
ENDMDL
MODEL 4
REMARK VINA RESULT:    -6.473      3.031      5.906
REMARK INTER + INTRA:          -8.593
REMARK INTER:                  -8.625
REMARK INTRA:                   0.032
REMARK UNBOUND:                -0.606
REMARK  Name = 
REMARK  5 active torsions:
REMARK  status: ('A' for Active; 'I' for Inactive)
REMARK    1  A    between atoms: C_1  and  C_2
REMARK    2  A    between atoms: C_2  and  N_3
REMARK    3  A    between atoms: C_2  and  C_13
REMARK    4  A    between atoms: N_3  and  C_4
REMARK    5  A    between atoms: C_7  and  C_8
REMARK                            x       y       z     vdW  Elec       q    Type
REMARK                         _______ _______ _______ _____ _____    ______ ____
ROOT
ATOM      1  C   UNL     1      45.057   5.509  11.367  0.00  0.00    +0.000 A 
ATOM      2  C   UNL     1      44.959   4.933  12.638  0.00  0.00    +0.000 A 
ATOM      3  C   UNL     1      45.933   5.164  13.606  0.00  0.00    +0.000 A 
ATOM      4  C   UNL     1      47.022   5.953  13.261  0.00  0.00    +0.000 A 
ATOM      5  N   UNL     1      47.185   6.518  12.031  0.00  0.00    +0.000 NA
ATOM      6  C   UNL     1      46.198   6.276  11.126  0.00  0.00    +0.000 A 
ENDROOT
BRANCH   4   7
ATOM      7  C   UNL     1      48.107   6.186  14.268  0.00  0.00    +0.000 C 
ATOM      8  N   UNL     1      47.781   5.888  15.565  0.00  0.00    +0.000 N 
ATOM      9  O   UNL     1      49.209   6.626  13.969  0.00  0.00    +0.000 OA
ATOM     10  H   UNL     1      46.853   5.543  15.781  0.00  0.00    +0.000 HD
ATOM     11  H   UNL     1      48.455   6.051  16.296  0.00  0.00    +0.000 HD
ENDBRANCH   4   7
BRANCH   1  12
ATOM     12  N   UNL     1      44.077   5.173  10.430  0.00  0.00    +0.000 N 
ATOM     13  H   UNL     1      43.197   5.589  10.732  0.00  0.00    +0.000 HD
BRANCH  12  15
ATOM     14  C   UNL     1      43.582   2.865  11.128  0.00  0.00    +0.000 C 
ATOM     15  C   UNL     1      43.893   3.795   9.946  0.00  0.00    +0.000 C 
BRANCH  15  16
ATOM     16  C   UNL     1      45.183   3.302   9.215  0.00  0.00    +0.000 C 
ATOM     17  C   UNL     1      45.539   4.160   7.984  0.00  0.00    +0.000 C 
ATOM     18  C   UNL     1      46.811   3.677   7.294  0.00  0.00    +0.000 C 
ATOM     19  C   UNL     1      46.715   2.205   6.919  0.00  0.00    +0.000 C 
ATOM     20  C   UNL     1      46.403   1.344   8.138  0.00  0.00    +0.000 C 
ATOM     21  C   UNL     1      45.126   1.806   8.843  0.00  0.00    +0.000 C 
ENDBRANCH  15  16
ENDBRANCH  12  15
ENDBRANCH   1  12
TORSDOF 4
ENDMDL
MODEL 5
REMARK VINA RESULT:    -6.435      3.147      6.332
REMARK INTER + INTRA:          -8.546
REMARK INTER:                  -8.257
REMARK INTRA:                  -0.290
REMARK UNBOUND:                -0.606
REMARK  Name = 
REMARK  5 active torsions:
REMARK  status: ('A' for Active; 'I' for Inactive)
REMARK    1  A    between atoms: C_1  and  C_2
REMARK    2  A    between atoms: C_2  and  N_3
REMARK    3  A    between atoms: C_2  and  C_13
REMARK    4  A    between atoms: N_3  and  C_4
REMARK    5  A    between atoms: C_7  and  C_8
REMARK                            x       y       z     vdW  Elec       q    Type
REMARK                         _______ _______ _______ _____ _____    ______ ____
ROOT
ATOM      1  C   UNL     1      44.349   5.377  10.287  0.00  0.00    +0.000 A 
ATOM      2  C   UNL     1      45.708   5.690  10.396  0.00  0.00    +0.000 A 
ATOM      3  C   UNL     1      46.144   6.696  11.257  0.00  0.00    +0.000 A 
ATOM      4  C   UNL     1      45.187   7.401  11.974  0.00  0.00    +0.000 A 
ATOM      5  N   UNL     1      43.848   7.159  11.887  0.00  0.00    +0.000 NA
ATOM      6  C   UNL     1      43.475   6.157  11.046  0.00  0.00    +0.000 A 
ENDROOT
BRANCH   4   7
ATOM      7  C   UNL     1      45.623   8.515  12.876  0.00  0.00    +0.000 C 
ATOM      8  N   UNL     1      44.828   9.631  12.863  0.00  0.00    +0.000 N 
ATOM      9  O   UNL     1      46.626   8.452  13.573  0.00  0.00    +0.000 OA
ATOM     10  H   UNL     1      44.014   9.658  12.261  0.00  0.00    +0.000 HD
ATOM     11  H   UNL     1      45.082  10.428  13.425  0.00  0.00    +0.000 HD
ENDBRANCH   4   7
BRANCH   1  12
ATOM     12  N   UNL     1      43.986   4.405   9.352  0.00  0.00    +0.000 N 
ATOM     13  H   UNL     1      43.001   4.539   9.124  0.00  0.00    +0.000 HD
BRANCH  12  15
ATOM     14  C   UNL     1      44.539   2.680  11.018  0.00  0.00    +0.000 C 
ATOM     15  C   UNL     1      44.317   2.982   9.528  0.00  0.00    +0.000 C 
BRANCH  15  16
ATOM     16  C   UNL     1      45.607   2.624   8.723  0.00  0.00    +0.000 C 
ATOM     17  C   UNL     1      45.779   3.483   7.453  0.00  0.00    +0.000 C 
ATOM     18  C   UNL     1      47.052   3.133   6.690  0.00  0.00    +0.000 C 
ATOM     19  C   UNL     1      47.108   1.650   6.350  0.00  0.00    +0.000 C 
ATOM     20  C   UNL     1      46.979   0.793   7.605  0.00  0.00    +0.000 C 
ATOM     21  C   UNL     1      45.705   1.122   8.385  0.00  0.00    +0.000 C 
ENDBRANCH  15  16
ENDBRANCH  12  15
ENDBRANCH   1  12
TORSDOF 4
ENDMDL
MODEL 6
REMARK VINA RESULT:    -6.006      3.387      6.352
REMARK INTER + INTRA:          -8.017
REMARK INTER:                  -7.433
REMARK INTRA:                  -0.584
REMARK UNBOUND:                -0.606
REMARK  Name = 
REMARK  5 active torsions:
REMARK  status: ('A' for Active; 'I' for Inactive)
REMARK    1  A    between atoms: C_1  and  C_2
REMARK    2  A    between atoms: C_2  and  N_3
REMARK    3  A    between atoms: C_2  and  C_13
REMARK    4  A    between atoms: N_3  and  C_4
REMARK    5  A    between atoms: C_7  and  C_8
REMARK                            x       y       z     vdW  Elec       q    Type
REMARK                         _______ _______ _______ _____ _____    ______ ____
ROOT
ATOM      1  C   UNL     1      45.553   5.347  12.901  0.00  0.00    +0.000 A 
ATOM      2  C   UNL     1      46.928   5.341  13.161  0.00  0.00    +0.000 A 
ATOM      3  C   UNL     1      47.634   6.533  13.309  0.00  0.00    +0.000 A 
ATOM      4  C   UNL     1      46.940   7.725  13.153  0.00  0.00    +0.000 A 
ATOM      5  N   UNL     1      45.608   7.793  12.873  0.00  0.00    +0.000 NA
ATOM      6  C   UNL     1      44.960   6.603  12.754  0.00  0.00    +0.000 A 
ENDROOT
BRANCH   4   7
ATOM      7  C   UNL     1      47.681   9.023  13.266  0.00  0.00    +0.000 C 
ATOM      8  N   UNL     1      47.852   9.497  14.540  0.00  0.00    +0.000 N 
ATOM      9  O   UNL     1      48.100   9.636  12.294  0.00  0.00    +0.000 OA
ATOM     10  H   UNL     1      47.477   8.974  15.322  0.00  0.00    +0.000 HD
ATOM     11  H   UNL     1      48.315  10.380  14.684  0.00  0.00    +0.000 HD
ENDBRANCH   4   7
BRANCH   1  12
ATOM     12  N   UNL     1      44.931   4.114  12.697  0.00  0.00    +0.000 N 
ATOM     13  H   UNL     1      45.607   3.381  12.910  0.00  0.00    +0.000 HD
BRANCH  12  15
ATOM     14  C   UNL     1      43.302   2.560  11.700  0.00  0.00    +0.000 C 
ATOM     15  C   UNL     1      44.164   3.812  11.476  0.00  0.00    +0.000 C 
BRANCH  15  16
ATOM     16  C   UNL     1      45.133   3.574  10.275  0.00  0.00    +0.000 C 
ATOM     17  C   UNL     1      45.194   4.774   9.307  0.00  0.00    +0.000 C 
ATOM     18  C   UNL     1      46.159   4.532   8.151  0.00  0.00    +0.000 C 
ATOM     19  C   UNL     1      45.820   3.251   7.402  0.00  0.00    +0.000 C 
ATOM     20  C   UNL     1      45.797   2.052   8.344  0.00  0.00    +0.000 C 
ATOM     21  C   UNL     1      44.830   2.269   9.510  0.00  0.00    +0.000 C 
ENDBRANCH  15  16
ENDBRANCH  12  15
ENDBRANCH   1  12
TORSDOF 4
ENDMDL
MODEL 7
REMARK VINA RESULT:    -5.654      4.394      7.084
REMARK INTER + INTRA:          -7.583
REMARK INTER:                  -7.160
REMARK INTRA:                  -0.423
REMARK UNBOUND:                -0.606
REMARK  Name = 
REMARK  5 active torsions:
REMARK  status: ('A' for Active; 'I' for Inactive)
REMARK    1  A    between atoms: C_1  and  C_2
REMARK    2  A    between atoms: C_2  and  N_3
REMARK    3  A    between atoms: C_2  and  C_13
REMARK    4  A    between atoms: N_3  and  C_4
REMARK    5  A    between atoms: C_7  and  C_8
REMARK                            x       y       z     vdW  Elec       q    Type
REMARK                         _______ _______ _______ _____ _____    ______ ____
ROOT
ATOM      1  C   UNL     1      46.743   4.698  14.390  0.00  0.00    +0.000 A 
ATOM      2  C   UNL     1      47.085   4.222  15.661  0.00  0.00    +0.000 A 
ATOM      3  C   UNL     1      48.074   4.848  16.417  0.00  0.00    +0.000 A 
ATOM      4  C   UNL     1      48.734   5.933  15.858  0.00  0.00    +0.000 A 
ATOM      5  N   UNL     1      48.463   6.424  14.615  0.00  0.00    +0.000 NA
ATOM      6  C   UNL     1      47.478   5.789  13.924  0.00  0.00    +0.000 A 
ENDROOT
BRANCH   4   7
ATOM      7  C   UNL     1      49.830   6.601  16.631  0.00  0.00    +0.000 C 
ATOM      8  N   UNL     1      49.574   7.886  17.029  0.00  0.00    +0.000 N 
ATOM      9  O   UNL     1      50.894   6.052  16.885  0.00  0.00    +0.000 OA
ATOM     10  H   UNL     1      48.690   8.318  16.786  0.00  0.00    +0.000 HD
ATOM     11  H   UNL     1      50.281   8.403  17.527  0.00  0.00    +0.000 HD
ENDBRANCH   4   7
BRANCH   1  12
ATOM     12  N   UNL     1      45.792   3.975  13.667  0.00  0.00    +0.000 N 
ATOM     13  H   UNL     1      46.250   3.151  13.279  0.00  0.00    +0.000 HD
BRANCH  12  15
ATOM     14  C   UNL     1      43.435   4.285  13.028  0.00  0.00    +0.000 C 
ATOM     15  C   UNL     1      44.896   4.614  12.688  0.00  0.00    +0.000 C 
BRANCH  15  16
ATOM     16  C   UNL     1      45.226   4.111  11.246  0.00  0.00    +0.000 C 
ATOM     17  C   UNL     1      45.351   5.260  10.225  0.00  0.00    +0.000 C 
ATOM     18  C   UNL     1      45.691   4.752   8.827  0.00  0.00    +0.000 C 
ATOM     19  C   UNL     1      44.685   3.713   8.352  0.00  0.00    +0.000 C 
ATOM     20  C   UNL     1      44.584   2.553   9.336  0.00  0.00    +0.000 C 
ATOM     21  C   UNL     1      44.236   3.038  10.746  0.00  0.00    +0.000 C 
ENDBRANCH  15  16
ENDBRANCH  12  15
ENDBRANCH   1  12
TORSDOF 4
ENDMDL
MODEL 8
REMARK VINA RESULT:    -5.587      2.937      4.971
REMARK INTER + INTRA:          -7.500
REMARK INTER:                  -6.824
REMARK INTRA:                  -0.676
REMARK UNBOUND:                -0.606
REMARK  Name = 
REMARK  5 active torsions:
REMARK  status: ('A' for Active; 'I' for Inactive)
REMARK    1  A    between atoms: C_1  and  C_2
REMARK    2  A    between atoms: C_2  and  N_3
REMARK    3  A    between atoms: C_2  and  C_13
REMARK    4  A    between atoms: N_3  and  C_4
REMARK    5  A    between atoms: C_7  and  C_8
REMARK                            x       y       z     vdW  Elec       q    Type
REMARK                         _______ _______ _______ _____ _____    ______ ____
ROOT
ATOM      1  C   UNL     1      46.191   6.059  13.028  0.00  0.00    +0.000 A 
ATOM      2  C   UNL     1      46.124   6.521  11.709  0.00  0.00    +0.000 A 
ATOM      3  C   UNL     1      45.467   5.785  10.725  0.00  0.00    +0.000 A 
ATOM      4  C   UNL     1      44.913   4.564  11.085  0.00  0.00    +0.000 A 
ATOM      5  N   UNL     1      44.970   4.051  12.347  0.00  0.00    +0.000 NA
ATOM      6  C   UNL     1      45.608   4.815  13.275  0.00  0.00    +0.000 A 
ENDROOT
BRANCH   4   7
ATOM      7  C   UNL     1      44.235   3.731  10.040  0.00  0.00    +0.000 C 
ATOM      8  N   UNL     1      44.126   4.310   8.803  0.00  0.00    +0.000 N 
ATOM      9  O   UNL     1      43.791   2.614  10.266  0.00  0.00    +0.000 OA
ATOM     10  H   UNL     1      44.488   5.244   8.655  0.00  0.00    +0.000 HD
ATOM     11  H   UNL     1      43.654   3.815   8.063  0.00  0.00    +0.000 HD
ENDBRANCH   4   7
BRANCH   1  12
ATOM     12  N   UNL     1      46.927   6.820  13.939  0.00  0.00    +0.000 N 
ATOM     13  H   UNL     1      46.653   7.796  13.830  0.00  0.00    +0.000 HD
BRANCH  12  15
ATOM     14  C   UNL     1      48.752   6.610  15.578  0.00  0.00    +0.000 C 
ATOM     15  C   UNL     1      48.385   6.675  14.088  0.00  0.00    +0.000 C 
BRANCH  15  16
ATOM     16  C   UNL     1      49.118   7.881  13.418  0.00  0.00    +0.000 C 
ATOM     17  C   UNL     1      48.272   9.171  13.415  0.00  0.00    +0.000 C 
ATOM     18  C   UNL     1      49.011  10.342  12.775  0.00  0.00    +0.000 C 
ATOM     19  C   UNL     1      49.482  10.000  11.368  0.00  0.00    +0.000 C 
ATOM     20  C   UNL     1      50.353   8.749  11.367  0.00  0.00    +0.000 C 
ATOM     21  C   UNL     1      49.630   7.557  11.999  0.00  0.00    +0.000 C 
ENDBRANCH  15  16
ENDBRANCH  12  15
ENDBRANCH   1  12
TORSDOF 4
ENDMDL
MODEL 9
REMARK VINA RESULT:    -5.454      4.294      6.789
REMARK INTER + INTRA:          -7.336
REMARK INTER:                  -6.859
REMARK INTRA:                  -0.477
REMARK UNBOUND:                -0.606
REMARK  Name = 
REMARK  5 active torsions:
REMARK  status: ('A' for Active; 'I' for Inactive)
REMARK    1  A    between atoms: C_1  and  C_2
REMARK    2  A    between atoms: C_2  and  N_3
REMARK    3  A    between atoms: C_2  and  C_13
REMARK    4  A    between atoms: N_3  and  C_4
REMARK    5  A    between atoms: C_7  and  C_8
REMARK                            x       y       z     vdW  Elec       q    Type
REMARK                         _______ _______ _______ _____ _____    ______ ____
ROOT
ATOM      1  C   UNL     1      47.508   6.380  12.672  0.00  0.00    +0.000 A 
ATOM      2  C   UNL     1      48.133   7.284  11.805  0.00  0.00    +0.000 A 
ATOM      3  C   UNL     1      49.302   7.943  12.181  0.00  0.00    +0.000 A 
ATOM      4  C   UNL     1      49.806   7.704  13.452  0.00  0.00    +0.000 A 
ATOM      5  N   UNL     1      49.226   6.856  14.347  0.00  0.00    +0.000 NA
ATOM      6  C   UNL     1      48.097   6.225  13.928  0.00  0.00    +0.000 A 
ENDROOT
BRANCH   4   7
ATOM      7  C   UNL     1      51.039   8.430  13.898  0.00  0.00    +0.000 C 
ATOM      8  N   UNL     1      52.019   7.646  14.447  0.00  0.00    +0.000 N 
ATOM      9  O   UNL     1      51.170   9.642  13.798  0.00  0.00    +0.000 OA
ATOM     10  H   UNL     1      51.872   6.648  14.532  0.00  0.00    +0.000 HD
ATOM     11  H   UNL     1      52.862   8.075  14.795  0.00  0.00    +0.000 HD
ENDBRANCH   4   7
BRANCH   1  12
ATOM     12  N   UNL     1      46.303   5.813  12.250  0.00  0.00    +0.000 N 
ATOM     13  H   UNL     1      46.415   4.800  12.249  0.00  0.00    +0.000 HD
BRANCH  12  15
ATOM     14  C   UNL     1      44.523   7.316  11.455  0.00  0.00    +0.000 C 
ATOM     15  C   UNL     1      45.589   6.286  11.052  0.00  0.00    +0.000 C 
BRANCH  15  16
ATOM     16  C   UNL     1      44.909   5.085  10.320  0.00  0.00    +0.000 C 
ATOM     17  C   UNL     1      44.803   3.826  11.205  0.00  0.00    +0.000 C 
ATOM     18  C   UNL     1      44.121   2.670  10.480  0.00  0.00    +0.000 C 
ATOM     19  C   UNL     1      44.815   2.350   9.164  0.00  0.00    +0.000 C 
ATOM     20  C   UNL     1      44.888   3.580   8.266  0.00  0.00    +0.000 C 
ATOM     21  C   UNL     1      45.576   4.752   8.969  0.00  0.00    +0.000 C 
ENDBRANCH  15  16
ENDBRANCH  12  15
ENDBRANCH   1  12
TORSDOF 4
ENDMDL
