MODEL 1
REMARK VINA RESULT:    -8.812      0.000      0.000
REMARK INTER + INTRA:         -12.149
REMARK INTER:                 -11.388
REMARK INTRA:                  -0.762
REMARK UNBOUND:                -0.762
REMARK  Name = 
REMARK  5 active torsions:
REMARK  status: ('A' for Active; 'I' for Inactive)
REMARK    1  A    between atoms: C_2  and  C_4
REMARK    2  A    between atoms: C_7  and  O_8
REMARK    3  A    between atoms: O_8  and  C_9
REMARK    4  A    between atoms: C_9  and  C_10
REMARK    5  A    between atoms: C_13  and  C_14
REMARK                            x       y       z     vdW  Elec       q    Type
REMARK                         _______ _______ _______ _____ _____    ______ ____
ROOT
ATOM      1  C   UNL     1      43.609   2.926  11.542  0.00  0.00    +0.000 C 
ENDROOT
BRANCH   1   2
ATOM      2  C   UNL     1      44.675   3.659  12.308  0.00  0.00    +0.000 A 
ATOM      3  C   UNL     1      44.638   5.035  12.463  0.00  0.00    +0.000 A 
ATOM      4  C   UNL     1      45.596   5.646  13.268  0.00  0.00    +0.000 A 
ATOM      5  C   UNL     1      46.572   4.868  13.882  0.00  0.00    +0.000 A 
ATOM      6  N   UNL     1      46.589   3.530  13.682  0.00  0.00    +0.000 NA
ATOM      7  N   UNL     1      45.640   2.921  12.895  0.00  0.00    +0.000 NA
BRANCH   5   8
ATOM      8  C   UNL     1      47.589   5.408  14.807  0.00  0.00    +0.000 A 
ATOM      9  C   UNL     1      47.827   4.791  16.051  0.00  0.00    +0.000 A 
ATOM     10  C   UNL     1      48.753   5.309  16.960  0.00  0.00    +0.000 A 
ATOM     11  C   UNL     1      49.470   6.457  16.644  0.00  0.00    +0.000 A 
ATOM     12  C   UNL     1      49.269   7.079  15.415  0.00  0.00    +0.000 A 
ATOM     13  C   UNL     1      48.344   6.556  14.506  0.00  0.00    +0.000 A 
ENDBRANCH   5   8
ENDBRANCH   1   2
BRANCH   1  14
ATOM     14  O   UNL     1      43.493   3.449  10.218  0.00  0.00    +0.000 OA
BRANCH  14  18
ATOM     15  C   UNL     1      46.465   2.549   7.428  0.00  0.00    +0.000 A 
ATOM     16  C   UNL     1      45.949   1.513   8.212  0.00  0.00    +0.000 A 
ATOM     17  C   UNL     1      44.957   1.776   9.161  0.00  0.00    +0.000 A 
ATOM     18  C   UNL     1      44.476   3.076   9.339  0.00  0.00    +0.000 A 
ATOM     19  C   UNL     1      45.011   4.114   8.571  0.00  0.00    +0.000 A 
ATOM     20  C   UNL     1      46.007   3.855   7.623  0.00  0.00    +0.000 A 
BRANCH  15  22
ATOM     21  N   UNL     1      47.557   3.166   5.344  0.00  0.00    +0.000 N 
ATOM     22  C   UNL     1      47.506   2.296   6.399  0.00  0.00    +0.000 C 
ATOM     23  O   UNL     1      48.310   1.381   6.503  0.00  0.00    +0.000 OA
ATOM     24  H   UNL     1      48.334   3.048   4.707  0.00  0.00    +0.000 HD
ATOM     25  H   UNL     1      47.092   4.062   5.356  0.00  0.00    +0.000 HD
ENDBRANCH  15  22
ENDBRANCH  14  18
ENDBRANCH   1  14
TORSDOF 5
ENDMDL
MODEL 2
REMARK VINA RESULT:    -8.149      1.372      1.789
REMARK INTER + INTRA:         -11.293
REMARK INTER:                 -10.573
REMARK INTRA:                  -0.720
REMARK UNBOUND:                -0.762
REMARK  Name = 
REMARK  5 active torsions:
REMARK  status: ('A' for Active; 'I' for Inactive)
REMARK    1  A    between atoms: C_2  and  C_4
REMARK    2  A    between atoms: C_7  and  O_8
REMARK    3  A    between atoms: O_8  and  C_9
REMARK    4  A    between atoms: C_9  and  C_10
REMARK    5  A    between atoms: C_13  and  C_14
REMARK                            x       y       z     vdW  Elec       q    Type
REMARK                         _______ _______ _______ _____ _____    ______ ____
ROOT
ATOM      1  C   UNL     1      43.601   3.337  11.637  0.00  0.00    +0.000 C 
ENDROOT
BRANCH   1   2
ATOM      2  C   UNL     1      44.745   4.145  12.183  0.00  0.00    +0.000 A 
ATOM      3  C   UNL     1      45.778   3.551  12.890  0.00  0.00    +0.000 A 
ATOM      4  C   UNL     1      46.861   4.334  13.281  0.00  0.00    +0.000 A 
ATOM      5  C   UNL     1      46.874   5.690  12.970  0.00  0.00    +0.000 A 
ATOM      6  N   UNL     1      45.832   6.236  12.301  0.00  0.00    +0.000 NA
ATOM      7  N   UNL     1      44.764   5.465  11.905  0.00  0.00    +0.000 NA
BRANCH   5   8
ATOM      8  C   UNL     1      48.002   6.591  13.278  0.00  0.00    +0.000 A 
ATOM      9  C   UNL     1      48.537   6.651  14.581  0.00  0.00    +0.000 A 
ATOM     10  C   UNL     1      49.576   7.527  14.906  0.00  0.00    +0.000 A 
ATOM     11  C   UNL     1      50.111   8.363  13.933  0.00  0.00    +0.000 A 
ATOM     12  C   UNL     1      49.615   8.314  12.633  0.00  0.00    +0.000 A 
ATOM     13  C   UNL     1      48.578   7.435  12.310  0.00  0.00    +0.000 A 
ENDBRANCH   5   8
ENDBRANCH   1   2
BRANCH   1  14
ATOM     14  O   UNL     1      43.405   3.618  10.250  0.00  0.00    +0.000 OA
BRANCH  14  18
ATOM     15  C   UNL     1      46.426   2.585   7.561  0.00  0.00    +0.000 A 
ATOM     16  C   UNL     1      45.898   1.589   8.386  0.00  0.00    +0.000 A 
ATOM     17  C   UNL     1      44.889   1.897   9.304  0.00  0.00    +0.000 A 
ATOM     18  C   UNL     1      44.403   3.203   9.408  0.00  0.00    +0.000 A 
ATOM     19  C   UNL     1      44.951   4.202   8.598  0.00  0.00    +0.000 A 
ATOM     20  C   UNL     1      45.963   3.899   7.682  0.00  0.00    +0.000 A 
BRANCH  15  22
ATOM     21  N   UNL     1      47.527   3.074   5.447  0.00  0.00    +0.000 N 
ATOM     22  C   UNL     1      47.485   2.284   6.564  0.00  0.00    +0.000 C 
ATOM     23  O   UNL     1      48.310   1.400   6.744  0.00  0.00    +0.000 OA
ATOM     24  H   UNL     1      48.313   2.929   4.828  0.00  0.00    +0.000 HD
ATOM     25  H   UNL     1      47.039   3.956   5.388  0.00  0.00    +0.000 HD
ENDBRANCH  15  22
ENDBRANCH  14  18
ENDBRANCH   1  14
TORSDOF 5
ENDMDL
MODEL 3
REMARK VINA RESULT:    -7.910      3.013      7.138
REMARK INTER + INTRA:         -10.984
REMARK INTER:                 -10.722
REMARK INTRA:                  -0.262
REMARK UNBOUND:                -0.762
REMARK  Name = 
REMARK  5 active torsions:
REMARK  status: ('A' for Active; 'I' for Inactive)
REMARK    1  A    between atoms: C_2  and  C_4
REMARK    2  A    between atoms: C_7  and  O_8
REMARK    3  A    between atoms: O_8  and  C_9
REMARK    4  A    between atoms: C_9  and  C_10
REMARK    5  A    between atoms: C_13  and  C_14
REMARK                            x       y       z     vdW  Elec       q    Type
REMARK                         _______ _______ _______ _____ _____    ______ ____
ROOT
ATOM      1  C   UNL     1      42.647   5.216  11.911  0.00  0.00    +0.000 C 
ENDROOT
BRANCH   1   2
ATOM      2  C   UNL     1      43.562   4.503  10.955  0.00  0.00    +0.000 A 
ATOM      3  C   UNL     1      43.695   3.124  10.975  0.00  0.00    +0.000 A 
ATOM      4  C   UNL     1      44.477   2.511   9.999  0.00  0.00    +0.000 A 
ATOM      5  C   UNL     1      45.116   3.293   9.043  0.00  0.00    +0.000 A 
ATOM      6  N   UNL     1      44.982   4.639   9.076  0.00  0.00    +0.000 NA
ATOM      7  N   UNL     1      44.204   5.248  10.032  0.00  0.00    +0.000 NA
BRANCH   5   8
ATOM      8  C   UNL     1      45.911   2.738   7.928  0.00  0.00    +0.000 A 
ATOM      9  C   UNL     1      46.429   1.430   7.999  0.00  0.00    +0.000 A 
ATOM     10  C   UNL     1      47.220   0.900   6.976  0.00  0.00    +0.000 A 
ATOM     11  C   UNL     1      47.507   1.665   5.851  0.00  0.00    +0.000 A 
ATOM     12  C   UNL     1      46.994   2.955   5.745  0.00  0.00    +0.000 A 
ATOM     13  C   UNL     1      46.201   3.481   6.769  0.00  0.00    +0.000 A 
ENDBRANCH   5   8
ENDBRANCH   1   2
BRANCH   1  14
ATOM     14  O   UNL     1      43.265   5.349  13.192  0.00  0.00    +0.000 OA
BRANCH  14  18
ATOM     15  C   UNL     1      47.311   6.372  13.321  0.00  0.00    +0.000 A 
ATOM     16  C   UNL     1      46.400   7.311  12.827  0.00  0.00    +0.000 A 
ATOM     17  C   UNL     1      45.038   7.002  12.762  0.00  0.00    +0.000 A 
ATOM     18  C   UNL     1      44.575   5.754  13.186  0.00  0.00    +0.000 A 
ATOM     19  C   UNL     1      45.491   4.809  13.657  0.00  0.00    +0.000 A 
ATOM     20  C   UNL     1      46.855   5.111  13.718  0.00  0.00    +0.000 A 
BRANCH  15  22
ATOM     21  N   UNL     1      49.410   6.978  12.252  0.00  0.00    +0.000 N 
ATOM     22  C   UNL     1      48.762   6.677  13.418  0.00  0.00    +0.000 C 
ATOM     23  O   UNL     1      49.346   6.700  14.492  0.00  0.00    +0.000 OA
ATOM     24  H   UNL     1      50.369   7.287  12.342  0.00  0.00    +0.000 HD
ATOM     25  H   UNL     1      48.918   7.218  11.403  0.00  0.00    +0.000 HD
ENDBRANCH  15  22
ENDBRANCH  14  18
ENDBRANCH   1  14
TORSDOF 5
ENDMDL
MODEL 4
REMARK VINA RESULT:    -6.990      1.323      2.154
REMARK INTER + INTRA:          -9.795
REMARK INTER:                  -9.207
REMARK INTRA:                  -0.588
REMARK UNBOUND:                -0.762
REMARK  Name = 
REMARK  5 active torsions:
REMARK  status: ('A' for Active; 'I' for Inactive)
REMARK    1  A    between atoms: C_2  and  C_4
REMARK    2  A    between atoms: C_7  and  O_8
REMARK    3  A    between atoms: O_8  and  C_9
REMARK    4  A    between atoms: C_9  and  C_10
REMARK    5  A    between atoms: C_13  and  C_14
REMARK                            x       y       z     vdW  Elec       q    Type
REMARK                         _______ _______ _______ _____ _____    ______ ____
ROOT
ATOM      1  C   UNL     1      44.468   3.794  12.396  0.00  0.00    +0.000 C 
ENDROOT
BRANCH   1   2
ATOM      2  C   UNL     1      45.636   4.624  12.851  0.00  0.00    +0.000 A 
ATOM      3  C   UNL     1      45.752   5.960  12.506  0.00  0.00    +0.000 A 
ATOM      4  C   UNL     1      46.802   6.703  13.041  0.00  0.00    +0.000 A 
ATOM      5  C   UNL     1      47.713   6.087  13.893  0.00  0.00    +0.000 A 
ATOM      6  N   UNL     1      47.579   4.772  14.182  0.00  0.00    +0.000 NA
ATOM      7  N   UNL     1      46.540   4.036  13.663  0.00  0.00    +0.000 NA
BRANCH   5   8
ATOM      8  C   UNL     1      48.818   6.800  14.565  0.00  0.00    +0.000 A 
ATOM      9  C   UNL     1      49.848   7.399  13.813  0.00  0.00    +0.000 A 
ATOM     10  C   UNL     1      50.925   8.041  14.429  0.00  0.00    +0.000 A 
ATOM     11  C   UNL     1      50.997   8.104  15.816  0.00  0.00    +0.000 A 
ATOM     12  C   UNL     1      49.985   7.537  16.585  0.00  0.00    +0.000 A 
ATOM     13  C   UNL     1      48.907   6.897  15.966  0.00  0.00    +0.000 A 
ENDBRANCH   5   8
ENDBRANCH   1   2
BRANCH   1  14
ATOM     14  O   UNL     1      43.972   4.271  11.144  0.00  0.00    +0.000 OA
BRANCH  14  18
ATOM     15  C   UNL     1      46.157   2.890   7.865  0.00  0.00    +0.000 A 
ATOM     16  C   UNL     1      45.999   4.269   8.029  0.00  0.00    +0.000 A 
ATOM     17  C   UNL     1      45.268   4.770   9.111  0.00  0.00    +0.000 A 
ATOM     18  C   UNL     1      44.687   3.897  10.035  0.00  0.00    +0.000 A 
ATOM     19  C   UNL     1      44.827   2.519   9.855  0.00  0.00    +0.000 A 
ATOM     20  C   UNL     1      45.553   2.014   8.771  0.00  0.00    +0.000 A 
BRANCH  15  22
ATOM     21  N   UNL     1      47.724   1.239   7.006  0.00  0.00    +0.000 N 
ATOM     22  C   UNL     1      46.943   2.330   6.735  0.00  0.00    +0.000 C 
ATOM     23  O   UNL     1      46.870   2.791   5.606  0.00  0.00    +0.000 OA
ATOM     24  H   UNL     1      48.170   0.803   6.210  0.00  0.00    +0.000 HD
ATOM     25  H   UNL     1      47.612   0.686   7.843  0.00  0.00    +0.000 HD
ENDBRANCH  15  22
ENDBRANCH  14  18
ENDBRANCH   1  14
TORSDOF 5
ENDMDL
MODEL 5
REMARK VINA RESULT:    -6.614      4.159      6.338
REMARK INTER + INTRA:          -9.309
REMARK INTER:                  -8.738
REMARK INTRA:                  -0.571
REMARK UNBOUND:                -0.762
REMARK  Name = 
REMARK  5 active torsions:
REMARK  status: ('A' for Active; 'I' for Inactive)
REMARK    1  A    between atoms: C_2  and  C_4
REMARK    2  A    between atoms: C_7  and  O_8
REMARK    3  A    between atoms: O_8  and  C_9
REMARK    4  A    between atoms: C_9  and  C_10
REMARK    5  A    between atoms: C_13  and  C_14
REMARK                            x       y       z     vdW  Elec       q    Type
REMARK                         _______ _______ _______ _____ _____    ______ ____
ROOT
ATOM      1  C   UNL     1      47.494   4.566  15.999  0.00  0.00    +0.000 C 
ENDROOT
BRANCH   1   2
ATOM      2  C   UNL     1      48.695   3.865  16.569  0.00  0.00    +0.000 A 
ATOM      3  C   UNL     1      48.747   2.484  16.666  0.00  0.00    +0.000 A 
ATOM      4  C   UNL     1      49.926   1.886  17.106  0.00  0.00    +0.000 A 
ATOM      5  C   UNL     1      51.012   2.684  17.451  0.00  0.00    +0.000 A 
ATOM      6  N   UNL     1      50.910   4.030  17.367  0.00  0.00    +0.000 NA
ATOM      7  N   UNL     1      49.751   4.625  16.925  0.00  0.00    +0.000 NA
BRANCH   5   8
ATOM      8  C   UNL     1      52.325   2.148  17.862  0.00  0.00    +0.000 A 
ATOM      9  C   UNL     1      53.269   2.975  18.503  0.00  0.00    +0.000 A 
ATOM     10  C   UNL     1      54.533   2.502  18.862  0.00  0.00    +0.000 A 
ATOM     11  C   UNL     1      54.884   1.183  18.594  0.00  0.00    +0.000 A 
ATOM     12  C   UNL     1      53.966   0.337  17.978  0.00  0.00    +0.000 A 
ATOM     13  C   UNL     1      52.701   0.813  17.622  0.00  0.00    +0.000 A 
ENDBRANCH   5   8
ENDBRANCH   1   2
BRANCH   1  14
ATOM     14  O   UNL     1      47.794   5.111  14.713  0.00  0.00    +0.000 OA
BRANCH  14  18
ATOM     15  C   UNL     1      44.880   4.445  11.799  0.00  0.00    +0.000 A 
ATOM     16  C   UNL     1      45.185   5.763  12.149  0.00  0.00    +0.000 A 
ATOM     17  C   UNL     1      46.151   6.026  13.125  0.00  0.00    +0.000 A 
ATOM     18  C   UNL     1      46.817   4.976  13.763  0.00  0.00    +0.000 A 
ATOM     19  C   UNL     1      46.492   3.658  13.427  0.00  0.00    +0.000 A 
ATOM     20  C   UNL     1      45.523   3.390  12.454  0.00  0.00    +0.000 A 
BRANCH  15  22
ATOM     21  N   UNL     1      44.003   4.785   9.556  0.00  0.00    +0.000 N 
ATOM     22  C   UNL     1      43.872   4.135  10.752  0.00  0.00    +0.000 C 
ATOM     23  O   UNL     1      42.989   3.308  10.930  0.00  0.00    +0.000 OA
ATOM     24  H   UNL     1      43.378   4.489   8.818  0.00  0.00    +0.000 HD
ATOM     25  H   UNL     1      44.850   5.267   9.289  0.00  0.00    +0.000 HD
ENDBRANCH  15  22
ENDBRANCH  14  18
ENDBRANCH   1  14
TORSDOF 5
ENDMDL
MODEL 6
REMARK VINA RESULT:    -6.510      4.788      8.766
REMARK INTER + INTRA:          -9.175
REMARK INTER:                  -8.568
REMARK INTRA:                  -0.606
REMARK UNBOUND:                -0.762
REMARK  Name = 
REMARK  5 active torsions:
REMARK  status: ('A' for Active; 'I' for Inactive)
REMARK    1  A    between atoms: C_2  and  C_4
REMARK    2  A    between atoms: C_7  and  O_8
REMARK    3  A    between atoms: O_8  and  C_9
REMARK    4  A    between atoms: C_9  and  C_10
REMARK    5  A    between atoms: C_13  and  C_14
REMARK                            x       y       z     vdW  Elec       q    Type
REMARK                         _______ _______ _______ _____ _____    ______ ____
ROOT
ATOM      1  C   UNL     1      48.763   4.808  17.522  0.00  0.00    +0.000 C 
ENDROOT
BRANCH   1   2
ATOM      2  C   UNL     1      48.005   4.930  16.230  0.00  0.00    +0.000 A 
ATOM      3  C   UNL     1      48.265   5.954  15.333  0.00  0.00    +0.000 A 
ATOM      4  C   UNL     1      47.603   5.956  14.107  0.00  0.00    +0.000 A 
ATOM      5  C   UNL     1      46.690   4.946  13.820  0.00  0.00    +0.000 A 
ATOM      6  N   UNL     1      46.445   3.981  14.736  0.00  0.00    +0.000 NA
ATOM      7  N   UNL     1      47.102   3.969  15.944  0.00  0.00    +0.000 NA
BRANCH   5   8
ATOM      8  C   UNL     1      45.988   4.820  12.527  0.00  0.00    +0.000 A 
ATOM      9  C   UNL     1      45.266   3.651  12.214  0.00  0.00    +0.000 A 
ATOM     10  C   UNL     1      44.630   3.492  10.980  0.00  0.00    +0.000 A 
ATOM     11  C   UNL     1      44.696   4.503  10.028  0.00  0.00    +0.000 A 
ATOM     12  C   UNL     1      45.387   5.677  10.315  0.00  0.00    +0.000 A 
ATOM     13  C   UNL     1      46.019   5.834  11.552  0.00  0.00    +0.000 A 
ENDBRANCH   5   8
ENDBRANCH   1   2
BRANCH   1  14
ATOM     14  O   UNL     1      50.170   4.903  17.289  0.00  0.00    +0.000 OA
BRANCH  14  18
ATOM     15  C   UNL     1      52.566   1.529  17.834  0.00  0.00    +0.000 A 
ATOM     16  C   UNL     1      51.231   1.346  17.463  0.00  0.00    +0.000 A 
ATOM     17  C   UNL     1      50.395   2.452  17.278  0.00  0.00    +0.000 A 
ATOM     18  C   UNL     1      50.885   3.748  17.464  0.00  0.00    +0.000 A 
ATOM     19  C   UNL     1      52.214   3.925  17.858  0.00  0.00    +0.000 A 
ATOM     20  C   UNL     1      53.052   2.821  18.050  0.00  0.00    +0.000 A 
BRANCH  15  22
ATOM     21  N   UNL     1      52.949  -0.755  18.581  0.00  0.00    +0.000 N 
ATOM     22  C   UNL     1      53.482   0.374  18.020  0.00  0.00    +0.000 C 
ATOM     23  O   UNL     1      54.649   0.409  17.655  0.00  0.00    +0.000 OA
ATOM     24  H   UNL     1      53.552  -1.566  18.606  0.00  0.00    +0.000 HD
ATOM     25  H   UNL     1      51.953  -0.906  18.653  0.00  0.00    +0.000 HD
ENDBRANCH  15  22
ENDBRANCH  14  18
ENDBRANCH   1  14
TORSDOF 5
ENDMDL
MODEL 7
REMARK VINA RESULT:    -5.992      2.737      7.879
REMARK INTER + INTRA:          -8.505
REMARK INTER:                  -8.110
REMARK INTRA:                  -0.395
REMARK UNBOUND:                -0.762
REMARK  Name = 
REMARK  5 active torsions:
REMARK  status: ('A' for Active; 'I' for Inactive)
REMARK    1  A    between atoms: C_2  and  C_4
REMARK    2  A    between atoms: C_7  and  O_8
REMARK    3  A    between atoms: O_8  and  C_9
REMARK    4  A    between atoms: C_9  and  C_10
REMARK    5  A    between atoms: C_13  and  C_14
REMARK                            x       y       z     vdW  Elec       q    Type
REMARK                         _______ _______ _______ _____ _____    ______ ____
ROOT
ATOM      1  C   UNL     1      44.487   5.026  12.803  0.00  0.00    +0.000 C 
ENDROOT
BRANCH   1   2
ATOM      2  C   UNL     1      44.889   4.559  11.432  0.00  0.00    +0.000 A 
ATOM      3  C   UNL     1      45.277   5.455  10.449  0.00  0.00    +0.000 A 
ATOM      4  C   UNL     1      45.737   4.958   9.231  0.00  0.00    +0.000 A 
ATOM      5  C   UNL     1      45.780   3.582   9.025  0.00  0.00    +0.000 A 
ATOM      6  N   UNL     1      45.365   2.743  10.002  0.00  0.00    +0.000 NA
ATOM      7  N   UNL     1      44.918   3.229  11.209  0.00  0.00    +0.000 NA
BRANCH   5   8
ATOM      8  C   UNL     1      46.313   2.953   7.800  0.00  0.00    +0.000 A 
ATOM      9  C   UNL     1      46.433   3.694   6.607  0.00  0.00    +0.000 A 
ATOM     10  C   UNL     1      46.893   3.109   5.425  0.00  0.00    +0.000 A 
ATOM     11  C   UNL     1      47.251   1.766   5.408  0.00  0.00    +0.000 A 
ATOM     12  C   UNL     1      47.161   1.013   6.575  0.00  0.00    +0.000 A 
ATOM     13  C   UNL     1      46.702   1.602   7.757  0.00  0.00    +0.000 A 
ENDBRANCH   5   8
ENDBRANCH   1   2
BRANCH   1  14
ATOM     14  O   UNL     1      45.195   4.298  13.808  0.00  0.00    +0.000 OA
BRANCH  14  18
ATOM     15  C   UNL     1      48.602   6.308  15.144  0.00  0.00    +0.000 A 
ATOM     16  C   UNL     1      48.148   5.205  15.873  0.00  0.00    +0.000 A 
ATOM     17  C   UNL     1      47.007   4.511  15.461  0.00  0.00    +0.000 A 
ATOM     18  C   UNL     1      46.308   4.913  14.320  0.00  0.00    +0.000 A 
ATOM     19  C   UNL     1      46.751   6.031  13.606  0.00  0.00    +0.000 A 
ATOM     20  C   UNL     1      47.889   6.732  14.018  0.00  0.00    +0.000 A 
BRANCH  15  22
ATOM     21  N   UNL     1      50.033   7.214  16.890  0.00  0.00    +0.000 N 
ATOM     22  C   UNL     1      49.821   7.055  15.547  0.00  0.00    +0.000 C 
ATOM     23  O   UNL     1      50.623   7.475  14.726  0.00  0.00    +0.000 OA
ATOM     24  H   UNL     1      50.917   7.629  17.155  0.00  0.00    +0.000 HD
ATOM     25  H   UNL     1      49.543   6.670  17.585  0.00  0.00    +0.000 HD
ENDBRANCH  15  22
ENDBRANCH  14  18
ENDBRANCH   1  14
TORSDOF 5
ENDMDL
MODEL 8
REMARK VINA RESULT:    -5.928      3.030      4.852
REMARK INTER + INTRA:          -8.422
REMARK INTER:                  -7.810
REMARK INTRA:                  -0.612
REMARK UNBOUND:                -0.762
REMARK  Name = 
REMARK  5 active torsions:
REMARK  status: ('A' for Active; 'I' for Inactive)
REMARK    1  A    between atoms: C_2  and  C_4
REMARK    2  A    between atoms: C_7  and  O_8
REMARK    3  A    between atoms: O_8  and  C_9
REMARK    4  A    between atoms: C_9  and  C_10
REMARK    5  A    between atoms: C_13  and  C_14
REMARK                            x       y       z     vdW  Elec       q    Type
REMARK                         _______ _______ _______ _____ _____    ______ ____
ROOT
ATOM      1  C   UNL     1      47.678   7.816  12.472  0.00  0.00    +0.000 C 
ENDROOT
BRANCH   1   2
ATOM      2  C   UNL     1      48.174   7.459  13.845  0.00  0.00    +0.000 A 
ATOM      3  C   UNL     1      48.355   8.425  14.822  0.00  0.00    +0.000 A 
ATOM      4  C   UNL     1      48.718   8.022  16.105  0.00  0.00    +0.000 A 
ATOM      5  C   UNL     1      48.905   6.669  16.371  0.00  0.00    +0.000 A 
ATOM      6  N   UNL     1      48.744   5.761  15.381  0.00  0.00    +0.000 NA
ATOM      7  N   UNL     1      48.378   6.153  14.115  0.00  0.00    +0.000 NA
BRANCH   5   8
ATOM      8  C   UNL     1      49.223   6.134  17.710  0.00  0.00    +0.000 A 
ATOM      9  C   UNL     1      50.284   5.224  17.885  0.00  0.00    +0.000 A 
ATOM     10  C   UNL     1      50.576   4.671  19.135  0.00  0.00    +0.000 A 
ATOM     11  C   UNL     1      49.814   5.020  20.245  0.00  0.00    +0.000 A 
ATOM     12  C   UNL     1      48.771   5.930  20.106  0.00  0.00    +0.000 A 
ATOM     13  C   UNL     1      48.483   6.484  18.855  0.00  0.00    +0.000 A 
ENDBRANCH   5   8
ENDBRANCH   1   2
BRANCH   1  14
ATOM     14  O   UNL     1      46.251   7.770  12.427  0.00  0.00    +0.000 OA
BRANCH  14  18
ATOM     15  C   UNL     1      44.522   4.142  11.297  0.00  0.00    +0.000 A 
ATOM     16  C   UNL     1      45.274   4.846  10.352  0.00  0.00    +0.000 A 
ATOM     17  C   UNL     1      45.863   6.068  10.691  0.00  0.00    +0.000 A 
ATOM     18  C   UNL     1      45.703   6.598  11.974  0.00  0.00    +0.000 A 
ATOM     19  C   UNL     1      44.930   5.904  12.909  0.00  0.00    +0.000 A 
ATOM     20  C   UNL     1      44.335   4.683  12.572  0.00  0.00    +0.000 A 
BRANCH  15  22
ATOM     21  N   UNL     1      44.427   2.143   9.914  0.00  0.00    +0.000 N 
ATOM     22  C   UNL     1      43.899   2.833  10.971  0.00  0.00    +0.000 C 
ATOM     23  O   UNL     1      42.985   2.369  11.637  0.00  0.00    +0.000 OA
ATOM     24  H   UNL     1      44.067   1.209   9.768  0.00  0.00    +0.000 HD
ATOM     25  H   UNL     1      45.327   2.367   9.514  0.00  0.00    +0.000 HD
ENDBRANCH  15  22
ENDBRANCH  14  18
ENDBRANCH   1  14
TORSDOF 5
ENDMDL
