MODEL 1
REMARK VINA RESULT:    -7.714      0.000      0.000
REMARK INTER + INTRA:         -11.500
REMARK INTER:                 -10.420
REMARK INTRA:                  -1.080
REMARK UNBOUND:                -1.080
REMARK  Name = 
REMARK  7 active torsions:
REMARK  status: ('A' for Active; 'I' for Inactive)
REMARK    1  A    between atoms: C_1  and  N_2
REMARK    2  A    between atoms: N_2  and  C_3
REMARK    3  A    between atoms: C_3  and  C_4
REMARK    4  A    between atoms: C_7  and  C_8
REMARK    5  A    between atoms: C_8  and  N_9
REMARK    6  A    between atoms: C_10  and  C_12
REMARK    7  A    between atoms: C_24  and  C_26
REMARK                            x       y       z     vdW  Elec       q    Type
REMARK                         _______ _______ _______ _____ _____    ______ ____
ROOT
ATOM      1  C   UNL     1      50.215   6.640  16.322  0.00  0.00    +0.000 A 
ATOM      2  C   UNL     1      50.959   7.394  15.401  0.00  0.00    +0.000 A 
ATOM      3  C   UNL     1      50.393   7.803  14.188  0.00  0.00    +0.000 A 
ATOM      4  C   UNL     1      49.057   7.510  13.888  0.00  0.00    +0.000 A 
ATOM      5  C   UNL     1      48.299   6.803  14.833  0.00  0.00    +0.000 A 
ATOM      6  C   UNL     1      48.870   6.374  16.038  0.00  0.00    +0.000 A 
ENDROOT
BRANCH   1   7
ATOM      7  C   UNL     1      50.899   6.017  17.515  0.00  0.00    +0.000 C 
BRANCH   7   9
ATOM      8  C   UNL     1      49.811   6.736  19.677  0.00  0.00    +0.000 C 
ATOM      9  N   UNL     1      50.131   5.693  18.716  0.00  0.00    +0.000 N 
ATOM     10  C   UNL     1      49.436   4.479  18.856  0.00  0.00    +0.000 C 
ATOM     11  O   UNL     1      48.568   4.347  19.719  0.00  0.00    +0.000 OA
BRANCH  10  12
ATOM     12  C   UNL     1      49.705   3.375  17.958  0.00  0.00    +0.000 A 
ATOM     13  C   UNL     1      49.058   2.821  16.871  0.00  0.00    +0.000 A 
ATOM     14  N   UNL     1      49.746   1.751  16.360  0.00  0.00    +0.000 NA
ATOM     15  C   UNL     1      50.840   1.675  17.077  0.00  0.00    +0.000 A 
ATOM     16  N   UNL     1      50.880   2.652  18.027  0.00  0.00    +0.000 N 
ATOM     17  H   UNL     1      51.628   2.828  18.684  0.00  0.00    +0.000 HD
ENDBRANCH  10  12
ENDBRANCH   7   9
ENDBRANCH   1   7
BRANCH   4  18
ATOM     18  C   UNL     1      48.451   7.930  12.570  0.00  0.00    +0.000 C 
BRANCH  18  19
ATOM     19  N   UNL     1      47.326   7.110  12.191  0.00  0.00    +0.000 N 
ATOM     20  C   UNL     1      46.033   7.498  12.449  0.00  0.00    +0.000 C 
ATOM     21  O   UNL     1      45.774   8.538  13.055  0.00  0.00    +0.000 OA
ATOM     22  H   UNL     1      47.515   6.244  11.695  0.00  0.00    +0.000 HD
BRANCH  20  23
ATOM     23  C   UNL     1      44.971   6.611  11.960  0.00  0.00    +0.000 A 
ATOM     24  C   UNL     1      43.871   7.059  11.229  0.00  0.00    +0.000 A 
ATOM     25  N   UNL     1      43.061   5.995  10.921  0.00  0.00    +0.000 N 
ATOM     26  C   UNL     1      43.601   4.863  11.451  0.00  0.00    +0.000 A 
ATOM     27  N   UNL     1      43.025   3.642  11.344  0.00  0.00    +0.000 NA
ATOM     28  C   UNL     1      43.706   2.710  11.936  0.00  0.00    +0.000 A 
ATOM     29  N   UNL     1      44.898   2.900  12.600  0.00  0.00    +0.000 N 
ATOM     30  C   UNL     1      45.520   4.127  12.701  0.00  0.00    +0.000 A 
ATOM     31  O   UNL     1      46.597   4.271  13.272  0.00  0.00    +0.000 OA
ATOM     32  C   UNL     1      44.781   5.201  12.082  0.00  0.00    +0.000 A 
ATOM     33  H   UNL     1      42.198   6.027  10.397  0.00  0.00    +0.000 HD
ATOM     34  H   UNL     1      45.377   2.127  13.037  0.00  0.00    +0.000 HD
ENDBRANCH  20  23
ENDBRANCH  18  19
ENDBRANCH   4  18
TORSDOF 6
ENDMDL
MODEL 2
REMARK VINA RESULT:    -7.667      2.368      8.508
REMARK INTER + INTRA:         -11.436
REMARK INTER:                 -10.576
REMARK INTRA:                  -0.860
REMARK UNBOUND:                -1.080
REMARK  Name = 
REMARK  7 active torsions:
REMARK  status: ('A' for Active; 'I' for Inactive)
REMARK    1  A    between atoms: C_1  and  N_2
REMARK    2  A    between atoms: N_2  and  C_3
REMARK    3  A    between atoms: C_3  and  C_4
REMARK    4  A    between atoms: C_7  and  C_8
REMARK    5  A    between atoms: C_8  and  N_9
REMARK    6  A    between atoms: C_10  and  C_12
REMARK    7  A    between atoms: C_24  and  C_26
REMARK                            x       y       z     vdW  Elec       q    Type
REMARK                         _______ _______ _______ _____ _____    ______ ____
ROOT
ATOM      1  C   UNL     1      46.400   4.830  13.326  0.00  0.00    +0.000 A 
ATOM      2  C   UNL     1      46.721   4.391  14.620  0.00  0.00    +0.000 A 
ATOM      3  C   UNL     1      47.657   5.081  15.398  0.00  0.00    +0.000 A 
ATOM      4  C   UNL     1      48.259   6.253  14.921  0.00  0.00    +0.000 A 
ATOM      5  C   UNL     1      47.897   6.720  13.649  0.00  0.00    +0.000 A 
ATOM      6  C   UNL     1      46.977   6.019  12.860  0.00  0.00    +0.000 A 
ENDROOT
BRANCH   1   7
ATOM      7  C   UNL     1      45.566   3.959  12.417  0.00  0.00    +0.000 C 
BRANCH   7   9
ATOM      8  C   UNL     1      43.253   4.549  13.241  0.00  0.00    +0.000 C 
ATOM      9  N   UNL     1      44.173   4.307  12.142  0.00  0.00    +0.000 N 
ATOM     10  C   UNL     1      43.738   4.700  10.864  0.00  0.00    +0.000 C 
ATOM     11  O   UNL     1      42.655   5.267  10.715  0.00  0.00    +0.000 OA
BRANCH  10  12
ATOM     12  C   UNL     1      44.578   4.477   9.705  0.00  0.00    +0.000 A 
ATOM     13  C   UNL     1      45.668   5.120   9.152  0.00  0.00    +0.000 A 
ATOM     14  N   UNL     1      46.105   4.493   8.014  0.00  0.00    +0.000 NA
ATOM     15  C   UNL     1      45.339   3.436   7.891  0.00  0.00    +0.000 A 
ATOM     16  N   UNL     1      44.430   3.363   8.904  0.00  0.00    +0.000 N 
ATOM     17  H   UNL     1      43.748   2.630   9.054  0.00  0.00    +0.000 HD
ENDBRANCH  10  12
ENDBRANCH   7   9
ENDBRANCH   1   7
BRANCH   4  18
ATOM     18  C   UNL     1      49.287   6.986  15.749  0.00  0.00    +0.000 C 
BRANCH  18  19
ATOM     19  N   UNL     1      50.295   6.106  16.288  0.00  0.00    +0.000 N 
ATOM     20  C   UNL     1      50.201   5.599  17.562  0.00  0.00    +0.000 C 
ATOM     21  O   UNL     1      49.280   5.907  18.319  0.00  0.00    +0.000 OA
ATOM     22  H   UNL     1      51.068   5.842  15.685  0.00  0.00    +0.000 HD
BRANCH  20  23
ATOM     23  C   UNL     1      51.255   4.666  17.978  0.00  0.00    +0.000 A 
ATOM     24  C   UNL     1      52.388   5.054  18.692  0.00  0.00    +0.000 A 
ATOM     25  N   UNL     1      53.179   3.958  18.928  0.00  0.00    +0.000 N 
ATOM     26  C   UNL     1      52.594   2.864  18.367  0.00  0.00    +0.000 A 
ATOM     27  N   UNL     1      53.142   1.626  18.403  0.00  0.00    +0.000 NA
ATOM     28  C   UNL     1      52.419   0.737  17.793  0.00  0.00    +0.000 A 
ATOM     29  N   UNL     1      51.212   0.986  17.177  0.00  0.00    +0.000 N 
ATOM     30  C   UNL     1      50.619   2.231  17.149  0.00  0.00    +0.000 A 
ATOM     31  O   UNL     1      49.529   2.425  16.620  0.00  0.00    +0.000 OA
ATOM     32  C   UNL     1      51.404   3.257  17.790  0.00  0.00    +0.000 A 
ATOM     33  H   UNL     1      54.059   3.946  19.425  0.00  0.00    +0.000 HD
ATOM     34  H   UNL     1      50.700   0.244  16.722  0.00  0.00    +0.000 HD
ENDBRANCH  20  23
ENDBRANCH  18  19
ENDBRANCH   4  18
TORSDOF 6
ENDMDL
MODEL 3
REMARK VINA RESULT:    -7.479      2.407      7.892
REMARK INTER + INTRA:         -11.183
REMARK INTER:                 -10.581
REMARK INTRA:                  -0.602
REMARK UNBOUND:                -1.080
REMARK  Name = 
REMARK  7 active torsions:
REMARK  status: ('A' for Active; 'I' for Inactive)
REMARK    1  A    between atoms: C_1  and  N_2
REMARK    2  A    between atoms: N_2  and  C_3
REMARK    3  A    between atoms: C_3  and  C_4
REMARK    4  A    between atoms: C_7  and  C_8
REMARK    5  A    between atoms: C_8  and  N_9
REMARK    6  A    between atoms: C_10  and  C_12
REMARK    7  A    between atoms: C_24  and  C_26
REMARK                            x       y       z     vdW  Elec       q    Type
REMARK                         _______ _______ _______ _____ _____    ______ ____
ROOT
ATOM      1  C   UNL     1      45.367   6.603  11.739  0.00  0.00    +0.000 A 
ATOM      2  C   UNL     1      45.169   7.927  12.160  0.00  0.00    +0.000 A 
ATOM      3  C   UNL     1      46.128   8.581  12.941  0.00  0.00    +0.000 A 
ATOM      4  C   UNL     1      47.329   7.945  13.279  0.00  0.00    +0.000 A 
ATOM      5  C   UNL     1      47.549   6.641  12.812  0.00  0.00    +0.000 A 
ATOM      6  C   UNL     1      46.581   5.977  12.048  0.00  0.00    +0.000 A 
ENDROOT
BRANCH   1   7
ATOM      7  C   UNL     1      44.236   5.838  11.094  0.00  0.00    +0.000 C 
BRANCH   7   9
ATOM      8  C   UNL     1      42.951   4.744  12.972  0.00  0.00    +0.000 C 
ATOM      9  N   UNL     1      43.704   4.636  11.733  0.00  0.00    +0.000 N 
ATOM     10  C   UNL     1      43.635   3.401  11.065  0.00  0.00    +0.000 C 
ATOM     11  O   UNL     1      42.925   2.491  11.496  0.00  0.00    +0.000 OA
BRANCH  10  12
ATOM     12  C   UNL     1      44.371   3.193   9.835  0.00  0.00    +0.000 A 
ATOM     13  C   UNL     1      44.549   3.914   8.670  0.00  0.00    +0.000 A 
ATOM     14  N   UNL     1      45.358   3.254   7.782  0.00  0.00    +0.000 NA
ATOM     15  C   UNL     1      45.732   2.164   8.406  0.00  0.00    +0.000 A 
ATOM     16  N   UNL     1      45.194   2.099   9.657  0.00  0.00    +0.000 N 
ATOM     17  H   UNL     1      45.352   1.377  10.347  0.00  0.00    +0.000 HD
ENDBRANCH  10  12
ENDBRANCH   7   9
ENDBRANCH   1   7
BRANCH   4  18
ATOM     18  C   UNL     1      48.355   8.640  14.141  0.00  0.00    +0.000 C 
BRANCH  18  19
ATOM     19  N   UNL     1      48.306   8.210  15.517  0.00  0.00    +0.000 N 
ATOM     20  C   UNL     1      49.204   7.298  16.020  0.00  0.00    +0.000 C 
ATOM     21  O   UNL     1      50.061   6.771  15.310  0.00  0.00    +0.000 OA
ATOM     22  H   UNL     1      47.603   8.626  16.121  0.00  0.00    +0.000 HD
BRANCH  20  23
ATOM     23  C   UNL     1      49.093   6.985  17.449  0.00  0.00    +0.000 A 
ATOM     24  C   UNL     1      49.107   7.955  18.452  0.00  0.00    +0.000 A 
ATOM     25  N   UNL     1      48.986   7.349  19.677  0.00  0.00    +0.000 N 
ATOM     26  C   UNL     1      48.910   6.001  19.496  0.00  0.00    +0.000 A 
ATOM     27  N   UNL     1      48.812   5.118  20.517  0.00  0.00    +0.000 NA
ATOM     28  C   UNL     1      48.768   3.885  20.114  0.00  0.00    +0.000 A 
ATOM     29  N   UNL     1      48.803   3.480  18.797  0.00  0.00    +0.000 N 
ATOM     30  C   UNL     1      48.876   4.360  17.738  0.00  0.00    +0.000 A 
ATOM     31  O   UNL     1      48.876   3.981  16.570  0.00  0.00    +0.000 OA
ATOM     32  C   UNL     1      48.958   5.743  18.142  0.00  0.00    +0.000 A 
ATOM     33  H   UNL     1      48.964   7.809  20.576  0.00  0.00    +0.000 HD
ATOM     34  H   UNL     1      48.762   2.502  18.555  0.00  0.00    +0.000 HD
ENDBRANCH  20  23
ENDBRANCH  18  19
ENDBRANCH   4  18
TORSDOF 6
ENDMDL
MODEL 4
REMARK VINA RESULT:    -7.260      1.756      2.311
REMARK INTER + INTRA:         -10.887
REMARK INTER:                  -9.538
REMARK INTRA:                  -1.349
REMARK UNBOUND:                -1.080
REMARK  Name = 
REMARK  7 active torsions:
REMARK  status: ('A' for Active; 'I' for Inactive)
REMARK    1  A    between atoms: C_1  and  N_2
REMARK    2  A    between atoms: N_2  and  C_3
REMARK    3  A    between atoms: C_3  and  C_4
REMARK    4  A    between atoms: C_7  and  C_8
REMARK    5  A    between atoms: C_8  and  N_9
REMARK    6  A    between atoms: C_10  and  C_12
REMARK    7  A    between atoms: C_24  and  C_26
REMARK                            x       y       z     vdW  Elec       q    Type
REMARK                         _______ _______ _______ _____ _____    ______ ____
ROOT
ATOM      1  C   UNL     1      50.400   5.891  17.572  0.00  0.00    +0.000 A 
ATOM      2  C   UNL     1      51.025   6.244  16.366  0.00  0.00    +0.000 A 
ATOM      3  C   UNL     1      50.408   7.126  15.472  0.00  0.00    +0.000 A 
ATOM      4  C   UNL     1      49.176   7.714  15.784  0.00  0.00    +0.000 A 
ATOM      5  C   UNL     1      48.577   7.402  17.013  0.00  0.00    +0.000 A 
ATOM      6  C   UNL     1      49.182   6.502  17.900  0.00  0.00    +0.000 A 
ENDROOT
BRANCH   1   7
ATOM      7  C   UNL     1      50.964   4.774  18.417  0.00  0.00    +0.000 C 
BRANCH   7   9
ATOM      8  C   UNL     1      52.724   3.060  17.834  0.00  0.00    +0.000 C 
ATOM      9  N   UNL     1      51.340   3.504  17.799  0.00  0.00    +0.000 N 
ATOM     10  C   UNL     1      50.386   2.544  17.418  0.00  0.00    +0.000 C 
ATOM     11  O   UNL     1      50.721   1.382  17.184  0.00  0.00    +0.000 OA
BRANCH  10  12
ATOM     12  C   UNL     1      48.985   2.900  17.334  0.00  0.00    +0.000 A 
ATOM     13  C   UNL     1      47.921   2.893  18.214  0.00  0.00    +0.000 A 
ATOM     14  N   UNL     1      46.766   3.332  17.621  0.00  0.00    +0.000 NA
ATOM     15  C   UNL     1      47.115   3.670  16.403  0.00  0.00    +0.000 A 
ATOM     16  N   UNL     1      48.446   3.463  16.194  0.00  0.00    +0.000 N 
ATOM     17  H   UNL     1      48.966   3.672  15.352  0.00  0.00    +0.000 HD
ENDBRANCH  10  12
ENDBRANCH   7   9
ENDBRANCH   1   7
BRANCH   4  18
ATOM     18  C   UNL     1      48.497   8.648  14.810  0.00  0.00    +0.000 C 
BRANCH  18  19
ATOM     19  N   UNL     1      47.285   8.092  14.261  0.00  0.00    +0.000 N 
ATOM     20  C   UNL     1      47.311   7.188  13.227  0.00  0.00    +0.000 C 
ATOM     21  O   UNL     1      48.365   6.845  12.690  0.00  0.00    +0.000 OA
ATOM     22  H   UNL     1      46.402   8.366  14.684  0.00  0.00    +0.000 HD
BRANCH  20  23
ATOM     23  C   UNL     1      46.018   6.645  12.794  0.00  0.00    +0.000 A 
ATOM     24  C   UNL     1      44.946   7.442  12.395  0.00  0.00    +0.000 A 
ATOM     25  N   UNL     1      43.884   6.643  12.051  0.00  0.00    +0.000 N 
ATOM     26  C   UNL     1      44.236   5.340  12.235  0.00  0.00    +0.000 A 
ATOM     27  N   UNL     1      43.396   4.303  12.009  0.00  0.00    +0.000 NA
ATOM     28  C   UNL     1      43.937   3.152  12.263  0.00  0.00    +0.000 A 
ATOM     29  N   UNL     1      45.229   2.964  12.704  0.00  0.00    +0.000 N 
ATOM     30  C   UNL     1      46.114   4.000  12.917  0.00  0.00    +0.000 A 
ATOM     31  O   UNL     1      47.270   3.810  13.281  0.00  0.00    +0.000 OA
ATOM     32  C   UNL     1      45.543   5.303  12.675  0.00  0.00    +0.000 A 
ATOM     33  H   UNL     1      42.980   6.951  11.723  0.00  0.00    +0.000 HD
ATOM     34  H   UNL     1      45.587   2.037  12.880  0.00  0.00    +0.000 HD
ENDBRANCH  20  23
ENDBRANCH  18  19
ENDBRANCH   4  18
TORSDOF 6
ENDMDL
MODEL 5
REMARK VINA RESULT:    -7.184      3.338      4.126
REMARK INTER + INTRA:         -10.784
REMARK INTER:                  -9.814
REMARK INTRA:                  -0.971
REMARK UNBOUND:                -1.080
REMARK  Name = 
REMARK  7 active torsions:
REMARK  status: ('A' for Active; 'I' for Inactive)
REMARK    1  A    between atoms: C_1  and  N_2
REMARK    2  A    between atoms: N_2  and  C_3
REMARK    3  A    between atoms: C_3  and  C_4
REMARK    4  A    between atoms: C_7  and  C_8
REMARK    5  A    between atoms: C_8  and  N_9
REMARK    6  A    between atoms: C_10  and  C_12
REMARK    7  A    between atoms: C_24  and  C_26
REMARK                            x       y       z     vdW  Elec       q    Type
REMARK                         _______ _______ _______ _____ _____    ______ ____
ROOT
ATOM      1  C   UNL     1      48.435   7.368  14.399  0.00  0.00    +0.000 A 
ATOM      2  C   UNL     1      47.848   6.098  14.293  0.00  0.00    +0.000 A 
ATOM      3  C   UNL     1      46.881   5.836  13.316  0.00  0.00    +0.000 A 
ATOM      4  C   UNL     1      46.515   6.821  12.391  0.00  0.00    +0.000 A 
ATOM      5  C   UNL     1      47.142   8.074  12.464  0.00  0.00    +0.000 A 
ATOM      6  C   UNL     1      48.093   8.345  13.455  0.00  0.00    +0.000 A 
ENDROOT
BRANCH   1   7
ATOM      7  C   UNL     1      49.303   7.703  15.589  0.00  0.00    +0.000 C 
BRANCH   7   9
ATOM      8  C   UNL     1      47.980   9.133  17.195  0.00  0.00    +0.000 C 
ATOM      9  N   UNL     1      48.699   7.904  16.905  0.00  0.00    +0.000 N 
ATOM     10  C   UNL     1      48.530   6.850  17.819  0.00  0.00    +0.000 C 
ATOM     11  O   UNL     1      47.765   6.965  18.778  0.00  0.00    +0.000 OA
BRANCH  10  12
ATOM     12  C   UNL     1      49.225   5.594  17.624  0.00  0.00    +0.000 A 
ATOM     13  C   UNL     1      48.880   4.355  17.120  0.00  0.00    +0.000 A 
ATOM     14  N   UNL     1      49.931   3.477  17.163  0.00  0.00    +0.000 NA
ATOM     15  C   UNL     1      50.939   4.174  17.629  0.00  0.00    +0.000 A 
ATOM     16  N   UNL     1      50.574   5.462  17.887  0.00  0.00    +0.000 N 
ATOM     17  H   UNL     1      51.173   6.205  18.222  0.00  0.00    +0.000 HD
ENDBRANCH  10  12
ENDBRANCH   7   9
ENDBRANCH   1   7
BRANCH   4  18
ATOM     18  C   UNL     1      45.455   6.548  11.350  0.00  0.00    +0.000 C 
BRANCH  18  19
ATOM     19  N   UNL     1      45.680   5.312  10.641  0.00  0.00    +0.000 N 
ATOM     20  C   UNL     1      44.635   4.550  10.173  0.00  0.00    +0.000 C 
ATOM     21  O   UNL     1      43.462   4.861  10.376  0.00  0.00    +0.000 OA
ATOM     22  H   UNL     1      46.640   5.031  10.467  0.00  0.00    +0.000 HD
BRANCH  20  23
ATOM     23  C   UNL     1      44.989   3.346   9.413  0.00  0.00    +0.000 A 
ATOM     24  C   UNL     1      44.425   2.093   9.651  0.00  0.00    +0.000 A 
ATOM     25  N   UNL     1      44.959   1.176   8.780  0.00  0.00    +0.000 N 
ATOM     26  C   UNL     1      45.873   1.802   7.989  0.00  0.00    +0.000 A 
ATOM     27  N   UNL     1      46.597   1.163   7.040  0.00  0.00    +0.000 NA
ATOM     28  C   UNL     1      47.418   1.951   6.417  0.00  0.00    +0.000 A 
ATOM     29  N   UNL     1      47.556   3.302   6.657  0.00  0.00    +0.000 N 
ATOM     30  C   UNL     1      46.812   3.982   7.598  0.00  0.00    +0.000 A 
ATOM     31  O   UNL     1      46.929   5.191   7.777  0.00  0.00    +0.000 OA
ATOM     32  C   UNL     1      45.907   3.136   8.338  0.00  0.00    +0.000 A 
ATOM     33  H   UNL     1      44.730   0.194   8.726  0.00  0.00    +0.000 HD
ATOM     34  H   UNL     1      48.214   3.857   6.131  0.00  0.00    +0.000 HD
ENDBRANCH  20  23
ENDBRANCH  18  19
ENDBRANCH   4  18
TORSDOF 6
ENDMDL
MODEL 6
REMARK VINA RESULT:    -6.953      2.244      8.686
REMARK INTER + INTRA:         -10.473
REMARK INTER:                  -9.449
REMARK INTRA:                  -1.024
REMARK UNBOUND:                -1.080
REMARK  Name = 
REMARK  7 active torsions:
REMARK  status: ('A' for Active; 'I' for Inactive)
REMARK    1  A    between atoms: C_1  and  N_2
REMARK    2  A    between atoms: N_2  and  C_3
REMARK    3  A    between atoms: C_3  and  C_4
REMARK    4  A    between atoms: C_7  and  C_8
REMARK    5  A    between atoms: C_8  and  N_9
REMARK    6  A    between atoms: C_10  and  C_12
REMARK    7  A    between atoms: C_24  and  C_26
REMARK                            x       y       z     vdW  Elec       q    Type
REMARK                         _______ _______ _______ _____ _____    ______ ____
ROOT
ATOM      1  C   UNL     1      47.434   5.934  13.834  0.00  0.00    +0.000 A 
ATOM      2  C   UNL     1      46.701   4.739  13.917  0.00  0.00    +0.000 A 
ATOM      3  C   UNL     1      46.784   3.928  15.054  0.00  0.00    +0.000 A 
ATOM      4  C   UNL     1      47.562   4.313  16.153  0.00  0.00    +0.000 A 
ATOM      5  C   UNL     1      48.251   5.533  16.089  0.00  0.00    +0.000 A 
ATOM      6  C   UNL     1      48.187   6.337  14.944  0.00  0.00    +0.000 A 
ENDROOT
BRANCH   1   7
ATOM      7  C   UNL     1      47.513   6.681  12.524  0.00  0.00    +0.000 C 
BRANCH   7   9
ATOM      8  C   UNL     1      47.420   9.199  12.354  0.00  0.00    +0.000 C 
ATOM      9  N   UNL     1      46.746   7.911  12.332  0.00  0.00    +0.000 N 
ATOM     10  C   UNL     1      45.429   7.903  11.842  0.00  0.00    +0.000 C 
ATOM     11  O   UNL     1      44.912   8.933  11.408  0.00  0.00    +0.000 OA
BRANCH  10  12
ATOM     12  C   UNL     1      44.671   6.669  11.803  0.00  0.00    +0.000 A 
ATOM     13  C   UNL     1      44.632   5.573  10.963  0.00  0.00    +0.000 A 
ATOM     14  N   UNL     1      43.706   4.649  11.374  0.00  0.00    +0.000 NA
ATOM     15  C   UNL     1      43.218   5.130  12.491  0.00  0.00    +0.000 A 
ATOM     16  N   UNL     1      43.791   6.325  12.810  0.00  0.00    +0.000 N 
ATOM     17  H   UNL     1      43.610   6.883  13.634  0.00  0.00    +0.000 HD
ENDBRANCH  10  12
ENDBRANCH   7   9
ENDBRANCH   1   7
BRANCH   4  18
ATOM     18  C   UNL     1      47.671   3.428  17.371  0.00  0.00    +0.000 C 
BRANCH  18  19
ATOM     19  N   UNL     1      49.039   3.175  17.752  0.00  0.00    +0.000 N 
ATOM     20  C   UNL     1      49.835   2.306  17.043  0.00  0.00    +0.000 C 
ATOM     21  O   UNL     1      49.407   1.669  16.081  0.00  0.00    +0.000 OA
ATOM     22  H   UNL     1      49.414   3.684  18.547  0.00  0.00    +0.000 HD
BRANCH  20  23
ATOM     23  C   UNL     1      51.227   2.178  17.489  0.00  0.00    +0.000 A 
ATOM     24  C   UNL     1      51.842   0.952  17.747  0.00  0.00    +0.000 A 
ATOM     25  N   UNL     1      53.138   1.164  18.145  0.00  0.00    +0.000 N 
ATOM     26  C   UNL     1      53.378   2.505  18.169  0.00  0.00    +0.000 A 
ATOM     27  N   UNL     1      54.561   3.043  18.547  0.00  0.00    +0.000 NA
ATOM     28  C   UNL     1      54.561   4.339  18.507  0.00  0.00    +0.000 A 
ATOM     29  N   UNL     1      53.494   5.120  18.115  0.00  0.00    +0.000 N 
ATOM     30  C   UNL     1      52.287   4.597  17.700  0.00  0.00    +0.000 A 
ATOM     31  O   UNL     1      51.359   5.308  17.326  0.00  0.00    +0.000 OA
ATOM     32  C   UNL     1      52.233   3.156  17.758  0.00  0.00    +0.000 A 
ATOM     33  H   UNL     1      53.815   0.456  18.393  0.00  0.00    +0.000 HD
ATOM     34  H   UNL     1      53.565   6.126  18.105  0.00  0.00    +0.000 HD
ENDBRANCH  20  23
ENDBRANCH  18  19
ENDBRANCH   4  18
TORSDOF 6
ENDMDL
MODEL 7
REMARK VINA RESULT:    -6.668      2.389      8.897
REMARK INTER + INTRA:         -10.087
REMARK INTER:                  -9.071
REMARK INTRA:                  -1.015
REMARK UNBOUND:                -1.080
REMARK  Name = 
REMARK  7 active torsions:
REMARK  status: ('A' for Active; 'I' for Inactive)
REMARK    1  A    between atoms: C_1  and  N_2
REMARK    2  A    between atoms: N_2  and  C_3
REMARK    3  A    between atoms: C_3  and  C_4
REMARK    4  A    between atoms: C_7  and  C_8
REMARK    5  A    between atoms: C_8  and  N_9
REMARK    6  A    between atoms: C_10  and  C_12
REMARK    7  A    between atoms: C_24  and  C_26
REMARK                            x       y       z     vdW  Elec       q    Type
REMARK                         _______ _______ _______ _____ _____    ______ ____
ROOT
ATOM      1  C   UNL     1      47.196   5.802  13.886  0.00  0.00    +0.000 A 
ATOM      2  C   UNL     1      46.656   4.613  14.400  0.00  0.00    +0.000 A 
ATOM      3  C   UNL     1      47.124   4.077  15.605  0.00  0.00    +0.000 A 
ATOM      4  C   UNL     1      48.107   4.741  16.349  0.00  0.00    +0.000 A 
ATOM      5  C   UNL     1      48.608   5.957  15.861  0.00  0.00    +0.000 A 
ATOM      6  C   UNL     1      48.156   6.484  14.644  0.00  0.00    +0.000 A 
ENDROOT
BRANCH   1   7
ATOM      7  C   UNL     1      46.846   6.247  12.486  0.00  0.00    +0.000 C 
BRANCH   7   9
ATOM      8  C   UNL     1      46.161   8.676  12.566  0.00  0.00    +0.000 C 
ATOM      9  N   UNL     1      45.842   7.288  12.276  0.00  0.00    +0.000 N 
ATOM     10  C   UNL     1      44.669   7.058  11.535  0.00  0.00    +0.000 C 
ATOM     11  O   UNL     1      43.994   8.000  11.118  0.00  0.00    +0.000 OA
BRANCH  10  12
ATOM     12  C   UNL     1      44.259   5.706  11.218  0.00  0.00    +0.000 A 
ATOM     13  C   UNL     1      43.504   4.740  11.853  0.00  0.00    +0.000 A 
ATOM     14  N   UNL     1      43.418   3.590  11.111  0.00  0.00    +0.000 NA
ATOM     15  C   UNL     1      44.056   3.855   9.998  0.00  0.00    +0.000 A 
ATOM     16  N   UNL     1      44.549   5.126   9.998  0.00  0.00    +0.000 N 
ATOM     17  H   UNL     1      45.051   5.582   9.248  0.00  0.00    +0.000 HD
ENDBRANCH  10  12
ENDBRANCH   7   9
ENDBRANCH   1   7
BRANCH   4  18
ATOM     18  C   UNL     1      48.631   4.152  17.637  0.00  0.00    +0.000 C 
BRANCH  18  19
ATOM     19  N   UNL     1      50.013   3.751  17.543  0.00  0.00    +0.000 N 
ATOM     20  C   UNL     1      50.958   4.207  18.431  0.00  0.00    +0.000 C 
ATOM     21  O   UNL     1      50.680   5.013  19.319  0.00  0.00    +0.000 OA
ATOM     22  H   UNL     1      50.268   3.091  16.813  0.00  0.00    +0.000 HD
BRANCH  20  23
ATOM     23  C   UNL     1      52.318   3.680  18.272  0.00  0.00    +0.000 A 
ATOM     24  C   UNL     1      53.467   4.439  18.494  0.00  0.00    +0.000 A 
ATOM     25  N   UNL     1      54.578   3.668  18.263  0.00  0.00    +0.000 N 
ATOM     26  C   UNL     1      54.178   2.425  17.877  0.00  0.00    +0.000 A 
ATOM     27  N   UNL     1      55.040   1.434  17.548  0.00  0.00    +0.000 NA
ATOM     28  C   UNL     1      54.440   0.339  17.197  0.00  0.00    +0.000 A 
ATOM     29  N   UNL     1      53.073   0.161  17.163  0.00  0.00    +0.000 N 
ATOM     30  C   UNL     1      52.174   1.145  17.517  0.00  0.00    +0.000 A 
ATOM     31  O   UNL     1      50.961   0.957  17.508  0.00  0.00    +0.000 OA
ATOM     32  C   UNL     1      52.799   2.392  17.886  0.00  0.00    +0.000 A 
ATOM     33  H   UNL     1      55.542   3.959  18.350  0.00  0.00    +0.000 HD
ATOM     34  H   UNL     1      52.672  -0.721  16.881  0.00  0.00    +0.000 HD
ENDBRANCH  20  23
ENDBRANCH  18  19
ENDBRANCH   4  18
TORSDOF 6
ENDMDL
MODEL 8
REMARK VINA RESULT:    -6.527      2.259      2.835
REMARK INTER + INTRA:          -9.896
REMARK INTER:                  -9.084
REMARK INTRA:                  -0.812
REMARK UNBOUND:                -1.080
REMARK  Name = 
REMARK  7 active torsions:
REMARK  status: ('A' for Active; 'I' for Inactive)
REMARK    1  A    between atoms: C_1  and  N_2
REMARK    2  A    between atoms: N_2  and  C_3
REMARK    3  A    between atoms: C_3  and  C_4
REMARK    4  A    between atoms: C_7  and  C_8
REMARK    5  A    between atoms: C_8  and  N_9
REMARK    6  A    between atoms: C_10  and  C_12
REMARK    7  A    between atoms: C_24  and  C_26
REMARK                            x       y       z     vdW  Elec       q    Type
REMARK                         _______ _______ _______ _____ _____    ______ ____
ROOT
ATOM      1  C   UNL     1      49.479   8.201  15.552  0.00  0.00    +0.000 A 
ATOM      2  C   UNL     1      48.302   8.954  15.417  0.00  0.00    +0.000 A 
ATOM      3  C   UNL     1      47.547   8.897  14.241  0.00  0.00    +0.000 A 
ATOM      4  C   UNL     1      47.923   8.051  13.190  0.00  0.00    +0.000 A 
ATOM      5  C   UNL     1      49.070   7.259  13.347  0.00  0.00    +0.000 A 
ATOM      6  C   UNL     1      49.839   7.331  14.516  0.00  0.00    +0.000 A 
ENDROOT
BRANCH   1   7
ATOM      7  C   UNL     1      50.399   8.440  16.725  0.00  0.00    +0.000 C 
BRANCH   7   9
ATOM      8  C   UNL     1      49.871   9.688  18.856  0.00  0.00    +0.000 C 
ATOM      9  N   UNL     1      49.865   8.455  18.086  0.00  0.00    +0.000 N 
ATOM     10  C   UNL     1      49.082   7.404  18.595  0.00  0.00    +0.000 C 
ATOM     11  O   UNL     1      48.403   7.561  19.611  0.00  0.00    +0.000 OA
BRANCH  10  12
ATOM     12  C   UNL     1      49.033   6.130  17.908  0.00  0.00    +0.000 A 
ATOM     13  C   UNL     1      49.925   5.096  17.702  0.00  0.00    +0.000 A 
ATOM     14  N   UNL     1      49.373   4.088  16.955  0.00  0.00    +0.000 NA
ATOM     15  C   UNL     1      48.132   4.457  16.749  0.00  0.00    +0.000 A 
ATOM     16  N   UNL     1      47.869   5.661  17.332  0.00  0.00    +0.000 N 
ATOM     17  H   UNL     1      46.982   6.146  17.344  0.00  0.00    +0.000 HD
ENDBRANCH  10  12
ENDBRANCH   7   9
ENDBRANCH   1   7
BRANCH   4  18
ATOM     18  C   UNL     1      47.123   8.005  11.911  0.00  0.00    +0.000 C 
BRANCH  18  19
ATOM     19  N   UNL     1      46.477   6.732  11.705  0.00  0.00    +0.000 N 
ATOM     20  C   UNL     1      45.124   6.638  11.483  0.00  0.00    +0.000 C 
ATOM     21  O   UNL     1      44.392   7.629  11.496  0.00  0.00    +0.000 OA
ATOM     22  H   UNL     1      47.059   5.899  11.697  0.00  0.00    +0.000 HD
BRANCH  20  23
ATOM     23  C   UNL     1      44.591   5.295  11.225  0.00  0.00    +0.000 A 
ATOM     24  C   UNL     1      43.707   4.641  12.084  0.00  0.00    +0.000 A 
ATOM     25  N   UNL     1      43.395   3.408  11.568  0.00  0.00    +0.000 N 
ATOM     26  C   UNL     1      44.071   3.237  10.399  0.00  0.00    +0.000 A 
ATOM     27  N   UNL     1      43.998   2.107   9.656  0.00  0.00    +0.000 NA
ATOM     28  C   UNL     1      44.736   2.157   8.589  0.00  0.00    +0.000 A 
ATOM     29  N   UNL     1      45.513   3.231   8.213  0.00  0.00    +0.000 N 
ATOM     30  C   UNL     1      45.585   4.403   8.938  0.00  0.00    +0.000 A 
ATOM     31  O   UNL     1      46.260   5.359   8.570  0.00  0.00    +0.000 OA
ATOM     32  C   UNL     1      44.803   4.380  10.150  0.00  0.00    +0.000 A 
ATOM     33  H   UNL     1      42.776   2.723  11.978  0.00  0.00    +0.000 HD
ATOM     34  H   UNL     1      46.062   3.203   7.367  0.00  0.00    +0.000 HD
ENDBRANCH  20  23
ENDBRANCH  18  19
ENDBRANCH   4  18
TORSDOF 6
ENDMDL
MODEL 9
REMARK VINA RESULT:    -6.311      3.625      8.223
REMARK INTER + INTRA:          -9.605
REMARK INTER:                  -8.445
REMARK INTRA:                  -1.160
REMARK UNBOUND:                -1.080
REMARK  Name = 
REMARK  7 active torsions:
REMARK  status: ('A' for Active; 'I' for Inactive)
REMARK    1  A    between atoms: C_1  and  N_2
REMARK    2  A    between atoms: N_2  and  C_3
REMARK    3  A    between atoms: C_3  and  C_4
REMARK    4  A    between atoms: C_7  and  C_8
REMARK    5  A    between atoms: C_8  and  N_9
REMARK    6  A    between atoms: C_10  and  C_12
REMARK    7  A    between atoms: C_24  and  C_26
REMARK                            x       y       z     vdW  Elec       q    Type
REMARK                         _______ _______ _______ _____ _____    ______ ____
ROOT
ATOM      1  C   UNL     1      46.296   4.756  13.368  0.00  0.00    +0.000 A 
ATOM      2  C   UNL     1      46.779   4.403  14.638  0.00  0.00    +0.000 A 
ATOM      3  C   UNL     1      47.784   5.154  15.255  0.00  0.00    +0.000 A 
ATOM      4  C   UNL     1      48.297   6.304  14.642  0.00  0.00    +0.000 A 
ATOM      5  C   UNL     1      47.775   6.686  13.397  0.00  0.00    +0.000 A 
ATOM      6  C   UNL     1      46.785   5.923  12.766  0.00  0.00    +0.000 A 
ENDROOT
BRANCH   1   7
ATOM      7  C   UNL     1      45.381   3.817  12.619  0.00  0.00    +0.000 C 
BRANCH   7   9
ATOM      8  C   UNL     1      43.135   4.789  13.240  0.00  0.00    +0.000 C 
ATOM      9  N   UNL     1      44.038   4.249  12.237  0.00  0.00    +0.000 N 
ATOM     10  C   UNL     1      43.665   4.436  10.895  0.00  0.00    +0.000 C 
ATOM     11  O   UNL     1      42.652   5.075  10.606  0.00  0.00    +0.000 OA
BRANCH  10  12
ATOM     12  C   UNL     1      44.492   3.912   9.827  0.00  0.00    +0.000 A 
ATOM     13  C   UNL     1      44.764   2.652   9.331  0.00  0.00    +0.000 A 
ATOM     14  N   UNL     1      45.646   2.697   8.283  0.00  0.00    +0.000 NA
ATOM     15  C   UNL     1      45.874   3.972   8.083  0.00  0.00    +0.000 A 
ATOM     16  N   UNL     1      45.175   4.745   8.962  0.00  0.00    +0.000 N 
ATOM     17  H   UNL     1      45.155   5.755   8.997  0.00  0.00    +0.000 HD
ENDBRANCH  10  12
ENDBRANCH   7   9
ENDBRANCH   1   7
BRANCH   4  18
ATOM     18  C   UNL     1      49.398   7.104  15.296  0.00  0.00    +0.000 C 
BRANCH  18  19
ATOM     19  N   UNL     1      50.489   7.386  14.395  0.00  0.00    +0.000 N 
ATOM     20  C   UNL     1      51.020   8.648  14.280  0.00  0.00    +0.000 C 
ATOM     21  O   UNL     1      50.561   9.606  14.903  0.00  0.00    +0.000 OA
ATOM     22  H   UNL     1      50.880   6.612  13.865  0.00  0.00    +0.000 HD
BRANCH  20  23
ATOM     23  C   UNL     1      52.167   8.799  13.377  0.00  0.00    +0.000 A 
ATOM     24  C   UNL     1      53.380   9.370  13.764  0.00  0.00    +0.000 A 
ATOM     25  N   UNL     1      54.247   9.368  12.701  0.00  0.00    +0.000 N 
ATOM     26  C   UNL     1      53.620   8.822  11.622  0.00  0.00    +0.000 A 
ATOM     27  N   UNL     1      54.202   8.700  10.406  0.00  0.00    +0.000 NA
ATOM     28  C   UNL     1      53.416   8.165   9.523  0.00  0.00    +0.000 A 
ATOM     29  N   UNL     1      52.127   7.742   9.763  0.00  0.00    +0.000 N 
ATOM     30  C   UNL     1      51.520   7.830  10.998  0.00  0.00    +0.000 A 
ATOM     31  O   UNL     1      50.380   7.420  11.198  0.00  0.00    +0.000 OA
ATOM     32  C   UNL     1      52.349   8.448  12.005  0.00  0.00    +0.000 A 
ATOM     33  H   UNL     1      55.195   9.717  12.697  0.00  0.00    +0.000 HD
ATOM     34  H   UNL     1      51.571   7.331   9.027  0.00  0.00    +0.000 HD
ENDBRANCH  20  23
ENDBRANCH  18  19
ENDBRANCH   4  18
TORSDOF 6
ENDMDL
