MODEL 1
REMARK VINA RESULT:    -7.689      0.000      0.000
REMARK INTER + INTRA:         -12.430
REMARK INTER:                 -11.734
REMARK INTRA:                  -0.695
REMARK UNBOUND:                -0.695
REMARK  Name = 
REMARK  9 active torsions:
REMARK  status: ('A' for Active; 'I' for Inactive)
REMARK    1  A    between atoms: C_2  and  C_3
REMARK    2  A    between atoms: C_3  and  N_4
REMARK    3  A    between atoms: C_3  and  C_20
REMARK    4  A    between atoms: N_4  and  C_5
REMARK    5  A    between atoms: C_5  and  C_6
REMARK    6  A    between atoms: C_9  and  C_10
REMARK    7  A    between atoms: C_10  and  N_11
REMARK    8  A    between atoms: N_11  and  C_12
REMARK    9  A    between atoms: C_12  and  C_13
REMARK                            x       y       z     vdW  Elec       q    Type
REMARK                         _______ _______ _______ _____ _____    ______ ____
ROOT
ATOM      1  C   UNL     1      47.918   5.804  14.316  0.00  0.00    +0.000 C 
ENDROOT
BRANCH   1   2
ATOM      2  C   UNL     1      46.775   5.560  13.366  0.00  0.00    +0.000 A 
ATOM      3  C   UNL     1      45.715   4.717  13.717  0.00  0.00    +0.000 A 
ATOM      4  C   UNL     1      44.633   4.549  12.853  0.00  0.00    +0.000 A 
ATOM      5  C   UNL     1      44.579   5.237  11.635  0.00  0.00    +0.000 A 
ATOM      6  C   UNL     1      45.641   6.076  11.279  0.00  0.00    +0.000 A 
ATOM      7  C   UNL     1      46.730   6.232  12.135  0.00  0.00    +0.000 A 
BRANCH   5   8
ATOM      8  C   UNL     1      43.383   5.080  10.729  0.00  0.00    +0.000 C 
BRANCH   8   9
ATOM      9  N   UNL     1      43.812   4.638   9.400  0.00  0.00    +0.000 NA
ATOM     10  H   UNL     1      44.572   5.250   9.100  0.00  0.00    +0.000 HD
BRANCH   9  11
ATOM     11  C   UNL     1      44.330   3.267   9.463  0.00  0.00    +0.000 C 
BRANCH  11  12
ATOM     12  C   UNL     1      45.420   3.069   8.462  0.00  0.00    +0.000 A 
ATOM     13  N   UNL     1      45.902   3.960   7.618  0.00  0.00    +0.000 NA
ATOM     14  C   UNL     1      46.864   3.303   6.896  0.00  0.00    +0.000 A 
ATOM     15  C   UNL     1      46.972   1.994   7.302  0.00  0.00    +0.000 A 
ATOM     16  N   UNL     1      46.063   1.863   8.312  0.00  0.00    +0.000 N 
ATOM     17  H   UNL     1      45.842   1.032   8.844  0.00  0.00    +0.000 HD
ENDBRANCH  11  12
ENDBRANCH   9  11
ENDBRANCH   8   9
ENDBRANCH   5   8
ENDBRANCH   1   2
BRANCH   1  18
ATOM     18  N   UNL     1      47.544   5.549  15.712  0.00  0.00    +0.000 NA
ATOM     19  H   UNL     1      47.843   6.333  16.285  0.00  0.00    +0.000 HD
BRANCH  18  20
ATOM     20  C   UNL     1      48.213   4.330  16.208  0.00  0.00    +0.000 C 
BRANCH  20  21
ATOM     21  C   UNL     1      49.374   4.724  17.100  0.00  0.00    +0.000 A 
ATOM     22  C   UNL     1      49.537   5.947  17.735  0.00  0.00    +0.000 A 
ATOM     23  S   UNL     1      50.945   6.026  18.701  0.00  0.00    +0.000 S 
ATOM     24  C   UNL     1      51.368   4.420  18.327  0.00  0.00    +0.000 A 
ATOM     25  N   UNL     1      52.475   3.833  18.856  0.00  0.00    +0.000 NA
ATOM     26  C   UNL     1      52.644   2.602  18.500  0.00  0.00    +0.000 A 
ATOM     27  N   UNL     1      51.815   1.905  17.655  0.00  0.00    +0.000 N 
ATOM     28  C   UNL     1      50.696   2.463  17.081  0.00  0.00    +0.000 A 
ATOM     29  O   UNL     1      49.976   1.841  16.309  0.00  0.00    +0.000 OA
ATOM     30  C   UNL     1      50.458   3.841  17.466  0.00  0.00    +0.000 A 
ATOM     31  H   UNL     1      52.009   0.944  17.417  0.00  0.00    +0.000 HD
ENDBRANCH  20  21
BRANCH  20  33
ATOM     32  N   UNL     1      46.478   2.736  17.686  0.00  0.00    +0.000 NA
ATOM     33  C   UNL     1      47.265   3.459  17.016  0.00  0.00    +0.000 C 
ENDBRANCH  20  33
ENDBRANCH  18  20
ENDBRANCH   1  18
TORSDOF 9
ENDMDL
MODEL 2
REMARK VINA RESULT:    -6.919      2.443      2.940
REMARK INTER + INTRA:         -11.254
REMARK INTER:                 -10.225
REMARK INTRA:                  -1.029
REMARK UNBOUND:                -0.695
REMARK  Name = 
REMARK  9 active torsions:
REMARK  status: ('A' for Active; 'I' for Inactive)
REMARK    1  A    between atoms: C_2  and  C_3
REMARK    2  A    between atoms: C_3  and  N_4
REMARK    3  A    between atoms: C_3  and  C_20
REMARK    4  A    between atoms: N_4  and  C_5
REMARK    5  A    between atoms: C_5  and  C_6
REMARK    6  A    between atoms: C_9  and  C_10
REMARK    7  A    between atoms: C_10  and  N_11
REMARK    8  A    between atoms: N_11  and  C_12
REMARK    9  A    between atoms: C_12  and  C_13
REMARK                            x       y       z     vdW  Elec       q    Type
REMARK                         _______ _______ _______ _____ _____    ______ ____
ROOT
ATOM      1  C   UNL     1      48.121   6.398  13.651  0.00  0.00    +0.000 C 
ENDROOT
BRANCH   1   2
ATOM      2  C   UNL     1      46.912   6.027  12.834  0.00  0.00    +0.000 A 
ATOM      3  C   UNL     1      46.783   6.452  11.506  0.00  0.00    +0.000 A 
ATOM      4  C   UNL     1      45.688   6.050  10.741  0.00  0.00    +0.000 A 
ATOM      5  C   UNL     1      44.715   5.199  11.279  0.00  0.00    +0.000 A 
ATOM      6  C   UNL     1      44.838   4.778  12.608  0.00  0.00    +0.000 A 
ATOM      7  C   UNL     1      45.924   5.192  13.378  0.00  0.00    +0.000 A 
BRANCH   5   8
ATOM      8  C   UNL     1      43.559   4.737  10.429  0.00  0.00    +0.000 C 
BRANCH   8   9
ATOM      9  N   UNL     1      44.027   4.391   9.085  0.00  0.00    +0.000 NA
ATOM     10  H   UNL     1      44.828   4.988   8.873  0.00  0.00    +0.000 HD
BRANCH   9  11
ATOM     11  C   UNL     1      44.477   2.995   9.046  0.00  0.00    +0.000 C 
BRANCH  11  12
ATOM     12  C   UNL     1      45.653   2.845   8.138  0.00  0.00    +0.000 A 
ATOM     13  N   UNL     1      46.141   3.746   7.308  0.00  0.00    +0.000 NA
ATOM     14  C   UNL     1      47.197   3.136   6.680  0.00  0.00    +0.000 A 
ATOM     15  C   UNL     1      47.355   1.846   7.131  0.00  0.00    +0.000 A 
ATOM     16  N   UNL     1      46.380   1.680   8.072  0.00  0.00    +0.000 N 
ATOM     17  H   UNL     1      46.171   0.850   8.610  0.00  0.00    +0.000 HD
ENDBRANCH  11  12
ENDBRANCH   9  11
ENDBRANCH   8   9
ENDBRANCH   5   8
ENDBRANCH   1   2
BRANCH   1  18
ATOM     18  N   UNL     1      47.781   6.671  15.052  0.00  0.00    +0.000 NA
ATOM     19  H   UNL     1      48.043   7.626  15.279  0.00  0.00    +0.000 HD
BRANCH  18  20
ATOM     20  C   UNL     1      48.525   5.762  15.947  0.00  0.00    +0.000 C 
BRANCH  20  21
ATOM     21  C   UNL     1      48.911   6.507  17.209  0.00  0.00    +0.000 A 
ATOM     22  C   UNL     1      48.284   6.401  18.443  0.00  0.00    +0.000 A 
ATOM     23  S   UNL     1      49.017   7.355  19.659  0.00  0.00    +0.000 S 
ATOM     24  C   UNL     1      50.212   7.917  18.585  0.00  0.00    +0.000 A 
ATOM     25  N   UNL     1      51.194   8.765  18.993  0.00  0.00    +0.000 NA
ATOM     26  C   UNL     1      52.044   9.078  18.070  0.00  0.00    +0.000 A 
ATOM     27  N   UNL     1      51.995   8.630  16.772  0.00  0.00    +0.000 N 
ATOM     28  C   UNL     1      51.011   7.789  16.309  0.00  0.00    +0.000 A 
ATOM     29  O   UNL     1      50.962   7.415  15.143  0.00  0.00    +0.000 OA
ATOM     30  C   UNL     1      50.043   7.398  17.318  0.00  0.00    +0.000 A 
ATOM     31  H   UNL     1      52.692   8.917  16.101  0.00  0.00    +0.000 HD
ENDBRANCH  20  21
BRANCH  20  33
ATOM     32  N   UNL     1      46.998   3.552  16.669  0.00  0.00    +0.000 NA
ATOM     33  C   UNL     1      47.691   4.555  16.341  0.00  0.00    +0.000 C 
ENDBRANCH  20  33
ENDBRANCH  18  20
ENDBRANCH   1  18
TORSDOF 9
ENDMDL
MODEL 3
REMARK VINA RESULT:    -6.897      2.506      3.634
REMARK INTER + INTRA:         -11.220
REMARK INTER:                 -10.319
REMARK INTRA:                  -0.902
REMARK UNBOUND:                -0.695
REMARK  Name = 
REMARK  9 active torsions:
REMARK  status: ('A' for Active; 'I' for Inactive)
REMARK    1  A    between atoms: C_2  and  C_3
REMARK    2  A    between atoms: C_3  and  N_4
REMARK    3  A    between atoms: C_3  and  C_20
REMARK    4  A    between atoms: N_4  and  C_5
REMARK    5  A    between atoms: C_5  and  C_6
REMARK    6  A    between atoms: C_9  and  C_10
REMARK    7  A    between atoms: C_10  and  N_11
REMARK    8  A    between atoms: N_11  and  C_12
REMARK    9  A    between atoms: C_12  and  C_13
REMARK                            x       y       z     vdW  Elec       q    Type
REMARK                         _______ _______ _______ _____ _____    ______ ____
ROOT
ATOM      1  C   UNL     1      47.840   5.968  14.395  0.00  0.00    +0.000 C 
ENDROOT
BRANCH   1   2
ATOM      2  C   UNL     1      46.869   5.572  13.314  0.00  0.00    +0.000 A 
ATOM      3  C   UNL     1      46.021   4.470  13.477  0.00  0.00    +0.000 A 
ATOM      4  C   UNL     1      45.084   4.151  12.495  0.00  0.00    +0.000 A 
ATOM      5  C   UNL     1      44.961   4.938  11.344  0.00  0.00    +0.000 A 
ATOM      6  C   UNL     1      45.812   6.036  11.175  0.00  0.00    +0.000 A 
ATOM      7  C   UNL     1      46.759   6.346  12.149  0.00  0.00    +0.000 A 
BRANCH   5   8
ATOM      8  C   UNL     1      43.915   4.607  10.309  0.00  0.00    +0.000 C 
BRANCH   8   9
ATOM      9  N   UNL     1      44.550   4.350   9.014  0.00  0.00    +0.000 NA
ATOM     10  H   UNL     1      45.489   4.749   9.045  0.00  0.00    +0.000 HD
BRANCH   9  11
ATOM     11  C   UNL     1      44.676   2.906   8.788  0.00  0.00    +0.000 C 
BRANCH  11  12
ATOM     12  C   UNL     1      45.923   2.599   8.025  0.00  0.00    +0.000 A 
ATOM     13  N   UNL     1      46.667   3.442   7.337  0.00  0.00    +0.000 NA
ATOM     14  C   UNL     1      47.680   2.690   6.801  0.00  0.00    +0.000 A 
ATOM     15  C   UNL     1      47.554   1.370   7.165  0.00  0.00    +0.000 A 
ATOM     16  N   UNL     1      46.445   1.329   7.960  0.00  0.00    +0.000 N 
ATOM     17  H   UNL     1      46.026   0.520   8.401  0.00  0.00    +0.000 HD
ENDBRANCH  11  12
ENDBRANCH   9  11
ENDBRANCH   8   9
ENDBRANCH   5   8
ENDBRANCH   1   2
BRANCH   1  18
ATOM     18  N   UNL     1      47.460   5.432  15.707  0.00  0.00    +0.000 NA
ATOM     19  H   UNL     1      46.726   6.011  16.104  0.00  0.00    +0.000 HD
BRANCH  18  20
ATOM     20  C   UNL     1      48.616   5.455  16.625  0.00  0.00    +0.000 C 
BRANCH  20  21
ATOM     21  C   UNL     1      48.172   5.979  17.976  0.00  0.00    +0.000 A 
ATOM     22  C   UNL     1      47.848   5.207  19.084  0.00  0.00    +0.000 A 
ATOM     23  S   UNL     1      47.433   6.136  20.458  0.00  0.00    +0.000 S 
ATOM     24  C   UNL     1      47.701   7.598  19.628  0.00  0.00    +0.000 A 
ATOM     25  N   UNL     1      47.549   8.803  20.240  0.00  0.00    +0.000 NA
ATOM     26  C   UNL     1      47.817   9.819  19.487  0.00  0.00    +0.000 A 
ATOM     27  N   UNL     1      48.212   9.743  18.173  0.00  0.00    +0.000 N 
ATOM     28  C   UNL     1      48.359   8.549  17.507  0.00  0.00    +0.000 A 
ATOM     29  O   UNL     1      48.687   8.492  16.328  0.00  0.00    +0.000 OA
ATOM     30  C   UNL     1      48.084   7.379  18.320  0.00  0.00    +0.000 A 
ATOM     31  H   UNL     1      48.403  10.579  17.642  0.00  0.00    +0.000 HD
ENDBRANCH  20  21
BRANCH  20  33
ATOM     32  N   UNL     1      49.695   2.916  16.983  0.00  0.00    +0.000 NA
ATOM     33  C   UNL     1      49.205   4.068  16.821  0.00  0.00    +0.000 C 
ENDBRANCH  20  33
ENDBRANCH  18  20
ENDBRANCH   1  18
TORSDOF 9
ENDMDL
MODEL 4
REMARK VINA RESULT:    -6.890      1.725      2.329
REMARK INTER + INTRA:         -11.211
REMARK INTER:                 -10.382
REMARK INTRA:                  -0.829
REMARK UNBOUND:                -0.695
REMARK  Name = 
REMARK  9 active torsions:
REMARK  status: ('A' for Active; 'I' for Inactive)
REMARK    1  A    between atoms: C_2  and  C_3
REMARK    2  A    between atoms: C_3  and  N_4
REMARK    3  A    between atoms: C_3  and  C_20
REMARK    4  A    between atoms: N_4  and  C_5
REMARK    5  A    between atoms: C_5  and  C_6
REMARK    6  A    between atoms: C_9  and  C_10
REMARK    7  A    between atoms: C_10  and  N_11
REMARK    8  A    between atoms: N_11  and  C_12
REMARK    9  A    between atoms: C_12  and  C_13
REMARK                            x       y       z     vdW  Elec       q    Type
REMARK                         _______ _______ _______ _____ _____    ______ ____
ROOT
ATOM      1  C   UNL     1      47.404   5.179  14.940  0.00  0.00    +0.000 C 
ENDROOT
BRANCH   1   2
ATOM      2  C   UNL     1      46.666   5.061  13.633  0.00  0.00    +0.000 A 
ATOM      3  C   UNL     1      46.047   3.862  13.262  0.00  0.00    +0.000 A 
ATOM      4  C   UNL     1      45.315   3.785  12.077  0.00  0.00    +0.000 A 
ATOM      5  C   UNL     1      45.169   4.907  11.254  0.00  0.00    +0.000 A 
ATOM      6  C   UNL     1      45.793   6.105  11.618  0.00  0.00    +0.000 A 
ATOM      7  C   UNL     1      46.538   6.179  12.795  0.00  0.00    +0.000 A 
BRANCH   5   8
ATOM      8  C   UNL     1      44.340   4.822   9.997  0.00  0.00    +0.000 C 
BRANCH   8   9
ATOM      9  N   UNL     1      45.208   4.831   8.817  0.00  0.00    +0.000 NA
ATOM     10  H   UNL     1      46.166   4.676   9.137  0.00  0.00    +0.000 HD
BRANCH   9  11
ATOM     11  C   UNL     1      44.848   3.734   7.912  0.00  0.00    +0.000 C 
BRANCH  11  12
ATOM     12  C   UNL     1      46.059   2.952   7.523  0.00  0.00    +0.000 A 
ATOM     13  N   UNL     1      46.336   1.701   7.833  0.00  0.00    +0.000 NA
ATOM     14  C   UNL     1      47.560   1.443   7.273  0.00  0.00    +0.000 A 
ATOM     15  C   UNL     1      48.039   2.550   6.613  0.00  0.00    +0.000 A 
ATOM     16  N   UNL     1      47.066   3.497   6.762  0.00  0.00    +0.000 N 
ATOM     17  H   UNL     1      47.071   4.451   6.427  0.00  0.00    +0.000 HD
ENDBRANCH  11  12
ENDBRANCH   9  11
ENDBRANCH   8   9
ENDBRANCH   5   8
ENDBRANCH   1   2
BRANCH   1  18
ATOM     18  N   UNL     1      48.637   5.964  14.814  0.00  0.00    +0.000 NA
ATOM     19  H   UNL     1      49.393   5.351  14.521  0.00  0.00    +0.000 HD
BRANCH  18  20
ATOM     20  C   UNL     1      49.001   6.561  16.114  0.00  0.00    +0.000 C 
BRANCH  20  21
ATOM     21  C   UNL     1      50.484   6.365  16.357  0.00  0.00    +0.000 A 
ATOM     22  C   UNL     1      51.499   7.211  15.934  0.00  0.00    +0.000 A 
ATOM     23  S   UNL     1      53.055   6.702  16.428  0.00  0.00    +0.000 S 
ATOM     24  C   UNL     1      52.421   5.352  17.248  0.00  0.00    +0.000 A 
ATOM     25  N   UNL     1      53.224   4.489  17.927  0.00  0.00    +0.000 NA
ATOM     26  C   UNL     1      52.592   3.531  18.522  0.00  0.00    +0.000 A 
ATOM     27  N   UNL     1      51.231   3.348  18.491  0.00  0.00    +0.000 N 
ATOM     28  C   UNL     1      50.381   4.182  17.802  0.00  0.00    +0.000 A 
ATOM     29  O   UNL     1      49.171   3.997  17.760  0.00  0.00    +0.000 OA
ATOM     30  C   UNL     1      51.048   5.283  17.131  0.00  0.00    +0.000 A 
ATOM     31  H   UNL     1      50.802   2.575  18.978  0.00  0.00    +0.000 HD
ENDBRANCH  20  21
BRANCH  20  33
ATOM     32  N   UNL     1      48.458   9.289  16.179  0.00  0.00    +0.000 NA
ATOM     33  C   UNL     1      48.705   8.051  16.149  0.00  0.00    +0.000 C 
ENDBRANCH  20  33
ENDBRANCH  18  20
ENDBRANCH   1  18
TORSDOF 9
ENDMDL
MODEL 5
REMARK VINA RESULT:    -6.849      2.747      3.762
REMARK INTER + INTRA:         -11.148
REMARK INTER:                 -10.262
REMARK INTRA:                  -0.887
REMARK UNBOUND:                -0.695
REMARK  Name = 
REMARK  9 active torsions:
REMARK  status: ('A' for Active; 'I' for Inactive)
REMARK    1  A    between atoms: C_2  and  C_3
REMARK    2  A    between atoms: C_3  and  N_4
REMARK    3  A    between atoms: C_3  and  C_20
REMARK    4  A    between atoms: N_4  and  C_5
REMARK    5  A    between atoms: C_5  and  C_6
REMARK    6  A    between atoms: C_9  and  C_10
REMARK    7  A    between atoms: C_10  and  N_11
REMARK    8  A    between atoms: N_11  and  C_12
REMARK    9  A    between atoms: C_12  and  C_13
REMARK                            x       y       z     vdW  Elec       q    Type
REMARK                         _______ _______ _______ _____ _____    ______ ____
ROOT
ATOM      1  C   UNL     1      47.968   7.253  13.808  0.00  0.00    +0.000 C 
ENDROOT
BRANCH   1   2
ATOM      2  C   UNL     1      47.060   6.303  13.072  0.00  0.00    +0.000 A 
ATOM      3  C   UNL     1      46.545   5.166  13.704  0.00  0.00    +0.000 A 
ATOM      4  C   UNL     1      45.656   4.328  13.031  0.00  0.00    +0.000 A 
ATOM      5  C   UNL     1      45.248   4.623  11.724  0.00  0.00    +0.000 A 
ATOM      6  C   UNL     1      45.767   5.756  11.088  0.00  0.00    +0.000 A 
ATOM      7  C   UNL     1      46.668   6.585  11.755  0.00  0.00    +0.000 A 
BRANCH   5   8
ATOM      8  C   UNL     1      44.253   3.733  11.022  0.00  0.00    +0.000 C 
BRANCH   8   9
ATOM      9  N   UNL     1      44.910   2.507  10.561  0.00  0.00    +0.000 NA
ATOM     10  H   UNL     1      44.585   1.740  11.152  0.00  0.00    +0.000 HD
BRANCH   9  11
ATOM     11  C   UNL     1      44.522   2.212   9.178  0.00  0.00    +0.000 C 
BRANCH  11  12
ATOM     12  C   UNL     1      45.730   2.042   8.316  0.00  0.00    +0.000 A 
ATOM     13  N   UNL     1      46.400   0.928   8.090  0.00  0.00    +0.000 NA
ATOM     14  C   UNL     1      47.434   1.281   7.262  0.00  0.00    +0.000 A 
ATOM     15  C   UNL     1      47.398   2.627   6.980  0.00  0.00    +0.000 A 
ATOM     16  N   UNL     1      46.299   3.095   7.640  0.00  0.00    +0.000 N 
ATOM     17  H   UNL     1      45.959   4.047   7.684  0.00  0.00    +0.000 HD
ENDBRANCH  11  12
ENDBRANCH   9  11
ENDBRANCH   8   9
ENDBRANCH   5   8
ENDBRANCH   1   2
BRANCH   1  18
ATOM     18  N   UNL     1      48.957   6.550  14.632  0.00  0.00    +0.000 NA
ATOM     19  H   UNL     1      48.629   5.606  14.814  0.00  0.00    +0.000 HD
BRANCH  18  20
ATOM     20  C   UNL     1      49.128   7.237  15.928  0.00  0.00    +0.000 C 
BRANCH  20  21
ATOM     21  C   UNL     1      48.896   6.250  17.053  0.00  0.00    +0.000 A 
ATOM     22  C   UNL     1      49.201   4.895  17.026  0.00  0.00    +0.000 A 
ATOM     23  S   UNL     1      48.846   4.092  18.494  0.00  0.00    +0.000 S 
ATOM     24  C   UNL     1      48.302   5.531  19.222  0.00  0.00    +0.000 A 
ATOM     25  N   UNL     1      47.871   5.558  20.512  0.00  0.00    +0.000 NA
ATOM     26  C   UNL     1      47.518   6.729  20.930  0.00  0.00    +0.000 A 
ATOM     27  N   UNL     1      47.545   7.876  20.174  0.00  0.00    +0.000 N 
ATOM     28  C   UNL     1      47.953   7.894  18.861  0.00  0.00    +0.000 A 
ATOM     29  O   UNL     1      47.950   8.917  18.187  0.00  0.00    +0.000 OA
ATOM     30  C   UNL     1      48.375   6.601  18.354  0.00  0.00    +0.000 A 
ATOM     31  H   UNL     1      47.252   8.759  20.565  0.00  0.00    +0.000 HD
ENDBRANCH  20  21
BRANCH  20  33
ATOM     32  N   UNL     1      51.688   8.291  16.202  0.00  0.00    +0.000 NA
ATOM     33  C   UNL     1      50.526   7.813  16.077  0.00  0.00    +0.000 C 
ENDBRANCH  20  33
ENDBRANCH  18  20
ENDBRANCH   1  18
TORSDOF 9
ENDMDL
MODEL 6
REMARK VINA RESULT:    -6.754      3.033      9.039
REMARK INTER + INTRA:         -11.003
REMARK INTER:                 -10.155
REMARK INTRA:                  -0.848
REMARK UNBOUND:                -0.695
REMARK  Name = 
REMARK  9 active torsions:
REMARK  status: ('A' for Active; 'I' for Inactive)
REMARK    1  A    between atoms: C_2  and  C_3
REMARK    2  A    between atoms: C_3  and  N_4
REMARK    3  A    between atoms: C_3  and  C_20
REMARK    4  A    between atoms: N_4  and  C_5
REMARK    5  A    between atoms: C_5  and  C_6
REMARK    6  A    between atoms: C_9  and  C_10
REMARK    7  A    between atoms: C_10  and  N_11
REMARK    8  A    between atoms: N_11  and  C_12
REMARK    9  A    between atoms: C_12  and  C_13
REMARK                            x       y       z     vdW  Elec       q    Type
REMARK                         _______ _______ _______ _____ _____    ______ ____
ROOT
ATOM      1  C   UNL     1      47.543   6.529  13.136  0.00  0.00    +0.000 C 
ENDROOT
BRANCH   1   2
ATOM      2  C   UNL     1      47.768   5.923  14.495  0.00  0.00    +0.000 A 
ATOM      3  C   UNL     1      47.173   4.706  14.848  0.00  0.00    +0.000 A 
ATOM      4  C   UNL     1      47.440   4.124  16.088  0.00  0.00    +0.000 A 
ATOM      5  C   UNL     1      48.321   4.735  16.987  0.00  0.00    +0.000 A 
ATOM      6  C   UNL     1      48.912   5.955  16.640  0.00  0.00    +0.000 A 
ATOM      7  C   UNL     1      48.634   6.544  15.408  0.00  0.00    +0.000 A 
BRANCH   5   8
ATOM      8  C   UNL     1      48.634   4.075  18.307  0.00  0.00    +0.000 C 
BRANCH   8   9
ATOM      9  N   UNL     1      49.516   2.924  18.099  0.00  0.00    +0.000 NA
ATOM     10  H   UNL     1      49.076   2.319  17.403  0.00  0.00    +0.000 HD
BRANCH   9  11
ATOM     11  C   UNL     1      50.810   3.363  17.568  0.00  0.00    +0.000 C 
BRANCH  11  12
ATOM     12  C   UNL     1      51.838   2.292  17.732  0.00  0.00    +0.000 A 
ATOM     13  N   UNL     1      51.745   1.031  17.359  0.00  0.00    +0.000 NA
ATOM     14  C   UNL     1      52.922   0.443  17.745  0.00  0.00    +0.000 A 
ATOM     15  C   UNL     1      53.745   1.355  18.363  0.00  0.00    +0.000 A 
ATOM     16  N   UNL     1      53.053   2.532  18.330  0.00  0.00    +0.000 N 
ATOM     17  H   UNL     1      53.332   3.426  18.710  0.00  0.00    +0.000 HD
ENDBRANCH  11  12
ENDBRANCH   9  11
ENDBRANCH   8   9
ENDBRANCH   5   8
ENDBRANCH   1   2
BRANCH   1  18
ATOM     18  N   UNL     1      46.245   7.206  13.037  0.00  0.00    +0.000 NA
ATOM     19  H   UNL     1      45.627   6.847  13.758  0.00  0.00    +0.000 HD
BRANCH  18  20
ATOM     20  C   UNL     1      45.627   6.942  11.723  0.00  0.00    +0.000 C 
BRANCH  20  21
ATOM     21  C   UNL     1      44.929   5.597  11.758  0.00  0.00    +0.000 A 
ATOM     22  C   UNL     1      44.167   5.101  12.807  0.00  0.00    +0.000 A 
ATOM     23  S   UNL     1      43.490   3.564  12.484  0.00  0.00    +0.000 S 
ATOM     24  C   UNL     1      44.167   3.525  10.923  0.00  0.00    +0.000 A 
ATOM     25  N   UNL     1      43.954   2.479  10.080  0.00  0.00    +0.000 NA
ATOM     26  C   UNL     1      44.510   2.610   8.920  0.00  0.00    +0.000 A 
ATOM     27  N   UNL     1      45.271   3.684   8.528  0.00  0.00    +0.000 N 
ATOM     28  C   UNL     1      45.531   4.754   9.353  0.00  0.00    +0.000 A 
ATOM     29  O   UNL     1      46.231   5.697   9.003  0.00  0.00    +0.000 OA
ATOM     30  C   UNL     1      44.911   4.658  10.661  0.00  0.00    +0.000 A 
ATOM     31  H   UNL     1      45.678   3.720   7.606  0.00  0.00    +0.000 HD
ENDBRANCH  20  21
BRANCH  20  33
ATOM     32  N   UNL     1      43.748   8.884  11.064  0.00  0.00    +0.000 NA
ATOM     33  C   UNL     1      44.600   8.003  11.363  0.00  0.00    +0.000 C 
ENDBRANCH  20  33
ENDBRANCH  18  20
ENDBRANCH   1  18
TORSDOF 9
ENDMDL
MODEL 7
REMARK VINA RESULT:    -6.458      2.022      3.077
REMARK INTER + INTRA:         -10.551
REMARK INTER:                 -10.126
REMARK INTRA:                  -0.425
REMARK UNBOUND:                -0.695
REMARK  Name = 
REMARK  9 active torsions:
REMARK  status: ('A' for Active; 'I' for Inactive)
REMARK    1  A    between atoms: C_2  and  C_3
REMARK    2  A    between atoms: C_3  and  N_4
REMARK    3  A    between atoms: C_3  and  C_20
REMARK    4  A    between atoms: N_4  and  C_5
REMARK    5  A    between atoms: C_5  and  C_6
REMARK    6  A    between atoms: C_9  and  C_10
REMARK    7  A    between atoms: C_10  and  N_11
REMARK    8  A    between atoms: N_11  and  C_12
REMARK    9  A    between atoms: C_12  and  C_13
REMARK                            x       y       z     vdW  Elec       q    Type
REMARK                         _______ _______ _______ _____ _____    ______ ____
ROOT
ATOM      1  C   UNL     1      48.482   7.165  14.194  0.00  0.00    +0.000 C 
ENDROOT
BRANCH   1   2
ATOM      2  C   UNL     1      47.408   6.331  13.548  0.00  0.00    +0.000 A 
ATOM      3  C   UNL     1      46.742   6.779  12.401  0.00  0.00    +0.000 A 
ATOM      4  C   UNL     1      45.793   5.970  11.776  0.00  0.00    +0.000 A 
ATOM      5  C   UNL     1      45.507   4.692  12.271  0.00  0.00    +0.000 A 
ATOM      6  C   UNL     1      46.166   4.245  13.422  0.00  0.00    +0.000 A 
ATOM      7  C   UNL     1      47.104   5.059  14.055  0.00  0.00    +0.000 A 
BRANCH   5   8
ATOM      8  C   UNL     1      44.510   3.811  11.562  0.00  0.00    +0.000 C 
BRANCH   8   9
ATOM      9  N   UNL     1      45.208   2.807  10.756  0.00  0.00    +0.000 NA
ATOM     10  H   UNL     1      44.961   1.887  11.125  0.00  0.00    +0.000 HD
BRANCH   9  11
ATOM     11  C   UNL     1      44.759   2.873   9.361  0.00  0.00    +0.000 C 
BRANCH  11  12
ATOM     12  C   UNL     1      45.779   2.271   8.450  0.00  0.00    +0.000 A 
ATOM     13  N   UNL     1      46.103   0.998   8.344  0.00  0.00    +0.000 NA
ATOM     14  C   UNL     1      47.098   0.947   7.402  0.00  0.00    +0.000 A 
ATOM     15  C   UNL     1      47.386   2.204   6.926  0.00  0.00    +0.000 A 
ATOM     16  N   UNL     1      46.527   3.035   7.586  0.00  0.00    +0.000 N 
ATOM     17  H   UNL     1      46.457   4.041   7.512  0.00  0.00    +0.000 HD
ENDBRANCH  11  12
ENDBRANCH   9  11
ENDBRANCH   8   9
ENDBRANCH   5   8
ENDBRANCH   1   2
BRANCH   1  18
ATOM     18  N   UNL     1      49.296   6.388  15.136  0.00  0.00    +0.000 NA
ATOM     19  H   UNL     1      48.683   5.831  15.725  0.00  0.00    +0.000 HD
BRANCH  18  20
ATOM     20  C   UNL     1      50.077   7.290  16.005  0.00  0.00    +0.000 C 
BRANCH  20  21
ATOM     21  C   UNL     1      49.482   7.284  17.399  0.00  0.00    +0.000 A 
ATOM     22  C   UNL     1      49.014   8.393  18.091  0.00  0.00    +0.000 A 
ATOM     23  S   UNL     1      48.365   8.008  19.626  0.00  0.00    +0.000 S 
ATOM     24  C   UNL     1      48.661   6.346  19.404  0.00  0.00    +0.000 A 
ATOM     25  N   UNL     1      48.314   5.429  20.346  0.00  0.00    +0.000 NA
ATOM     26  C   UNL     1      48.577   4.206  20.019  0.00  0.00    +0.000 A 
ATOM     27  N   UNL     1      49.165   3.816  18.841  0.00  0.00    +0.000 N 
ATOM     28  C   UNL     1      49.551   4.708  17.868  0.00  0.00    +0.000 A 
ATOM     29  O   UNL     1      50.097   4.352  16.831  0.00  0.00    +0.000 OA
ATOM     30  C   UNL     1      49.260   6.094  18.186  0.00  0.00    +0.000 A 
ATOM     31  H   UNL     1      49.344   2.841  18.651  0.00  0.00    +0.000 HD
ENDBRANCH  20  21
BRANCH  20  33
ATOM     32  N   UNL     1      52.736   6.494  16.186  0.00  0.00    +0.000 NA
ATOM     33  C   UNL     1      51.530   6.855  16.104  0.00  0.00    +0.000 C 
ENDBRANCH  20  33
ENDBRANCH  18  20
ENDBRANCH   1  18
TORSDOF 9
ENDMDL
MODEL 8
REMARK VINA RESULT:    -6.449      3.452      9.565
REMARK INTER + INTRA:         -10.537
REMARK INTER:                  -9.396
REMARK INTRA:                  -1.141
REMARK UNBOUND:                -0.695
REMARK  Name = 
REMARK  9 active torsions:
REMARK  status: ('A' for Active; 'I' for Inactive)
REMARK    1  A    between atoms: C_2  and  C_3
REMARK    2  A    between atoms: C_3  and  N_4
REMARK    3  A    between atoms: C_3  and  C_20
REMARK    4  A    between atoms: N_4  and  C_5
REMARK    5  A    between atoms: C_5  and  C_6
REMARK    6  A    between atoms: C_9  and  C_10
REMARK    7  A    between atoms: C_10  and  N_11
REMARK    8  A    between atoms: N_11  and  C_12
REMARK    9  A    between atoms: C_12  and  C_13
REMARK                            x       y       z     vdW  Elec       q    Type
REMARK                         _______ _______ _______ _____ _____    ______ ____
ROOT
ATOM      1  C   UNL     1      47.637   6.233  13.413  0.00  0.00    +0.000 C 
ENDROOT
BRANCH   1   2
ATOM      2  C   UNL     1      47.799   5.610  14.774  0.00  0.00    +0.000 A 
ATOM      3  C   UNL     1      47.161   4.406  15.095  0.00  0.00    +0.000 A 
ATOM      4  C   UNL     1      47.369   3.808  16.338  0.00  0.00    +0.000 A 
ATOM      5  C   UNL     1      48.235   4.388  17.272  0.00  0.00    +0.000 A 
ATOM      6  C   UNL     1      48.870   5.595  16.957  0.00  0.00    +0.000 A 
ATOM      7  C   UNL     1      48.650   6.201  15.720  0.00  0.00    +0.000 A 
BRANCH   5   8
ATOM      8  C   UNL     1      48.486   3.710  18.596  0.00  0.00    +0.000 C 
BRANCH   8   9
ATOM      9  N   UNL     1      49.671   4.282  19.240  0.00  0.00    +0.000 NA
ATOM     10  H   UNL     1      49.954   5.099  18.697  0.00  0.00    +0.000 HD
BRANCH   9  11
ATOM     11  C   UNL     1      49.346   4.728  20.599  0.00  0.00    +0.000 C 
BRANCH  11  12
ATOM     12  C   UNL     1      48.802   6.119  20.581  0.00  0.00    +0.000 A 
ATOM     13  N   UNL     1      47.570   6.499  20.856  0.00  0.00    +0.000 NA
ATOM     14  C   UNL     1      47.555   7.859  20.678  0.00  0.00    +0.000 A 
ATOM     15  C   UNL     1      48.792   8.315  20.289  0.00  0.00    +0.000 A 
ATOM     16  N   UNL     1      49.581   7.203  20.250  0.00  0.00    +0.000 N 
ATOM     17  H   UNL     1      50.556   7.141  19.986  0.00  0.00    +0.000 HD
ENDBRANCH  11  12
ENDBRANCH   9  11
ENDBRANCH   8   9
ENDBRANCH   5   8
ENDBRANCH   1   2
BRANCH   1  18
ATOM     18  N   UNL     1      46.325   6.868  13.246  0.00  0.00    +0.000 NA
ATOM     19  H   UNL     1      45.663   6.440  13.887  0.00  0.00    +0.000 HD
BRANCH  18  20
ATOM     20  C   UNL     1      45.830   6.669  11.869  0.00  0.00    +0.000 C 
BRANCH  20  21
ATOM     21  C   UNL     1      45.102   5.343  11.785  0.00  0.00    +0.000 A 
ATOM     22  C   UNL     1      44.357   4.756  12.799  0.00  0.00    +0.000 A 
ATOM     23  S   UNL     1      43.635   3.276  12.337  0.00  0.00    +0.000 S 
ATOM     24  C   UNL     1      44.268   3.386  10.761  0.00  0.00    +0.000 A 
ATOM     25  N   UNL     1      44.008   2.438   9.821  0.00  0.00    +0.000 NA
ATOM     26  C   UNL     1      44.535   2.678   8.665  0.00  0.00    +0.000 A 
ATOM     27  N   UNL     1      45.310   3.772   8.365  0.00  0.00    +0.000 N 
ATOM     28  C   UNL     1      45.618   4.744   9.288  0.00  0.00    +0.000 A 
ATOM     29  O   UNL     1      46.330   5.703   9.018  0.00  0.00    +0.000 OA
ATOM     30  C   UNL     1      45.031   4.524  10.597  0.00  0.00    +0.000 A 
ATOM     31  H   UNL     1      45.693   3.895   7.440  0.00  0.00    +0.000 HD
ENDBRANCH  20  21
BRANCH  20  33
ATOM     32  N   UNL     1      44.067   8.684  11.111  0.00  0.00    +0.000 NA
ATOM     33  C   UNL     1      44.867   7.770  11.455  0.00  0.00    +0.000 C 
ENDBRANCH  20  33
ENDBRANCH  18  20
ENDBRANCH   1  18
TORSDOF 9
ENDMDL
MODEL 9
REMARK VINA RESULT:    -6.363      1.960      2.875
REMARK INTER + INTRA:         -10.406
REMARK INTER:                  -9.192
REMARK INTRA:                  -1.214
REMARK UNBOUND:                -0.695
REMARK  Name = 
REMARK  9 active torsions:
REMARK  status: ('A' for Active; 'I' for Inactive)
REMARK    1  A    between atoms: C_2  and  C_3
REMARK    2  A    between atoms: C_3  and  N_4
REMARK    3  A    between atoms: C_3  and  C_20
REMARK    4  A    between atoms: N_4  and  C_5
REMARK    5  A    between atoms: C_5  and  C_6
REMARK    6  A    between atoms: C_9  and  C_10
REMARK    7  A    between atoms: C_10  and  N_11
REMARK    8  A    between atoms: N_11  and  C_12
REMARK    9  A    between atoms: C_12  and  C_13
REMARK                            x       y       z     vdW  Elec       q    Type
REMARK                         _______ _______ _______ _____ _____    ______ ____
ROOT
ATOM      1  C   UNL     1      49.426   7.633  14.363  0.00  0.00    +0.000 C 
ENDROOT
BRANCH   1   2
ATOM      2  C   UNL     1      48.105   7.283  13.730  0.00  0.00    +0.000 A 
ATOM      3  C   UNL     1      47.768   5.953  13.456  0.00  0.00    +0.000 A 
ATOM      4  C   UNL     1      46.516   5.638  12.927  0.00  0.00    +0.000 A 
ATOM      5  C   UNL     1      45.572   6.641  12.683  0.00  0.00    +0.000 A 
ATOM      6  C   UNL     1      45.908   7.973  12.950  0.00  0.00    +0.000 A 
ATOM      7  C   UNL     1      47.165   8.290  13.464  0.00  0.00    +0.000 A 
BRANCH   5   8
ATOM      8  C   UNL     1      44.206   6.284  12.151  0.00  0.00    +0.000 C 
BRANCH   8   9
ATOM      9  N   UNL     1      43.925   4.867  12.394  0.00  0.00    +0.000 NA
ATOM     10  H   UNL     1      43.459   4.795  13.300  0.00  0.00    +0.000 HD
BRANCH   9  11
ATOM     11  C   UNL     1      43.013   4.346  11.370  0.00  0.00    +0.000 C 
BRANCH  11  12
ATOM     12  C   UNL     1      43.781   3.775  10.223  0.00  0.00    +0.000 A 
ATOM     13  N   UNL     1      44.306   2.568  10.135  0.00  0.00    +0.000 NA
ATOM     14  C   UNL     1      44.927   2.524   8.913  0.00  0.00    +0.000 A 
ATOM     15  C   UNL     1      44.781   3.718   8.247  0.00  0.00    +0.000 A 
ATOM     16  N   UNL     1      44.033   4.498   9.081  0.00  0.00    +0.000 N 
ATOM     17  H   UNL     1      43.738   5.455   8.939  0.00  0.00    +0.000 HD
ENDBRANCH  11  12
ENDBRANCH   9  11
ENDBRANCH   8   9
ENDBRANCH   5   8
ENDBRANCH   1   2
BRANCH   1  18
ATOM     18  N   UNL     1      49.262   8.266  15.676  0.00  0.00    +0.000 NA
ATOM     19  H   UNL     1      50.156   8.644  15.977  0.00  0.00    +0.000 HD
BRANCH  18  20
ATOM     20  C   UNL     1      48.819   7.273  16.674  0.00  0.00    +0.000 C 
BRANCH  20  21
ATOM     21  C   UNL     1      49.947   6.298  16.945  0.00  0.00    +0.000 A 
ATOM     22  C   UNL     1      51.272   6.630  17.190  0.00  0.00    +0.000 A 
ATOM     23  S   UNL     1      52.264   5.272  17.501  0.00  0.00    +0.000 S 
ATOM     24  C   UNL     1      50.951   4.199  17.349  0.00  0.00    +0.000 A 
ATOM     25  N   UNL     1      51.102   2.859  17.524  0.00  0.00    +0.000 NA
ATOM     26  C   UNL     1      50.007   2.181  17.405  0.00  0.00    +0.000 A 
ATOM     27  N   UNL     1      48.777   2.718  17.113  0.00  0.00    +0.000 N 
ATOM     28  C   UNL     1      48.580   4.064  16.907  0.00  0.00    +0.000 A 
ATOM     29  O   UNL     1      47.483   4.530  16.623  0.00  0.00    +0.000 OA
ATOM     30  C   UNL     1      49.781   4.866  17.048  0.00  0.00    +0.000 A 
ATOM     31  H   UNL     1      47.963   2.128  17.031  0.00  0.00    +0.000 HD
ENDBRANCH  20  21
BRANCH  20  33
ATOM     32  N   UNL     1      48.111   8.480  19.078  0.00  0.00    +0.000 NA
ATOM     33  C   UNL     1      48.432   7.933  17.988  0.00  0.00    +0.000 C 
ENDBRANCH  20  33
ENDBRANCH  18  20
ENDBRANCH   1  18
TORSDOF 9
ENDMDL
