MODEL 1
REMARK VINA RESULT:    -8.623      0.000      0.000
REMARK INTER + INTRA:         -13.929
REMARK INTER:                 -12.404
REMARK INTRA:                  -1.525
REMARK UNBOUND:                -1.525
REMARK  Name = 
REMARK  9 active torsions:
REMARK  status: ('A' for Active; 'I' for Inactive)
REMARK    1  A    between atoms: C_1  and  O_2
REMARK    2  A    between atoms: O_2  and  C_3
REMARK    3  A    between atoms: C_10  and  C_11
REMARK    4  A    between atoms: N_13  and  C_14
REMARK    5  A    between atoms: C_14  and  C_15
REMARK    6  A    between atoms: C_18  and  C_19
REMARK    7  A    between atoms: C_19  and  C_20
REMARK    8  A    between atoms: C_20  and  O_21
REMARK    9  A    between atoms: C_20  and  C_22
REMARK                            x       y       z     vdW  Elec       q    Type
REMARK                         _______ _______ _______ _____ _____    ______ ____
ROOT
ATOM      1  C   UNL     1      46.778   8.056  13.220  0.00  0.00    +0.000 C 
ENDROOT
BRANCH   1   2
ATOM      2  C   UNL     1      46.109   7.054  12.319  0.00  0.00    +0.000 A 
ATOM      3  C   UNL     1      46.661   6.752  11.071  0.00  0.00    +0.000 A 
ATOM      4  C   UNL     1      46.042   5.833  10.222  0.00  0.00    +0.000 A 
ATOM      5  C   UNL     1      44.851   5.192  10.590  0.00  0.00    +0.000 A 
ATOM      6  C   UNL     1      44.281   5.527  11.827  0.00  0.00    +0.000 A 
ATOM      7  C   UNL     1      44.897   6.450  12.679  0.00  0.00    +0.000 A 
BRANCH   5   8
ATOM      8  C   UNL     1      44.173   4.134   9.730  0.00  0.00    +0.000 C 
BRANCH   8   9
ATOM      9  C   UNL     1      44.836   2.739   9.712  0.00  0.00    +0.000 C 
BRANCH   9  10
ATOM     10  C   UNL     1      45.637   2.445   8.457  0.00  0.00    +0.000 A 
ATOM     11  C   UNL     1      45.807   3.457   7.511  0.00  0.00    +0.000 A 
ATOM     12  C   UNL     1      46.616   3.225   6.403  0.00  0.00    +0.000 A 
ATOM     13  C   UNL     1      47.244   1.994   6.272  0.00  0.00    +0.000 A 
ATOM     14  C   UNL     1      47.041   1.048   7.262  0.00  0.00    +0.000 A 
ATOM     15  N   UNL     1      46.263   1.244   8.351  0.00  0.00    +0.000 NA
ENDBRANCH   9  10
BRANCH   9  16
ATOM     16  O   UNL     1      43.844   1.709   9.828  0.00  0.00    +0.000 OA
ATOM     17  H   UNL     1      43.946   1.342  10.725  0.00  0.00    +0.000 HD
ENDBRANCH   9  16
ENDBRANCH   8   9
ENDBRANCH   5   8
ENDBRANCH   1   2
BRANCH   1  20
ATOM     18  C   UNL     1      48.549   6.869  14.450  0.00  0.00    +0.000 C 
ATOM     19  O   UNL     1      49.303   6.907  13.478  0.00  0.00    +0.000 OA
ATOM     20  N   UNL     1      47.297   7.407  14.395  0.00  0.00    +0.000 N 
ATOM     21  H   UNL     1      46.678   7.335  15.193  0.00  0.00    +0.000 HD
BRANCH  18  29
ATOM     22  C   UNL     1      47.312   4.235  16.291  0.00  0.00    +0.000 A 
ATOM     23  N   UNL     1      47.045   3.266  17.187  0.00  0.00    +0.000 NA
ATOM     24  C   UNL     1      47.842   3.167  18.257  0.00  0.00    +0.000 A 
ATOM     25  N   UNL     1      48.889   3.933  18.550  0.00  0.00    +0.000 NA
ATOM     26  C   UNL     1      49.122   4.882  17.628  0.00  0.00    +0.000 A 
ATOM     27  S   UNL     1      50.421   5.955  17.840  0.00  0.00    +0.000 S 
ATOM     28  C   UNL     1      50.056   6.760  16.389  0.00  0.00    +0.000 A 
ATOM     29  C   UNL     1      48.958   6.240  15.716  0.00  0.00    +0.000 A 
ATOM     30  C   UNL     1      48.397   5.114  16.463  0.00  0.00    +0.000 A 
BRANCH  22  32
ATOM     31  C   UNL     1      47.056   3.628  14.044  0.00  0.00    +0.000 C 
ATOM     32  O   UNL     1      46.512   4.313  15.170  0.00  0.00    +0.000 OA
ENDBRANCH  22  32
ENDBRANCH  18  29
ENDBRANCH   1  20
TORSDOF 8
ENDMDL
MODEL 2
REMARK VINA RESULT:    -7.706      2.029      2.614
REMARK INTER + INTRA:         -12.610
REMARK INTER:                 -11.513
REMARK INTRA:                  -1.097
REMARK UNBOUND:                -1.525
REMARK  Name = 
REMARK  9 active torsions:
REMARK  status: ('A' for Active; 'I' for Inactive)
REMARK    1  A    between atoms: C_1  and  O_2
REMARK    2  A    between atoms: O_2  and  C_3
REMARK    3  A    between atoms: C_10  and  C_11
REMARK    4  A    between atoms: N_13  and  C_14
REMARK    5  A    between atoms: C_14  and  C_15
REMARK    6  A    between atoms: C_18  and  C_19
REMARK    7  A    between atoms: C_19  and  C_20
REMARK    8  A    between atoms: C_20  and  O_21
REMARK    9  A    between atoms: C_20  and  C_22
REMARK                            x       y       z     vdW  Elec       q    Type
REMARK                         _______ _______ _______ _____ _____    ______ ____
ROOT
ATOM      1  C   UNL     1      47.776   7.042  13.710  0.00  0.00    +0.000 C 
ENDROOT
BRANCH   1   2
ATOM      2  C   UNL     1      46.903   6.251  12.774  0.00  0.00    +0.000 A 
ATOM      3  C   UNL     1      46.647   6.724  11.484  0.00  0.00    +0.000 A 
ATOM      4  C   UNL     1      45.830   6.005  10.610  0.00  0.00    +0.000 A 
ATOM      5  C   UNL     1      45.240   4.794  10.999  0.00  0.00    +0.000 A 
ATOM      6  C   UNL     1      45.470   4.342  12.307  0.00  0.00    +0.000 A 
ATOM      7  C   UNL     1      46.286   5.063  13.186  0.00  0.00    +0.000 A 
BRANCH   5   8
ATOM      8  C   UNL     1      44.396   3.938  10.063  0.00  0.00    +0.000 C 
BRANCH   8   9
ATOM      9  C   UNL     1      44.915   2.510   9.789  0.00  0.00    +0.000 C 
BRANCH   9  10
ATOM     10  C   UNL     1      45.684   2.363   8.489  0.00  0.00    +0.000 A 
ATOM     11  C   UNL     1      45.799   3.469   7.644  0.00  0.00    +0.000 A 
ATOM     12  C   UNL     1      46.578   3.370   6.496  0.00  0.00    +0.000 A 
ATOM     13  C   UNL     1      47.234   2.175   6.225  0.00  0.00    +0.000 A 
ATOM     14  C   UNL     1      47.084   1.131   7.121  0.00  0.00    +0.000 A 
ATOM     15  N   UNL     1      46.335   1.197   8.246  0.00  0.00    +0.000 NA
ENDBRANCH   9  10
BRANCH   9  16
ATOM     16  O   UNL     1      43.823   1.581   9.738  0.00  0.00    +0.000 OA
ATOM     17  H   UNL     1      44.152   0.811   9.237  0.00  0.00    +0.000 HD
ENDBRANCH   9  16
ENDBRANCH   8   9
ENDBRANCH   5   8
ENDBRANCH   1   2
BRANCH   1  20
ATOM     18  C   UNL     1      48.860   6.302  15.792  0.00  0.00    +0.000 C 
ATOM     19  O   UNL     1      49.971   6.627  15.374  0.00  0.00    +0.000 OA
ATOM     20  N   UNL     1      47.740   6.472  15.032  0.00  0.00    +0.000 N 
ATOM     21  H   UNL     1      46.840   6.167  15.378  0.00  0.00    +0.000 HD
BRANCH  18  29
ATOM     22  C   UNL     1      47.926   7.599  18.842  0.00  0.00    +0.000 A 
ATOM     23  N   UNL     1      47.594   7.836  20.126  0.00  0.00    +0.000 NA
ATOM     24  C   UNL     1      47.619   6.807  20.979  0.00  0.00    +0.000 A 
ATOM     25  N   UNL     1      47.945   5.546  20.705  0.00  0.00    +0.000 NA
ATOM     26  C   UNL     1      48.264   5.353  19.415  0.00  0.00    +0.000 A 
ATOM     27  S   UNL     1      48.709   3.802  18.884  0.00  0.00    +0.000 S 
ATOM     28  C   UNL     1      48.939   4.359  17.295  0.00  0.00    +0.000 A 
ATOM     29  C   UNL     1      48.683   5.714  17.130  0.00  0.00    +0.000 A 
ATOM     30  C   UNL     1      48.281   6.310  18.404  0.00  0.00    +0.000 A 
BRANCH  22  32
ATOM     31  C   UNL     1      49.094   9.366  17.845  0.00  0.00    +0.000 C 
ATOM     32  O   UNL     1      47.864   8.653  17.956  0.00  0.00    +0.000 OA
ENDBRANCH  22  32
ENDBRANCH  18  29
ENDBRANCH   1  20
TORSDOF 8
ENDMDL
MODEL 3
REMARK VINA RESULT:    -7.338      1.632      2.283
REMARK INTER + INTRA:         -12.080
REMARK INTER:                 -11.222
REMARK INTRA:                  -0.859
REMARK UNBOUND:                -1.525
REMARK  Name = 
REMARK  9 active torsions:
REMARK  status: ('A' for Active; 'I' for Inactive)
REMARK    1  A    between atoms: C_1  and  O_2
REMARK    2  A    between atoms: O_2  and  C_3
REMARK    3  A    between atoms: C_10  and  C_11
REMARK    4  A    between atoms: N_13  and  C_14
REMARK    5  A    between atoms: C_14  and  C_15
REMARK    6  A    between atoms: C_18  and  C_19
REMARK    7  A    between atoms: C_19  and  C_20
REMARK    8  A    between atoms: C_20  and  O_21
REMARK    9  A    between atoms: C_20  and  C_22
REMARK                            x       y       z     vdW  Elec       q    Type
REMARK                         _______ _______ _______ _____ _____    ______ ____
ROOT
ATOM      1  C   UNL     1      45.688   8.233  12.900  0.00  0.00    +0.000 C 
ENDROOT
BRANCH   1   2
ATOM      2  C   UNL     1      45.430   6.885  12.283  0.00  0.00    +0.000 A 
ATOM      3  C   UNL     1      44.690   5.925  12.977  0.00  0.00    +0.000 A 
ATOM      4  C   UNL     1      44.455   4.666  12.419  0.00  0.00    +0.000 A 
ATOM      5  C   UNL     1      44.955   4.328  11.155  0.00  0.00    +0.000 A 
ATOM      6  C   UNL     1      45.730   5.283  10.477  0.00  0.00    +0.000 A 
ATOM      7  C   UNL     1      45.970   6.543  11.036  0.00  0.00    +0.000 A 
BRANCH   5   8
ATOM      8  C   UNL     1      44.671   2.996  10.474  0.00  0.00    +0.000 C 
BRANCH   8   9
ATOM      9  C   UNL     1      44.371   3.051   8.960  0.00  0.00    +0.000 C 
BRANCH   9  10
ATOM     10  C   UNL     1      45.575   2.790   8.074  0.00  0.00    +0.000 A 
ATOM     11  C   UNL     1      46.209   1.548   8.144  0.00  0.00    +0.000 A 
ATOM     12  C   UNL     1      47.256   1.268   7.272  0.00  0.00    +0.000 A 
ATOM     13  C   UNL     1      47.637   2.228   6.344  0.00  0.00    +0.000 A 
ATOM     14  C   UNL     1      46.947   3.429   6.325  0.00  0.00    +0.000 A 
ATOM     15  N   UNL     1      45.925   3.729   7.158  0.00  0.00    +0.000 NA
ENDBRANCH   9  10
BRANCH   9  16
ATOM     16  O   UNL     1      43.854   4.339   8.597  0.00  0.00    +0.000 OA
ATOM     17  H   UNL     1      44.114   4.478   7.668  0.00  0.00    +0.000 HD
ENDBRANCH   9  16
ENDBRANCH   8   9
ENDBRANCH   5   8
ENDBRANCH   1   2
BRANCH   1  20
ATOM     18  C   UNL     1      48.038   8.397  13.613  0.00  0.00    +0.000 C 
ATOM     19  O   UNL     1      48.399   8.717  12.481  0.00  0.00    +0.000 OA
ATOM     20  N   UNL     1      46.727   8.141  13.892  0.00  0.00    +0.000 N 
ATOM     21  H   UNL     1      46.454   7.847  14.820  0.00  0.00    +0.000 HD
BRANCH  18  29
ATOM     22  C   UNL     1      48.761   5.880  15.848  0.00  0.00    +0.000 A 
ATOM     23  N   UNL     1      49.237   5.081  16.822  0.00  0.00    +0.000 NA
ATOM     24  C   UNL     1      50.211   5.560  17.604  0.00  0.00    +0.000 A 
ATOM     25  N   UNL     1      50.775   6.763  17.535  0.00  0.00    +0.000 NA
ATOM     26  C   UNL     1      50.275   7.524  16.548  0.00  0.00    +0.000 A 
ATOM     27  S   UNL     1      50.877   9.094  16.312  0.00  0.00    +0.000 S 
ATOM     28  C   UNL     1      49.820   9.357  15.008  0.00  0.00    +0.000 A 
ATOM     29  C   UNL     1      48.999   8.274  14.721  0.00  0.00    +0.000 A 
ATOM     30  C   UNL     1      49.272   7.175  15.648  0.00  0.00    +0.000 A 
BRANCH  22  32
ATOM     31  C   UNL     1      47.318   4.086  15.423  0.00  0.00    +0.000 C 
ATOM     32  O   UNL     1      47.782   5.372  15.020  0.00  0.00    +0.000 OA
ENDBRANCH  22  32
ENDBRANCH  18  29
ENDBRANCH   1  20
TORSDOF 8
ENDMDL
MODEL 4
REMARK VINA RESULT:    -7.276      1.556      1.818
REMARK INTER + INTRA:         -11.991
REMARK INTER:                 -10.886
REMARK INTRA:                  -1.105
REMARK UNBOUND:                -1.525
REMARK  Name = 
REMARK  9 active torsions:
REMARK  status: ('A' for Active; 'I' for Inactive)
REMARK    1  A    between atoms: C_1  and  O_2
REMARK    2  A    between atoms: O_2  and  C_3
REMARK    3  A    between atoms: C_10  and  C_11
REMARK    4  A    between atoms: N_13  and  C_14
REMARK    5  A    between atoms: C_14  and  C_15
REMARK    6  A    between atoms: C_18  and  C_19
REMARK    7  A    between atoms: C_19  and  C_20
REMARK    8  A    between atoms: C_20  and  O_21
REMARK    9  A    between atoms: C_20  and  C_22
REMARK                            x       y       z     vdW  Elec       q    Type
REMARK                         _______ _______ _______ _____ _____    ______ ____
ROOT
ATOM      1  C   UNL     1      47.895   8.149  13.452  0.00  0.00    +0.000 C 
ENDROOT
BRANCH   1   2
ATOM      2  C   UNL     1      46.880   7.229  12.830  0.00  0.00    +0.000 A 
ATOM      3  C   UNL     1      45.900   7.739  11.975  0.00  0.00    +0.000 A 
ATOM      4  C   UNL     1      44.945   6.896  11.401  0.00  0.00    +0.000 A 
ATOM      5  C   UNL     1      44.939   5.520  11.667  0.00  0.00    +0.000 A 
ATOM      6  C   UNL     1      45.903   5.018  12.555  0.00  0.00    +0.000 A 
ATOM      7  C   UNL     1      46.857   5.862  13.134  0.00  0.00    +0.000 A 
BRANCH   5   8
ATOM      8  C   UNL     1      43.964   4.549  11.015  0.00  0.00    +0.000 C 
BRANCH   8   9
ATOM      9  C   UNL     1      44.487   3.117  10.768  0.00  0.00    +0.000 C 
BRANCH   9  10
ATOM     10  C   UNL     1      45.157   2.921   9.421  0.00  0.00    +0.000 A 
ATOM     11  C   UNL     1      45.410   4.038   8.623  0.00  0.00    +0.000 A 
ATOM     12  C   UNL     1      46.106   3.879   7.429  0.00  0.00    +0.000 A 
ATOM     13  C   UNL     1      46.542   2.612   7.065  0.00  0.00    +0.000 A 
ATOM     14  C   UNL     1      46.268   1.556   7.919  0.00  0.00    +0.000 A 
ATOM     15  N   UNL     1      45.596   1.681   9.086  0.00  0.00    +0.000 NA
ENDBRANCH   9  10
BRANCH   9  16
ATOM     16  O   UNL     1      43.412   2.170  10.844  0.00  0.00    +0.000 OA
ATOM     17  H   UNL     1      42.809   2.507  11.532  0.00  0.00    +0.000 HD
ENDBRANCH   9  16
ENDBRANCH   8   9
ENDBRANCH   5   8
ENDBRANCH   1   2
BRANCH   1  20
ATOM     18  C   UNL     1      48.905   7.341  15.546  0.00  0.00    +0.000 C 
ATOM     19  O   UNL     1      49.854   6.844  14.941  0.00  0.00    +0.000 OA
ATOM     20  N   UNL     1      47.905   7.991  14.883  0.00  0.00    +0.000 N 
ATOM     21  H   UNL     1      47.116   8.363  15.394  0.00  0.00    +0.000 HD
BRANCH  18  29
ATOM     22  C   UNL     1      48.758   4.707  17.759  0.00  0.00    +0.000 A 
ATOM     23  N   UNL     1      48.686   3.884  18.822  0.00  0.00    +0.000 NA
ATOM     24  C   UNL     1      48.588   4.436  20.036  0.00  0.00    +0.000 A 
ATOM     25  N   UNL     1      48.548   5.735  20.324  0.00  0.00    +0.000 NA
ATOM     26  C   UNL     1      48.628   6.519  19.237  0.00  0.00    +0.000 A 
ATOM     27  S   UNL     1      48.589   8.207  19.416  0.00  0.00    +0.000 S 
ATOM     28  C   UNL     1      48.719   8.437  17.738  0.00  0.00    +0.000 A 
ATOM     29  C   UNL     1      48.798   7.256  17.011  0.00  0.00    +0.000 A 
ATOM     30  C   UNL     1      48.740   6.105  17.913  0.00  0.00    +0.000 A 
BRANCH  22  32
ATOM     31  C   UNL     1      47.782   3.330  16.136  0.00  0.00    +0.000 C 
ATOM     32  O   UNL     1      48.896   4.137  16.511  0.00  0.00    +0.000 OA
ENDBRANCH  22  32
ENDBRANCH  18  29
ENDBRANCH   1  20
TORSDOF 8
ENDMDL
MODEL 5
REMARK VINA RESULT:    -7.214      1.429      1.832
REMARK INTER + INTRA:         -11.902
REMARK INTER:                 -10.630
REMARK INTRA:                  -1.272
REMARK UNBOUND:                -1.525
REMARK  Name = 
REMARK  9 active torsions:
REMARK  status: ('A' for Active; 'I' for Inactive)
REMARK    1  A    between atoms: C_1  and  O_2
REMARK    2  A    between atoms: O_2  and  C_3
REMARK    3  A    between atoms: C_10  and  C_11
REMARK    4  A    between atoms: N_13  and  C_14
REMARK    5  A    between atoms: C_14  and  C_15
REMARK    6  A    between atoms: C_18  and  C_19
REMARK    7  A    between atoms: C_19  and  C_20
REMARK    8  A    between atoms: C_20  and  O_21
REMARK    9  A    between atoms: C_20  and  C_22
REMARK                            x       y       z     vdW  Elec       q    Type
REMARK                         _______ _______ _______ _____ _____    ______ ____
ROOT
ATOM      1  C   UNL     1      46.826   8.317  13.648  0.00  0.00    +0.000 C 
ENDROOT
BRANCH   1   2
ATOM      2  C   UNL     1      46.142   7.318  12.755  0.00  0.00    +0.000 A 
ATOM      3  C   UNL     1      44.910   7.626  12.171  0.00  0.00    +0.000 A 
ATOM      4  C   UNL     1      44.260   6.702  11.350  0.00  0.00    +0.000 A 
ATOM      5  C   UNL     1      44.818   5.442  11.091  0.00  0.00    +0.000 A 
ATOM      6  C   UNL     1      46.037   5.124  11.710  0.00  0.00    +0.000 A 
ATOM      7  C   UNL     1      46.688   6.047  12.536  0.00  0.00    +0.000 A 
BRANCH   5   8
ATOM      8  C   UNL     1      44.183   4.426  10.152  0.00  0.00    +0.000 C 
BRANCH   8   9
ATOM      9  C   UNL     1      44.839   3.028  10.112  0.00  0.00    +0.000 C 
BRANCH   9  10
ATOM     10  C   UNL     1      45.550   2.710   8.810  0.00  0.00    +0.000 A 
ATOM     11  C   UNL     1      45.774   3.738   7.892  0.00  0.00    +0.000 A 
ATOM     12  C   UNL     1      46.505   3.474   6.738  0.00  0.00    +0.000 A 
ATOM     13  C   UNL     1      47.005   2.195   6.533  0.00  0.00    +0.000 A 
ATOM     14  C   UNL     1      46.757   1.234   7.498  0.00  0.00    +0.000 A 
ATOM     15  N   UNL     1      46.051   1.461   8.630  0.00  0.00    +0.000 NA
ENDBRANCH   9  10
BRANCH   9  16
ATOM     16  O   UNL     1      43.854   2.006  10.313  0.00  0.00    +0.000 OA
ATOM     17  H   UNL     1      43.073   2.458  10.682  0.00  0.00    +0.000 HD
ENDBRANCH   9  16
ENDBRANCH   8   9
ENDBRANCH   5   8
ENDBRANCH   1   2
BRANCH   1  20
ATOM     18  C   UNL     1      48.648   8.313  15.303  0.00  0.00    +0.000 C 
ATOM     19  O   UNL     1      48.279   9.391  15.769  0.00  0.00    +0.000 OA
ATOM     20  N   UNL     1      47.988   7.729  14.262  0.00  0.00    +0.000 N 
ATOM     21  H   UNL     1      48.327   6.860  13.870  0.00  0.00    +0.000 HD
BRANCH  18  29
ATOM     22  C   UNL     1      49.099   5.171  16.637  0.00  0.00    +0.000 A 
ATOM     23  N   UNL     1      49.548   4.025  17.185  0.00  0.00    +0.000 NA
ATOM     24  C   UNL     1      50.843   3.953  17.509  0.00  0.00    +0.000 A 
ATOM     25  N   UNL     1      51.762   4.902  17.355  0.00  0.00    +0.000 NA
ATOM     26  C   UNL     1      51.274   6.023  16.800  0.00  0.00    +0.000 A 
ATOM     27  S   UNL     1      52.307   7.344  16.530  0.00  0.00    +0.000 S 
ATOM     28  C   UNL     1      51.038   8.265  15.876  0.00  0.00    +0.000 A 
ATOM     29  C   UNL     1      49.818   7.602  15.844  0.00  0.00    +0.000 A 
ATOM     30  C   UNL     1      49.961   6.257  16.401  0.00  0.00    +0.000 A 
BRANCH  22  32
ATOM     31  C   UNL     1      47.077   4.002  16.467  0.00  0.00    +0.000 C 
ATOM     32  O   UNL     1      47.771   5.232  16.269  0.00  0.00    +0.000 OA
ENDBRANCH  22  32
ENDBRANCH  18  29
ENDBRANCH   1  20
TORSDOF 8
ENDMDL
MODEL 6
REMARK VINA RESULT:    -7.205      2.344      4.053
REMARK INTER + INTRA:         -11.890
REMARK INTER:                 -10.640
REMARK INTRA:                  -1.250
REMARK UNBOUND:                -1.525
REMARK  Name = 
REMARK  9 active torsions:
REMARK  status: ('A' for Active; 'I' for Inactive)
REMARK    1  A    between atoms: C_1  and  O_2
REMARK    2  A    between atoms: O_2  and  C_3
REMARK    3  A    between atoms: C_10  and  C_11
REMARK    4  A    between atoms: N_13  and  C_14
REMARK    5  A    between atoms: C_14  and  C_15
REMARK    6  A    between atoms: C_18  and  C_19
REMARK    7  A    between atoms: C_19  and  C_20
REMARK    8  A    between atoms: C_20  and  O_21
REMARK    9  A    between atoms: C_20  and  C_22
REMARK                            x       y       z     vdW  Elec       q    Type
REMARK                         _______ _______ _______ _____ _____    ______ ____
ROOT
ATOM      1  C   UNL     1      47.132   4.755  15.044  0.00  0.00    +0.000 C 
ENDROOT
BRANCH   1   2
ATOM      2  C   UNL     1      46.351   4.584  13.769  0.00  0.00    +0.000 A 
ATOM      3  C   UNL     1      45.682   5.673  13.204  0.00  0.00    +0.000 A 
ATOM      4  C   UNL     1      44.944   5.523  12.027  0.00  0.00    +0.000 A 
ATOM      5  C   UNL     1      44.848   4.282  11.384  0.00  0.00    +0.000 A 
ATOM      6  C   UNL     1      45.491   3.184  11.976  0.00  0.00    +0.000 A 
ATOM      7  C   UNL     1      46.228   3.331  13.157  0.00  0.00    +0.000 A 
BRANCH   5   8
ATOM      8  C   UNL     1      44.113   4.080  10.066  0.00  0.00    +0.000 C 
BRANCH   8   9
ATOM      9  C   UNL     1      44.885   4.467   8.786  0.00  0.00    +0.000 C 
BRANCH   9  10
ATOM     10  C   UNL     1      45.796   3.376   8.252  0.00  0.00    +0.000 A 
ATOM     11  C   UNL     1      45.533   2.049   8.595  0.00  0.00    +0.000 A 
ATOM     12  C   UNL     1      46.306   1.035   8.038  0.00  0.00    +0.000 A 
ATOM     13  C   UNL     1      47.315   1.369   7.144  0.00  0.00    +0.000 A 
ATOM     14  C   UNL     1      47.502   2.707   6.840  0.00  0.00    +0.000 A 
ATOM     15  N   UNL     1      46.765   3.714   7.364  0.00  0.00    +0.000 NA
ENDBRANCH   9  10
BRANCH   9  16
ATOM     16  O   UNL     1      45.705   5.620   9.023  0.00  0.00    +0.000 OA
ATOM     17  H   UNL     1      45.641   6.162   8.215  0.00  0.00    +0.000 HD
ENDBRANCH   9  16
ENDBRANCH   8   9
ENDBRANCH   5   8
ENDBRANCH   1   2
BRANCH   1  20
ATOM     18  C   UNL     1      48.925   6.274  15.776  0.00  0.00    +0.000 C 
ATOM     19  O   UNL     1      49.450   5.390  16.453  0.00  0.00    +0.000 OA
ATOM     20  N   UNL     1      47.786   6.038  15.063  0.00  0.00    +0.000 N 
ATOM     21  H   UNL     1      47.350   6.786  14.540  0.00  0.00    +0.000 HD
BRANCH  18  29
ATOM     22  C   UNL     1      49.877   8.303  13.162  0.00  0.00    +0.000 A 
ATOM     23  N   UNL     1      50.318   9.281  12.348  0.00  0.00    +0.000 NA
ATOM     24  C   UNL     1      50.774  10.405  12.911  0.00  0.00    +0.000 A 
ATOM     25  N   UNL     1      50.851  10.677  14.211  0.00  0.00    +0.000 NA
ATOM     26  C   UNL     1      50.397   9.678  14.985  0.00  0.00    +0.000 A 
ATOM     27  S   UNL     1      50.421   9.850  16.675  0.00  0.00    +0.000 S 
ATOM     28  C   UNL     1      49.754   8.302  16.891  0.00  0.00    +0.000 A 
ATOM     29  C   UNL     1      49.497   7.629  15.704  0.00  0.00    +0.000 A 
ATOM     30  C   UNL     1      49.886   8.455  14.561  0.00  0.00    +0.000 A 
BRANCH  22  32
ATOM     31  C   UNL     1      48.356   7.422  11.616  0.00  0.00    +0.000 C 
ATOM     32  O   UNL     1      49.373   7.159  12.581  0.00  0.00    +0.000 OA
ENDBRANCH  22  32
ENDBRANCH  18  29
ENDBRANCH   1  20
TORSDOF 8
ENDMDL
MODEL 7
REMARK VINA RESULT:    -7.078      2.627      3.383
REMARK INTER + INTRA:         -11.707
REMARK INTER:                 -10.658
REMARK INTRA:                  -1.049
REMARK UNBOUND:                -1.525
REMARK  Name = 
REMARK  9 active torsions:
REMARK  status: ('A' for Active; 'I' for Inactive)
REMARK    1  A    between atoms: C_1  and  O_2
REMARK    2  A    between atoms: O_2  and  C_3
REMARK    3  A    between atoms: C_10  and  C_11
REMARK    4  A    between atoms: N_13  and  C_14
REMARK    5  A    between atoms: C_14  and  C_15
REMARK    6  A    between atoms: C_18  and  C_19
REMARK    7  A    between atoms: C_19  and  C_20
REMARK    8  A    between atoms: C_20  and  O_21
REMARK    9  A    between atoms: C_20  and  C_22
REMARK                            x       y       z     vdW  Elec       q    Type
REMARK                         _______ _______ _______ _____ _____    ______ ____
ROOT
ATOM      1  C   UNL     1      47.178   4.203  15.438  0.00  0.00    +0.000 C 
ENDROOT
BRANCH   1   2
ATOM      2  C   UNL     1      46.711   4.462  14.031  0.00  0.00    +0.000 A 
ATOM      3  C   UNL     1      46.913   5.713  13.444  0.00  0.00    +0.000 A 
ATOM      4  C   UNL     1      46.473   5.969  12.143  0.00  0.00    +0.000 A 
ATOM      5  C   UNL     1      45.815   4.985  11.393  0.00  0.00    +0.000 A 
ATOM      6  C   UNL     1      45.582   3.742  12.001  0.00  0.00    +0.000 A 
ATOM      7  C   UNL     1      46.019   3.484  13.305  0.00  0.00    +0.000 A 
BRANCH   5   8
ATOM      8  C   UNL     1      45.377   5.191   9.949  0.00  0.00    +0.000 C 
BRANCH   8   9
ATOM      9  C   UNL     1      44.653   4.003   9.278  0.00  0.00    +0.000 C 
BRANCH   9  10
ATOM     10  C   UNL     1      45.545   3.141   8.404  0.00  0.00    +0.000 A 
ATOM     11  C   UNL     1      46.332   3.755   7.428  0.00  0.00    +0.000 A 
ATOM     12  C   UNL     1      47.220   2.984   6.686  0.00  0.00    +0.000 A 
ATOM     13  C   UNL     1      47.311   1.622   6.942  0.00  0.00    +0.000 A 
ATOM     14  C   UNL     1      46.510   1.091   7.938  0.00  0.00    +0.000 A 
ATOM     15  N   UNL     1      45.639   1.814   8.678  0.00  0.00    +0.000 NA
ENDBRANCH   9  10
BRANCH   9  16
ATOM     16  O   UNL     1      43.580   4.472   8.449  0.00  0.00    +0.000 OA
ATOM     17  H   UNL     1      43.984   5.099   7.821  0.00  0.00    +0.000 HD
ENDBRANCH   9  16
ENDBRANCH   8   9
ENDBRANCH   5   8
ENDBRANCH   1   2
BRANCH   1  20
ATOM     18  C   UNL     1      48.722   5.659  16.685  0.00  0.00    +0.000 C 
ATOM     19  O   UNL     1      49.594   4.791  16.695  0.00  0.00    +0.000 OA
ATOM     20  N   UNL     1      47.512   5.441  16.092  0.00  0.00    +0.000 N 
ATOM     21  H   UNL     1      46.795   6.154  16.124  0.00  0.00    +0.000 HD
BRANCH  18  29
ATOM     22  C   UNL     1      47.984   6.946  19.792  0.00  0.00    +0.000 A 
ATOM     23  N   UNL     1      47.819   7.686  20.905  0.00  0.00    +0.000 NA
ATOM     24  C   UNL     1      48.256   8.950  20.886  0.00  0.00    +0.000 A 
ATOM     25  N   UNL     1      48.846   9.579  19.873  0.00  0.00    +0.000 NA
ATOM     26  C   UNL     1      48.997   8.803  18.787  0.00  0.00    +0.000 A 
ATOM     27  S   UNL     1      49.730   9.442  17.395  0.00  0.00    +0.000 S 
ATOM     28  C   UNL     1      49.547   7.972  16.564  0.00  0.00    +0.000 A 
ATOM     29  C   UNL     1      48.937   6.973  17.313  0.00  0.00    +0.000 A 
ATOM     30  C   UNL     1      48.605   7.475  18.646  0.00  0.00    +0.000 A 
BRANCH  22  32
ATOM     31  C   UNL     1      48.571   4.734  20.290  0.00  0.00    +0.000 C 
ATOM     32  O   UNL     1      47.566   5.632  19.825  0.00  0.00    +0.000 OA
ENDBRANCH  22  32
ENDBRANCH  18  29
ENDBRANCH   1  20
TORSDOF 8
ENDMDL
MODEL 8
REMARK VINA RESULT:    -6.898      2.483      3.904
REMARK INTER + INTRA:         -11.448
REMARK INTER:                 -10.256
REMARK INTRA:                  -1.192
REMARK UNBOUND:                -1.525
REMARK  Name = 
REMARK  9 active torsions:
REMARK  status: ('A' for Active; 'I' for Inactive)
REMARK    1  A    between atoms: C_1  and  O_2
REMARK    2  A    between atoms: O_2  and  C_3
REMARK    3  A    between atoms: C_10  and  C_11
REMARK    4  A    between atoms: N_13  and  C_14
REMARK    5  A    between atoms: C_14  and  C_15
REMARK    6  A    between atoms: C_18  and  C_19
REMARK    7  A    between atoms: C_19  and  C_20
REMARK    8  A    between atoms: C_20  and  O_21
REMARK    9  A    between atoms: C_20  and  C_22
REMARK                            x       y       z     vdW  Elec       q    Type
REMARK                         _______ _______ _______ _____ _____    ______ ____
ROOT
ATOM      1  C   UNL     1      47.507   4.121  15.662  0.00  0.00    +0.000 C 
ENDROOT
BRANCH   1   2
ATOM      2  C   UNL     1      46.918   4.438  14.314  0.00  0.00    +0.000 A 
ATOM      3  C   UNL     1      46.200   3.463  13.615  0.00  0.00    +0.000 A 
ATOM      4  C   UNL     1      45.659   3.742  12.358  0.00  0.00    +0.000 A 
ATOM      5  C   UNL     1      45.822   4.999  11.760  0.00  0.00    +0.000 A 
ATOM      6  C   UNL     1      46.575   5.962  12.450  0.00  0.00    +0.000 A 
ATOM      7  C   UNL     1      47.121   5.684  13.708  0.00  0.00    +0.000 A 
BRANCH   5   8
ATOM      8  C   UNL     1      45.196   5.375  10.424  0.00  0.00    +0.000 C 
BRANCH   8   9
ATOM      9  C   UNL     1      44.524   4.229   9.636  0.00  0.00    +0.000 C 
BRANCH   9  10
ATOM     10  C   UNL     1      45.468   3.452   8.737  0.00  0.00    +0.000 A 
ATOM     11  C   UNL     1      45.568   2.069   8.897  0.00  0.00    +0.000 A 
ATOM     12  C   UNL     1      46.361   1.338   8.018  0.00  0.00    +0.000 A 
ATOM     13  C   UNL     1      47.024   2.002   6.994  0.00  0.00    +0.000 A 
ATOM     14  C   UNL     1      46.860   3.372   6.891  0.00  0.00    +0.000 A 
ATOM     15  N   UNL     1      46.095   4.110   7.729  0.00  0.00    +0.000 NA
ENDBRANCH   9  10
BRANCH   9  16
ATOM     16  O   UNL     1      43.475   4.740   8.802  0.00  0.00    +0.000 OA
ATOM     17  H   UNL     1      43.054   5.456   9.313  0.00  0.00    +0.000 HD
ENDBRANCH   9  16
ENDBRANCH   8   9
ENDBRANCH   5   8
ENDBRANCH   1   2
BRANCH   1  20
ATOM     18  C   UNL     1      48.727   5.830  16.947  0.00  0.00    +0.000 C 
ATOM     19  O   UNL     1      49.810   5.302  16.695  0.00  0.00    +0.000 OA
ATOM     20  N   UNL     1      47.558   5.306  16.479  0.00  0.00    +0.000 N 
ATOM     21  H   UNL     1      46.675   5.734  16.724  0.00  0.00    +0.000 HD
BRANCH  18  29
ATOM     22  C   UNL     1      48.782   9.190  16.198  0.00  0.00    +0.000 A 
ATOM     23  N   UNL     1      48.774  10.537  16.188  0.00  0.00    +0.000 NA
ATOM     24  C   UNL     1      48.660  11.170  17.360  0.00  0.00    +0.000 A 
ATOM     25  N   UNL     1      48.555  10.615  18.565  0.00  0.00    +0.000 NA
ATOM     26  C   UNL     1      48.562   9.272  18.528  0.00  0.00    +0.000 A 
ATOM     27  S   UNL     1      48.439   8.393  19.976  0.00  0.00    +0.000 S 
ATOM     28  C   UNL     1      48.522   6.915  19.143  0.00  0.00    +0.000 A 
ATOM     29  C   UNL     1      48.639   7.050  17.765  0.00  0.00    +0.000 A 
ATOM     30  C   UNL     1      48.666   8.466  17.398  0.00  0.00    +0.000 A 
BRANCH  22  32
ATOM     31  C   UNL     1      50.204   8.314  14.557  0.00  0.00    +0.000 C 
ATOM     32  O   UNL     1      48.862   8.538  14.986  0.00  0.00    +0.000 OA
ENDBRANCH  22  32
ENDBRANCH  18  29
ENDBRANCH   1  20
TORSDOF 8
ENDMDL
MODEL 9
REMARK VINA RESULT:    -6.842      2.597      3.060
REMARK INTER + INTRA:         -11.368
REMARK INTER:                 -10.267
REMARK INTRA:                  -1.101
REMARK UNBOUND:                -1.525
REMARK  Name = 
REMARK  9 active torsions:
REMARK  status: ('A' for Active; 'I' for Inactive)
REMARK    1  A    between atoms: C_1  and  O_2
REMARK    2  A    between atoms: O_2  and  C_3
REMARK    3  A    between atoms: C_10  and  C_11
REMARK    4  A    between atoms: N_13  and  C_14
REMARK    5  A    between atoms: C_14  and  C_15
REMARK    6  A    between atoms: C_18  and  C_19
REMARK    7  A    between atoms: C_19  and  C_20
REMARK    8  A    between atoms: C_20  and  O_21
REMARK    9  A    between atoms: C_20  and  C_22
REMARK                            x       y       z     vdW  Elec       q    Type
REMARK                         _______ _______ _______ _____ _____    ______ ____
ROOT
ATOM      1  C   UNL     1      47.732   8.895  13.772  0.00  0.00    +0.000 C 
ENDROOT
BRANCH   1   2
ATOM      2  C   UNL     1      46.707   8.037  13.081  0.00  0.00    +0.000 A 
ATOM      3  C   UNL     1      45.682   8.628  12.338  0.00  0.00    +0.000 A 
ATOM      4  C   UNL     1      44.718   7.842  11.703  0.00  0.00    +0.000 A 
ATOM      5  C   UNL     1      44.747   6.443  11.794  0.00  0.00    +0.000 A 
ATOM      6  C   UNL     1      45.757   5.856  12.572  0.00  0.00    +0.000 A 
ATOM      7  C   UNL     1      46.721   6.642  13.213  0.00  0.00    +0.000 A 
BRANCH   5   8
ATOM      8  C   UNL     1      43.761   5.539  11.066  0.00  0.00    +0.000 C 
BRANCH   8   9
ATOM      9  C   UNL     1      44.084   4.029  11.073  0.00  0.00    +0.000 C 
BRANCH   9  10
ATOM     10  C   UNL     1      44.772   3.532   9.815  0.00  0.00    +0.000 A 
ATOM     11  C   UNL     1      45.324   4.464   8.933  0.00  0.00    +0.000 A 
ATOM     12  C   UNL     1      46.035   4.015   7.826  0.00  0.00    +0.000 A 
ATOM     13  C   UNL     1      46.190   2.649   7.630  0.00  0.00    +0.000 A 
ATOM     14  C   UNL     1      45.629   1.789   8.559  0.00  0.00    +0.000 A 
ATOM     15  N   UNL     1      44.934   2.195   9.646  0.00  0.00    +0.000 NA
ENDBRANCH   9  10
BRANCH   9  16
ATOM     16  O   UNL     1      42.883   3.260  11.227  0.00  0.00    +0.000 OA
ATOM     17  H   UNL     1      42.253   3.840  11.692  0.00  0.00    +0.000 HD
ENDBRANCH   9  16
ENDBRANCH   8   9
ENDBRANCH   5   8
ENDBRANCH   1   2
BRANCH   1  20
ATOM     18  C   UNL     1      48.492   9.089  16.105  0.00  0.00    +0.000 C 
ATOM     19  O   UNL     1      49.663   9.223  15.753  0.00  0.00    +0.000 OA
ATOM     20  N   UNL     1      47.493   8.919  15.191  0.00  0.00    +0.000 N 
ATOM     21  H   UNL     1      46.541   8.776  15.501  0.00  0.00    +0.000 HD
BRANCH  18  29
ATOM     22  C   UNL     1      48.143   6.622  18.482  0.00  0.00    +0.000 A 
ATOM     23  N   UNL     1      47.936   5.876  19.584  0.00  0.00    +0.000 NA
ATOM     24  C   UNL     1      47.558   6.503  20.703  0.00  0.00    +0.000 A 
ATOM     25  N   UNL     1      47.352   7.808  20.859  0.00  0.00    +0.000 NA
ATOM     26  C   UNL     1      47.574   8.515  19.739  0.00  0.00    +0.000 A 
ATOM     27  S   UNL     1      47.358  10.199  19.754  0.00  0.00    +0.000 S 
ATOM     28  C   UNL     1      47.791  10.318  18.115  0.00  0.00    +0.000 A 
ATOM     29  C   UNL     1      48.110   9.101  17.527  0.00  0.00    +0.000 A 
ATOM     30  C   UNL     1      47.976   8.019  18.502  0.00  0.00    +0.000 A 
BRANCH  22  32
ATOM     31  C   UNL     1      49.984   5.820  17.279  0.00  0.00    +0.000 C 
ATOM     32  O   UNL     1      48.568   5.979  17.339  0.00  0.00    +0.000 OA
ENDBRANCH  22  32
ENDBRANCH  18  29
ENDBRANCH   1  20
TORSDOF 8
ENDMDL
