MODEL 1
REMARK VINA RESULT:    -7.366      0.000      0.000
REMARK INTER + INTRA:          -9.992
REMARK INTER:                  -9.304
REMARK INTRA:                  -0.688
REMARK UNBOUND:                -0.688
REMARK  Name = 
REMARK  5 active torsions:
REMARK  status: ('A' for Active; 'I' for Inactive)
REMARK    1  A    between atoms: N_1  and  C_2
REMARK    2  A    between atoms: C_2  and  C_3
REMARK    3  A    between atoms: C_6  and  O_7
REMARK    4  A    between atoms: O_7  and  C_8
REMARK    5  A    between atoms: C_8  and  C_9
REMARK                            x       y       z     vdW  Elec       q    Type
REMARK                         _______ _______ _______ _____ _____    ______ ____
ROOT
ATOM      1  C   UNL     1      46.584   2.243   7.629  0.00  0.00    +0.000 A 
ATOM      2  C   UNL     1      45.757   1.441   8.427  0.00  0.00    +0.000 A 
ATOM      3  C   UNL     1      44.734   2.012   9.189  0.00  0.00    +0.000 A 
ATOM      4  C   UNL     1      44.532   3.391   9.171  0.00  0.00    +0.000 A 
ATOM      5  C   UNL     1      45.313   4.189   8.335  0.00  0.00    +0.000 A 
ATOM      6  C   UNL     1      46.341   3.621   7.578  0.00  0.00    +0.000 A 
ENDROOT
BRANCH   1   7
ATOM      7  C   UNL     1      47.724   1.646   6.846  0.00  0.00    +0.000 C 
BRANCH   7   8
ATOM      8  N   UNL     1      48.626   2.673   6.343  0.00  0.00    +0.000 NA
ATOM      9  H   UNL     1      48.738   3.392   7.054  0.00  0.00    +0.000 HD
ATOM     10  H   UNL     1      48.190   3.126   5.541  0.00  0.00    +0.000 HD
ENDBRANCH   7   8
ENDBRANCH   1   7
BRANCH   4  11
ATOM     11  O   UNL     1      43.552   3.861  10.006  0.00  0.00    +0.000 OA
BRANCH  11  12
ATOM     12  C   UNL     1      43.615   3.362  11.343  0.00  0.00    +0.000 C 
BRANCH  12  13
ATOM     13  C   UNL     1      44.633   4.138  12.140  0.00  0.00    +0.000 A 
ATOM     14  C   UNL     1      45.706   3.474  12.753  0.00  0.00    +0.000 A 
ATOM     15  C   UNL     1      46.697   4.192  13.424  0.00  0.00    +0.000 A 
ATOM     16  C   UNL     1      46.626   5.583  13.486  0.00  0.00    +0.000 A 
ATOM     17  C   UNL     1      45.563   6.251  12.879  0.00  0.00    +0.000 A 
ATOM     18 CL   UNL     1      45.485   7.969  12.941  0.00  0.00    +0.000 Cl
ATOM     19  C   UNL     1      44.570   5.538  12.207  0.00  0.00    +0.000 A 
ENDBRANCH  12  13
ENDBRANCH  11  12
ENDBRANCH   4  11
TORSDOF 5
ENDMDL
MODEL 2
REMARK VINA RESULT:    -7.259      1.250      2.026
REMARK INTER + INTRA:          -9.856
REMARK INTER:                  -9.285
REMARK INTRA:                  -0.571
REMARK UNBOUND:                -0.688
REMARK  Name = 
REMARK  5 active torsions:
REMARK  status: ('A' for Active; 'I' for Inactive)
REMARK    1  A    between atoms: N_1  and  C_2
REMARK    2  A    between atoms: C_2  and  C_3
REMARK    3  A    between atoms: C_6  and  O_7
REMARK    4  A    between atoms: O_7  and  C_8
REMARK    5  A    between atoms: C_8  and  C_9
REMARK                            x       y       z     vdW  Elec       q    Type
REMARK                         _______ _______ _______ _____ _____    ______ ____
ROOT
ATOM      1  C   UNL     1      46.620   2.260   7.553  0.00  0.00    +0.000 A 
ATOM      2  C   UNL     1      46.471   3.648   7.427  0.00  0.00    +0.000 A 
ATOM      3  C   UNL     1      45.514   4.331   8.183  0.00  0.00    +0.000 A 
ATOM      4  C   UNL     1      44.687   3.635   9.064  0.00  0.00    +0.000 A 
ATOM      5  C   UNL     1      44.868   2.263   9.235  0.00  0.00    +0.000 A 
ATOM      6  C   UNL     1      45.819   1.577   8.477  0.00  0.00    +0.000 A 
ENDROOT
BRANCH   1   7
ATOM      7  C   UNL     1      47.611   1.505   6.705  0.00  0.00    +0.000 C 
BRANCH   7   8
ATOM      8  N   UNL     1      48.688   2.368   6.241  0.00  0.00    +0.000 NA
ATOM      9  H   UNL     1      49.146   2.787   7.046  0.00  0.00    +0.000 HD
ATOM     10  H   UNL     1      48.283   3.137   5.707  0.00  0.00    +0.000 HD
ENDBRANCH   7   8
ENDBRANCH   1   7
BRANCH   4  11
ATOM     11  O   UNL     1      43.734   4.383   9.703  0.00  0.00    +0.000 OA
BRANCH  11  12
ATOM     12  C   UNL     1      43.651   4.171  11.113  0.00  0.00    +0.000 C 
BRANCH  12  13
ATOM     13  C   UNL     1      44.764   4.905  11.815  0.00  0.00    +0.000 A 
ATOM     14  C   UNL     1      45.157   6.179  11.377  0.00  0.00    +0.000 A 
ATOM     15  C   UNL     1      46.130   6.901  12.070  0.00  0.00    +0.000 A 
ATOM     16  C   UNL     1      46.720   6.356  13.209  0.00  0.00    +0.000 A 
ATOM     17  C   UNL     1      46.336   5.091  13.651  0.00  0.00    +0.000 A 
ATOM     18 CL   UNL     1      47.052   4.425  15.068  0.00  0.00    +0.000 Cl
ATOM     19  C   UNL     1      45.363   4.366  12.963  0.00  0.00    +0.000 A 
ENDBRANCH  12  13
ENDBRANCH  11  12
ENDBRANCH   4  11
TORSDOF 5
ENDMDL
MODEL 3
REMARK VINA RESULT:    -6.860      3.280      6.048
REMARK INTER + INTRA:          -9.352
REMARK INTER:                  -8.865
REMARK INTRA:                  -0.487
REMARK UNBOUND:                -0.688
REMARK  Name = 
REMARK  5 active torsions:
REMARK  status: ('A' for Active; 'I' for Inactive)
REMARK    1  A    between atoms: N_1  and  C_2
REMARK    2  A    between atoms: C_2  and  C_3
REMARK    3  A    between atoms: C_6  and  O_7
REMARK    4  A    between atoms: O_7  and  C_8
REMARK    5  A    between atoms: C_8  and  C_9
REMARK                            x       y       z     vdW  Elec       q    Type
REMARK                         _______ _______ _______ _____ _____    ______ ____
ROOT
ATOM      1  C   UNL     1      47.038   6.068  13.208  0.00  0.00    +0.000 A 
ATOM      2  C   UNL     1      46.851   6.781  12.016  0.00  0.00    +0.000 A 
ATOM      3  C   UNL     1      45.882   6.379  11.093  0.00  0.00    +0.000 A 
ATOM      4  C   UNL     1      45.098   5.253  11.343  0.00  0.00    +0.000 A 
ATOM      5  C   UNL     1      45.240   4.572  12.552  0.00  0.00    +0.000 A 
ATOM      6  C   UNL     1      46.212   4.969  13.474  0.00  0.00    +0.000 A 
ENDROOT
BRANCH   1   7
ATOM      7  C   UNL     1      48.115   6.460  14.187  0.00  0.00    +0.000 C 
BRANCH   7   8
ATOM      8  N   UNL     1      49.394   6.668  13.522  0.00  0.00    +0.000 NA
ATOM      9  H   UNL     1      50.144   6.514  14.192  0.00  0.00    +0.000 HD
ATOM     10  H   UNL     1      49.459   7.645  13.238  0.00  0.00    +0.000 HD
ENDBRANCH   7   8
ENDBRANCH   1   7
BRANCH   4  11
ATOM     11  O   UNL     1      44.229   4.899  10.345  0.00  0.00    +0.000 OA
BRANCH  11  12
ATOM     12  C   UNL     1      44.135   3.494  10.103  0.00  0.00    +0.000 C 
BRANCH  12  13
ATOM     13  C   UNL     1      45.070   3.095   8.989  0.00  0.00    +0.000 A 
ATOM     14  C   UNL     1      45.650   4.075   8.169  0.00  0.00    +0.000 A 
ATOM     15  C   UNL     1      46.579   3.723   7.188  0.00  0.00    +0.000 A 
ATOM     16  C   UNL     1      46.938   2.387   7.019  0.00  0.00    +0.000 A 
ATOM     17  C   UNL     1      46.367   1.408   7.830  0.00  0.00    +0.000 A 
ATOM     18 CL   UNL     1      46.823  -0.240   7.632  0.00  0.00    +0.000 Cl
ATOM     19  C   UNL     1      45.438   1.754   8.812  0.00  0.00    +0.000 A 
ENDBRANCH  12  13
ENDBRANCH  11  12
ENDBRANCH   4  11
TORSDOF 5
ENDMDL
MODEL 4
REMARK VINA RESULT:    -6.277      3.451      6.216
REMARK INTER + INTRA:          -8.616
REMARK INTER:                  -8.115
REMARK INTRA:                  -0.501
REMARK UNBOUND:                -0.688
REMARK  Name = 
REMARK  5 active torsions:
REMARK  status: ('A' for Active; 'I' for Inactive)
REMARK    1  A    between atoms: N_1  and  C_2
REMARK    2  A    between atoms: C_2  and  C_3
REMARK    3  A    between atoms: C_6  and  O_7
REMARK    4  A    between atoms: O_7  and  C_8
REMARK    5  A    between atoms: C_8  and  C_9
REMARK                            x       y       z     vdW  Elec       q    Type
REMARK                         _______ _______ _______ _____ _____    ______ ____
ROOT
ATOM      1  C   UNL     1      47.127   6.073  13.213  0.00  0.00    +0.000 A 
ATOM      2  C   UNL     1      46.899   6.633  11.948  0.00  0.00    +0.000 A 
ATOM      3  C   UNL     1      46.014   6.027  11.052  0.00  0.00    +0.000 A 
ATOM      4  C   UNL     1      45.355   4.850  11.404  0.00  0.00    +0.000 A 
ATOM      5  C   UNL     1      45.533   4.318  12.681  0.00  0.00    +0.000 A 
ATOM      6  C   UNL     1      46.422   4.919  13.576  0.00  0.00    +0.000 A 
ENDROOT
BRANCH   1   7
ATOM      7  C   UNL     1      48.119   6.686  14.167  0.00  0.00    +0.000 C 
BRANCH   7   8
ATOM      8  N   UNL     1      48.469   5.767  15.241  0.00  0.00    +0.000 NA
ATOM      9  H   UNL     1      48.927   6.288  15.986  0.00  0.00    +0.000 HD
ATOM     10  H   UNL     1      49.156   5.101  14.891  0.00  0.00    +0.000 HD
ENDBRANCH   7   8
ENDBRANCH   1   7
BRANCH   4  11
ATOM     11  O   UNL     1      44.565   4.296  10.431  0.00  0.00    +0.000 OA
BRANCH  11  12
ATOM     12  C   UNL     1      44.936   4.634   9.093  0.00  0.00    +0.000 C 
BRANCH  12  13
ATOM     13  C   UNL     1      45.624   3.465   8.434  0.00  0.00    +0.000 A 
ATOM     14  C   UNL     1      45.497   2.176   8.972  0.00  0.00    +0.000 A 
ATOM     15  C   UNL     1      46.062   1.076   8.324  0.00  0.00    +0.000 A 
ATOM     16  C   UNL     1      46.759   1.256   7.130  0.00  0.00    +0.000 A 
ATOM     17  C   UNL     1      46.890   2.534   6.589  0.00  0.00    +0.000 A 
ATOM     18 CL   UNL     1      47.737   2.753   5.107  0.00  0.00    +0.000 Cl
ATOM     19  C   UNL     1      46.326   3.636   7.233  0.00  0.00    +0.000 A 
ENDBRANCH  12  13
ENDBRANCH  11  12
ENDBRANCH   4  11
TORSDOF 5
ENDMDL
MODEL 5
REMARK VINA RESULT:    -5.535      1.924      2.949
REMARK INTER + INTRA:          -7.679
REMARK INTER:                  -7.377
REMARK INTRA:                  -0.302
REMARK UNBOUND:                -0.688
REMARK  Name = 
REMARK  5 active torsions:
REMARK  status: ('A' for Active; 'I' for Inactive)
REMARK    1  A    between atoms: N_1  and  C_2
REMARK    2  A    between atoms: C_2  and  C_3
REMARK    3  A    between atoms: C_6  and  O_7
REMARK    4  A    between atoms: O_7  and  C_8
REMARK    5  A    between atoms: C_8  and  C_9
REMARK                            x       y       z     vdW  Elec       q    Type
REMARK                         _______ _______ _______ _____ _____    ______ ____
ROOT
ATOM      1  C   UNL     1      45.560   3.416   8.189  0.00  0.00    +0.000 A 
ATOM      2  C   UNL     1      45.667   4.754   8.593  0.00  0.00    +0.000 A 
ATOM      3  C   UNL     1      45.233   5.150   9.861  0.00  0.00    +0.000 A 
ATOM      4  C   UNL     1      44.675   4.218  10.735  0.00  0.00    +0.000 A 
ATOM      5  C   UNL     1      44.617   2.876  10.362  0.00  0.00    +0.000 A 
ATOM      6  C   UNL     1      45.046   2.478   9.093  0.00  0.00    +0.000 A 
ENDROOT
BRANCH   1   7
ATOM      7  C   UNL     1      45.976   2.986   6.806  0.00  0.00    +0.000 C 
BRANCH   7   8
ATOM      8  N   UNL     1      46.908   3.932   6.207  0.00  0.00    +0.000 NA
ATOM      9  H   UNL     1      47.806   3.855   6.679  0.00  0.00    +0.000 HD
ATOM     10  H   UNL     1      46.571   4.878   6.382  0.00  0.00    +0.000 HD
ENDBRANCH   7   8
ENDBRANCH   1   7
BRANCH   4  11
ATOM     11  O   UNL     1      44.213   4.719  11.924  0.00  0.00    +0.000 OA
BRANCH  11  12
ATOM     12  C   UNL     1      45.207   4.867  12.939  0.00  0.00    +0.000 C 
BRANCH  12  13
ATOM     13  C   UNL     1      45.952   6.163  12.752  0.00  0.00    +0.000 A 
ATOM     14  C   UNL     1      45.264   7.385  12.785  0.00  0.00    +0.000 A 
ATOM     15  C   UNL     1      45.956   8.594  12.693  0.00  0.00    +0.000 A 
ATOM     16  C   UNL     1      47.344   8.592  12.570  0.00  0.00    +0.000 A 
ATOM     17  C   UNL     1      48.036   7.383  12.536  0.00  0.00    +0.000 A 
ATOM     18 CL   UNL     1      49.752   7.381  12.400  0.00  0.00    +0.000 Cl
ATOM     19  C   UNL     1      47.349   6.172  12.628  0.00  0.00    +0.000 A 
ENDBRANCH  12  13
ENDBRANCH  11  12
ENDBRANCH   4  11
TORSDOF 5
ENDMDL
MODEL 6
REMARK VINA RESULT:    -5.318      4.104      6.685
REMARK INTER + INTRA:          -7.405
REMARK INTER:                  -7.090
REMARK INTRA:                  -0.314
REMARK UNBOUND:                -0.688
REMARK  Name = 
REMARK  5 active torsions:
REMARK  status: ('A' for Active; 'I' for Inactive)
REMARK    1  A    between atoms: N_1  and  C_2
REMARK    2  A    between atoms: C_2  and  C_3
REMARK    3  A    between atoms: C_6  and  O_7
REMARK    4  A    between atoms: O_7  and  C_8
REMARK    5  A    between atoms: C_8  and  C_9
REMARK                            x       y       z     vdW  Elec       q    Type
REMARK                         _______ _______ _______ _____ _____    ______ ____
ROOT
ATOM      1  C   UNL     1      47.761   4.574  16.230  0.00  0.00    +0.000 A 
ATOM      2  C   UNL     1      47.103   4.049  15.109  0.00  0.00    +0.000 A 
ATOM      3  C   UNL     1      47.047   4.772  13.915  0.00  0.00    +0.000 A 
ATOM      4  C   UNL     1      47.636   6.033  13.829  0.00  0.00    +0.000 A 
ATOM      5  C   UNL     1      48.341   6.538  14.921  0.00  0.00    +0.000 A 
ATOM      6  C   UNL     1      48.393   5.819  16.118  0.00  0.00    +0.000 A 
ENDROOT
BRANCH   1   7
ATOM      7  C   UNL     1      47.783   3.828  17.539  0.00  0.00    +0.000 C 
BRANCH   7   8
ATOM      8  N   UNL     1      46.612   2.975  17.690  0.00  0.00    +0.000 NA
ATOM      9  H   UNL     1      46.048   3.321  18.463  0.00  0.00    +0.000 HD
ATOM     10  H   UNL     1      46.921   2.041  17.955  0.00  0.00    +0.000 HD
ENDBRANCH   7   8
ENDBRANCH   1   7
BRANCH   4  11
ATOM     11  O   UNL     1      47.463   6.692  12.640  0.00  0.00    +0.000 OA
BRANCH  11  12
ATOM     12  C   UNL     1      46.144   7.196  12.420  0.00  0.00    +0.000 C 
BRANCH  12  13
ATOM     13  C   UNL     1      45.334   6.203  11.627  0.00  0.00    +0.000 A 
ATOM     14  C   UNL     1      44.018   5.900  12.009  0.00  0.00    +0.000 A 
ATOM     15  C   UNL     1      43.232   5.045  11.236  0.00  0.00    +0.000 A 
ATOM     16  C   UNL     1      43.754   4.485  10.070  0.00  0.00    +0.000 A 
ATOM     17  C   UNL     1      45.060   4.782   9.684  0.00  0.00    +0.000 A 
ATOM     18 CL   UNL     1      45.699   4.104   8.236  0.00  0.00    +0.000 Cl
ATOM     19  C   UNL     1      45.850   5.637  10.453  0.00  0.00    +0.000 A 
ENDBRANCH  12  13
ENDBRANCH  11  12
ENDBRANCH   4  11
TORSDOF 5
ENDMDL
MODEL 7
REMARK VINA RESULT:    -5.272      5.087      7.917
REMARK INTER + INTRA:          -7.347
REMARK INTER:                  -6.982
REMARK INTRA:                  -0.365
REMARK UNBOUND:                -0.688
REMARK  Name = 
REMARK  5 active torsions:
REMARK  status: ('A' for Active; 'I' for Inactive)
REMARK    1  A    between atoms: N_1  and  C_2
REMARK    2  A    between atoms: C_2  and  C_3
REMARK    3  A    between atoms: C_6  and  O_7
REMARK    4  A    between atoms: O_7  and  C_8
REMARK    5  A    between atoms: C_8  and  C_9
REMARK                            x       y       z     vdW  Elec       q    Type
REMARK                         _______ _______ _______ _____ _____    ______ ____
ROOT
ATOM      1  C   UNL     1      48.285   4.636  18.446  0.00  0.00    +0.000 A 
ATOM      2  C   UNL     1      47.923   3.315  18.148  0.00  0.00    +0.000 A 
ATOM      3  C   UNL     1      47.547   2.958  16.850  0.00  0.00    +0.000 A 
ATOM      4  C   UNL     1      47.516   3.917  15.839  0.00  0.00    +0.000 A 
ATOM      5  C   UNL     1      47.929   5.220  16.115  0.00  0.00    +0.000 A 
ATOM      6  C   UNL     1      48.300   5.581  17.413  0.00  0.00    +0.000 A 
ENDROOT
BRANCH   1   7
ATOM      7  C   UNL     1      48.641   5.046  19.852  0.00  0.00    +0.000 C 
BRANCH   7   8
ATOM      8  N   UNL     1      48.558   3.923  20.776  0.00  0.00    +0.000 NA
ATOM      9  H   UNL     1      47.692   3.993  21.304  0.00  0.00    +0.000 HD
ATOM     10  H   UNL     1      49.316   4.000  21.452  0.00  0.00    +0.000 HD
ENDBRANCH   7   8
ENDBRANCH   1   7
BRANCH   4  11
ATOM     11  O   UNL     1      47.064   3.483  14.620  0.00  0.00    +0.000 OA
BRANCH  11  12
ATOM     12  C   UNL     1      46.859   4.516  13.654  0.00  0.00    +0.000 C 
BRANCH  12  13
ATOM     13  C   UNL     1      45.573   4.279  12.905  0.00  0.00    +0.000 A 
ATOM     14  C   UNL     1      44.403   4.959  13.276  0.00  0.00    +0.000 A 
ATOM     15  C   UNL     1      43.229   4.808  12.538  0.00  0.00    +0.000 A 
ATOM     16  C   UNL     1      43.213   3.976  11.419  0.00  0.00    +0.000 A 
ATOM     17  C   UNL     1      44.371   3.297  11.044  0.00  0.00    +0.000 A 
ATOM     18 CL   UNL     1      44.355   2.283   9.653  0.00  0.00    +0.000 Cl
ATOM     19  C   UNL     1      45.548   3.445  11.778  0.00  0.00    +0.000 A 
ENDBRANCH  12  13
ENDBRANCH  11  12
ENDBRANCH   4  11
TORSDOF 5
ENDMDL
MODEL 8
REMARK VINA RESULT:    -5.119      3.877      6.254
REMARK INTER + INTRA:          -7.153
REMARK INTER:                  -6.676
REMARK INTRA:                  -0.477
REMARK UNBOUND:                -0.688
REMARK  Name = 
REMARK  5 active torsions:
REMARK  status: ('A' for Active; 'I' for Inactive)
REMARK    1  A    between atoms: N_1  and  C_2
REMARK    2  A    between atoms: C_2  and  C_3
REMARK    3  A    between atoms: C_6  and  O_7
REMARK    4  A    between atoms: O_7  and  C_8
REMARK    5  A    between atoms: C_8  and  C_9
REMARK                            x       y       z     vdW  Elec       q    Type
REMARK                         _______ _______ _______ _____ _____    ______ ____
ROOT
ATOM      1  C   UNL     1      49.306   7.631  12.980  0.00  0.00    +0.000 A 
ATOM      2  C   UNL     1      48.697   6.791  13.923  0.00  0.00    +0.000 A 
ATOM      3  C   UNL     1      47.479   6.167  13.637  0.00  0.00    +0.000 A 
ATOM      4  C   UNL     1      46.850   6.383  12.412  0.00  0.00    +0.000 A 
ATOM      5  C   UNL     1      47.477   7.172  11.447  0.00  0.00    +0.000 A 
ATOM      6  C   UNL     1      48.691   7.801  11.733  0.00  0.00    +0.000 A 
ENDROOT
BRANCH   1   7
ATOM      7  C   UNL     1      50.591   8.351  13.296  0.00  0.00    +0.000 C 
BRANCH   7   8
ATOM      8  N   UNL     1      50.699   8.659  14.715  0.00  0.00    +0.000 NA
ATOM      9  H   UNL     1      50.544   7.808  15.251  0.00  0.00    +0.000 HD
ATOM     10  H   UNL     1      49.948   9.299  14.969  0.00  0.00    +0.000 HD
ENDBRANCH   7   8
ENDBRANCH   1   7
BRANCH   4  11
ATOM     11  O   UNL     1      45.627   5.786  12.257  0.00  0.00    +0.000 OA
BRANCH  11  12
ATOM     12  C   UNL     1      45.014   5.997  10.984  0.00  0.00    +0.000 C 
BRANCH  12  13
ATOM     13  C   UNL     1      45.062   4.730  10.168  0.00  0.00    +0.000 A 
ATOM     14  C   UNL     1      44.382   3.582  10.605  0.00  0.00    +0.000 A 
ATOM     15  C   UNL     1      44.354   2.430   9.817  0.00  0.00    +0.000 A 
ATOM     16  C   UNL     1      45.004   2.415   8.584  0.00  0.00    +0.000 A 
ATOM     17  C   UNL     1      45.681   3.550   8.144  0.00  0.00    +0.000 A 
ATOM     18 CL   UNL     1      46.470   3.537   6.614  0.00  0.00    +0.000 Cl
ATOM     19  C   UNL     1      45.713   4.705   8.926  0.00  0.00    +0.000 A 
ENDBRANCH  12  13
ENDBRANCH  11  12
ENDBRANCH   4  11
TORSDOF 5
ENDMDL
MODEL 9
REMARK VINA RESULT:    -4.972      3.379      4.564
REMARK INTER + INTRA:          -6.967
REMARK INTER:                  -6.490
REMARK INTRA:                  -0.477
REMARK UNBOUND:                -0.688
REMARK  Name = 
REMARK  5 active torsions:
REMARK  status: ('A' for Active; 'I' for Inactive)
REMARK    1  A    between atoms: N_1  and  C_2
REMARK    2  A    between atoms: C_2  and  C_3
REMARK    3  A    between atoms: C_6  and  O_7
REMARK    4  A    between atoms: O_7  and  C_8
REMARK    5  A    between atoms: C_8  and  C_9
REMARK                            x       y       z     vdW  Elec       q    Type
REMARK                         _______ _______ _______ _____ _____    ______ ____
ROOT
ATOM      1  C   UNL     1      44.820   3.326   9.985  0.00  0.00    +0.000 A 
ATOM      2  C   UNL     1      44.653   3.266  11.376  0.00  0.00    +0.000 A 
ATOM      3  C   UNL     1      44.975   4.364  12.178  0.00  0.00    +0.000 A 
ATOM      4  C   UNL     1      45.479   5.530  11.604  0.00  0.00    +0.000 A 
ATOM      5  C   UNL     1      45.595   5.617  10.216  0.00  0.00    +0.000 A 
ATOM      6  C   UNL     1      45.279   4.519   9.413  0.00  0.00    +0.000 A 
ENDROOT
BRANCH   1   7
ATOM      7  C   UNL     1      44.527   2.132   9.115  0.00  0.00    +0.000 C 
BRANCH   7   8
ATOM      8  N   UNL     1      45.743   1.408   8.769  0.00  0.00    +0.000 NA
ATOM      9  H   UNL     1      45.769   1.268   7.762  0.00  0.00    +0.000 HD
ATOM     10  H   UNL     1      45.701   0.481   9.189  0.00  0.00    +0.000 HD
ENDBRANCH   7   8
ENDBRANCH   1   7
BRANCH   4  11
ATOM     11  O   UNL     1      45.834   6.521  12.480  0.00  0.00    +0.000 OA
BRANCH  11  12
ATOM     12  C   UNL     1      47.183   6.457  12.945  0.00  0.00    +0.000 C 
BRANCH  12  13
ATOM     13  C   UNL     1      47.987   7.592  12.362  0.00  0.00    +0.000 A 
ATOM     14  C   UNL     1      47.424   8.873  12.253  0.00  0.00    +0.000 A 
ATOM     15  C   UNL     1      48.187   9.947  11.791  0.00  0.00    +0.000 A 
ATOM     16  C   UNL     1      49.521   9.751  11.436  0.00  0.00    +0.000 A 
ATOM     17  C   UNL     1      50.087   8.482  11.542  0.00  0.00    +0.000 A 
ATOM     18 CL   UNL     1      51.738   8.243  11.119  0.00  0.00    +0.000 Cl
ATOM     19  C   UNL     1      49.329   7.405  12.003  0.00  0.00    +0.000 A 
ENDBRANCH  12  13
ENDBRANCH  11  12
ENDBRANCH   4  11
TORSDOF 5
ENDMDL
