MODEL 1
REMARK VINA RESULT:    -8.825      0.000      0.000
REMARK INTER + INTRA:         -12.991
REMARK INTER:                 -11.920
REMARK INTRA:                  -1.070
REMARK UNBOUND:                -1.070
REMARK  Name = 
REMARK  7 active torsions:
REMARK  status: ('A' for Active; 'I' for Inactive)
REMARK    1  A    between atoms: C_1  and  C_2
REMARK    2  A    between atoms: C_2  and  N_3
REMARK    3  A    between atoms: C_2  and  C_16
REMARK    4  A    between atoms: C_4  and  C_6
REMARK    5  A    between atoms: C_19  and  O_20
REMARK    6  A    between atoms: O_20  and  C_21
REMARK    7  A    between atoms: C_21  and  C_22
REMARK                            x       y       z     vdW  Elec       q    Type
REMARK                         _______ _______ _______ _____ _____    ______ ____
ROOT
ATOM      1  C   UNL     1      45.687   8.924  12.909  0.00  0.00    +0.000 C 
ATOM      2  C   UNL     1      46.671   7.752  12.825  0.00  0.00    +0.000 C 
ENDROOT
BRANCH   2   3
ATOM      3  C   UNL     1      46.006   6.627  12.041  0.00  0.00    +0.000 A 
ATOM      4  C   UNL     1      46.244   6.490  10.665  0.00  0.00    +0.000 A 
ATOM      5  C   UNL     1      45.613   5.482   9.928  0.00  0.00    +0.000 A 
ATOM      6  C   UNL     1      44.748   4.586  10.556  0.00  0.00    +0.000 A 
ATOM      7  C   UNL     1      44.459   4.752  11.910  0.00  0.00    +0.000 A 
ATOM      8  C   UNL     1      45.084   5.760  12.646  0.00  0.00    +0.000 A 
BRANCH   6   9
ATOM      9  O   UNL     1      44.236   3.591   9.764  0.00  0.00    +0.000 OA
BRANCH   9  10
ATOM     10  C   UNL     1      44.482   3.758   8.366  0.00  0.00    +0.000 C 
BRANCH  10  11
ATOM     11  C   UNL     1      45.596   2.853   7.928  0.00  0.00    +0.000 A 
ATOM     12  C   UNL     1      46.587   3.275   7.039  0.00  0.00    +0.000 A 
ATOM     13  C   UNL     1      47.579   2.383   6.644  0.00  0.00    +0.000 A 
ATOM     14  C   UNL     1      47.547   1.095   7.150  0.00  0.00    +0.000 A 
ATOM     15  N   UNL     1      46.604   0.648   8.008  0.00  0.00    +0.000 NA
ATOM     16  C   UNL     1      45.656   1.538   8.379  0.00  0.00    +0.000 A 
ENDBRANCH  10  11
ENDBRANCH   9  10
ENDBRANCH   6   9
ENDBRANCH   2   3
BRANCH   2  17
ATOM     17  N   UNL     1      47.113   7.295  14.138  0.00  0.00    +0.000 N 
ATOM     18  C   UNL     1      48.310   6.644  14.323  0.00  0.00    +0.000 C 
ATOM     19  O   UNL     1      49.094   6.432  13.403  0.00  0.00    +0.000 OA
ATOM     20  H   UNL     1      46.387   7.137  14.831  0.00  0.00    +0.000 HD
BRANCH  18  21
ATOM     21  C   UNL     1      48.648   6.260  15.699  0.00  0.00    +0.000 A 
ATOM     22  C   UNL     1      49.516   7.058  16.432  0.00  0.00    +0.000 A 
ATOM     23  S   UNL     1      49.817   6.477  18.007  0.00  0.00    +0.000 S 
ATOM     24  C   UNL     1      48.826   5.118  17.749  0.00  0.00    +0.000 A 
ATOM     25  N   UNL     1      48.681   4.169  18.712  0.00  0.00    +0.000 NA
ATOM     26  C   UNL     1      47.930   3.174  18.372  0.00  0.00    +0.000 A 
ATOM     27  N   UNL     1      47.295   3.054  17.161  0.00  0.00    +0.000 N 
ATOM     28  C   UNL     1      47.373   4.013  16.179  0.00  0.00    +0.000 A 
ATOM     29  O   UNL     1      46.728   3.922  15.141  0.00  0.00    +0.000 OA
ATOM     30  C   UNL     1      48.244   5.130  16.495  0.00  0.00    +0.000 A 
ATOM     31  H   UNL     1      46.703   2.261  16.968  0.00  0.00    +0.000 HD
ENDBRANCH  18  21
ENDBRANCH   2  17
TORSDOF 6
ENDMDL
MODEL 2
REMARK VINA RESULT:    -8.341      1.878      2.470
REMARK INTER + INTRA:         -12.338
REMARK INTER:                 -11.225
REMARK INTRA:                  -1.112
REMARK UNBOUND:                -1.070
REMARK  Name = 
REMARK  7 active torsions:
REMARK  status: ('A' for Active; 'I' for Inactive)
REMARK    1  A    between atoms: C_1  and  C_2
REMARK    2  A    between atoms: C_2  and  N_3
REMARK    3  A    between atoms: C_2  and  C_16
REMARK    4  A    between atoms: C_4  and  C_6
REMARK    5  A    between atoms: C_19  and  O_20
REMARK    6  A    between atoms: O_20  and  C_21
REMARK    7  A    between atoms: C_21  and  C_22
REMARK                            x       y       z     vdW  Elec       q    Type
REMARK                         _______ _______ _______ _____ _____    ______ ____
ROOT
ATOM      1  C   UNL     1      47.078   8.498  13.591  0.00  0.00    +0.000 C 
ATOM      2  C   UNL     1      47.600   7.057  13.626  0.00  0.00    +0.000 C 
ENDROOT
BRANCH   2   3
ATOM      3  C   UNL     1      46.737   6.214  12.695  0.00  0.00    +0.000 A 
ATOM      4  C   UNL     1      46.266   4.961  13.114  0.00  0.00    +0.000 A 
ATOM      5  C   UNL     1      45.501   4.162  12.257  0.00  0.00    +0.000 A 
ATOM      6  C   UNL     1      45.183   4.609  10.975  0.00  0.00    +0.000 A 
ATOM      7  C   UNL     1      45.697   5.826  10.528  0.00  0.00    +0.000 A 
ATOM      8  C   UNL     1      46.464   6.622  11.381  0.00  0.00    +0.000 A 
BRANCH   6   9
ATOM      9  O   UNL     1      44.370   3.788  10.237  0.00  0.00    +0.000 OA
BRANCH   9  10
ATOM     10  C   UNL     1      44.457   3.980   8.823  0.00  0.00    +0.000 C 
BRANCH  10  11
ATOM     11  C   UNL     1      45.496   3.065   8.243  0.00  0.00    +0.000 A 
ATOM     12  C   UNL     1      46.430   3.505   7.303  0.00  0.00    +0.000 A 
ATOM     13  C   UNL     1      47.350   2.604   6.777  0.00  0.00    +0.000 A 
ATOM     14  C   UNL     1      47.307   1.289   7.207  0.00  0.00    +0.000 A 
ATOM     15  N   UNL     1      46.417   0.824   8.112  0.00  0.00    +0.000 NA
ATOM     16  C   UNL     1      45.538   1.722   8.610  0.00  0.00    +0.000 A 
ENDBRANCH  10  11
ENDBRANCH   9  10
ENDBRANCH   6   9
ENDBRANCH   2   3
BRANCH   2  17
ATOM     17  N   UNL     1      47.625   6.502  14.975  0.00  0.00    +0.000 N 
ATOM     18  C   UNL     1      48.797   6.323  15.673  0.00  0.00    +0.000 C 
ATOM     19  O   UNL     1      49.890   6.645  15.219  0.00  0.00    +0.000 OA
ATOM     20  H   UNL     1      46.833   5.924  15.241  0.00  0.00    +0.000 HD
BRANCH  18  21
ATOM     21  C   UNL     1      48.680   5.779  17.031  0.00  0.00    +0.000 A 
ATOM     22  C   UNL     1      48.916   4.428  17.244  0.00  0.00    +0.000 A 
ATOM     23  S   UNL     1      48.733   3.946  18.869  0.00  0.00    +0.000 S 
ATOM     24  C   UNL     1      48.295   5.522  19.340  0.00  0.00    +0.000 A 
ATOM     25  N   UNL     1      47.958   5.796  20.628  0.00  0.00    +0.000 NA
ATOM     26  C   UNL     1      47.613   7.023  20.839  0.00  0.00    +0.000 A 
ATOM     27  N   UNL     1      47.594   8.005  19.880  0.00  0.00    +0.000 N 
ATOM     28  C   UNL     1      47.976   7.784  18.578  0.00  0.00    +0.000 A 
ATOM     29  O   UNL     1      48.031   8.696  17.763  0.00  0.00    +0.000 OA
ATOM     30  C   UNL     1      48.328   6.408  18.279  0.00  0.00    +0.000 A 
ATOM     31  H   UNL     1      47.336   8.950  20.118  0.00  0.00    +0.000 HD
ENDBRANCH  18  21
ENDBRANCH   2  17
TORSDOF 6
ENDMDL
MODEL 3
REMARK VINA RESULT:    -8.046      1.594      1.897
REMARK INTER + INTRA:         -11.938
REMARK INTER:                 -10.764
REMARK INTRA:                  -1.175
REMARK UNBOUND:                -1.070
REMARK  Name = 
REMARK  7 active torsions:
REMARK  status: ('A' for Active; 'I' for Inactive)
REMARK    1  A    between atoms: C_1  and  C_2
REMARK    2  A    between atoms: C_2  and  N_3
REMARK    3  A    between atoms: C_2  and  C_16
REMARK    4  A    between atoms: C_4  and  C_6
REMARK    5  A    between atoms: C_19  and  O_20
REMARK    6  A    between atoms: O_20  and  C_21
REMARK    7  A    between atoms: C_21  and  C_22
REMARK                            x       y       z     vdW  Elec       q    Type
REMARK                         _______ _______ _______ _____ _____    ______ ____
ROOT
ATOM      1  C   UNL     1      48.132   8.601  13.027  0.00  0.00    +0.000 C 
ATOM      2  C   UNL     1      48.223   7.175  13.580  0.00  0.00    +0.000 C 
ENDROOT
BRANCH   2   3
ATOM      3  C   UNL     1      47.183   6.320  12.866  0.00  0.00    +0.000 A 
ATOM      4  C   UNL     1      46.361   6.887  11.880  0.00  0.00    +0.000 A 
ATOM      5  C   UNL     1      45.380   6.121  11.241  0.00  0.00    +0.000 A 
ATOM      6  C   UNL     1      45.215   4.775  11.565  0.00  0.00    +0.000 A 
ATOM      7  C   UNL     1      45.986   4.218  12.585  0.00  0.00    +0.000 A 
ATOM      8  C   UNL     1      46.963   4.982  13.227  0.00  0.00    +0.000 A 
BRANCH   6   9
ATOM      9  O   UNL     1      44.278   4.091  10.834  0.00  0.00    +0.000 OA
BRANCH   9  10
ATOM     10  C   UNL     1      44.295   4.376   9.432  0.00  0.00    +0.000 C 
BRANCH  10  11
ATOM     11  C   UNL     1      45.228   3.435   8.728  0.00  0.00    +0.000 A 
ATOM     12  C   UNL     1      46.130   3.874   7.758  0.00  0.00    +0.000 A 
ATOM     13  C   UNL     1      46.949   2.952   7.115  0.00  0.00    +0.000 A 
ATOM     14  C   UNL     1      46.839   1.616   7.462  0.00  0.00    +0.000 A 
ATOM     15  N   UNL     1      45.976   1.152   8.392  0.00  0.00    +0.000 NA
ATOM     16  C   UNL     1      45.196   2.071   9.004  0.00  0.00    +0.000 A 
ENDBRANCH  10  11
ENDBRANCH   9  10
ENDBRANCH   6   9
ENDBRANCH   2   3
BRANCH   2  17
ATOM     17  N   UNL     1      48.049   7.122  15.028  0.00  0.00    +0.000 N 
ATOM     18  C   UNL     1      49.092   6.849  15.882  0.00  0.00    +0.000 C 
ATOM     19  O   UNL     1      50.238   6.662  15.485  0.00  0.00    +0.000 OA
ATOM     20  H   UNL     1      47.110   6.927  15.365  0.00  0.00    +0.000 HD
BRANCH  18  21
ATOM     21  C   UNL     1      48.788   6.852  17.318  0.00  0.00    +0.000 A 
ATOM     22  C   UNL     1      48.451   8.047  17.939  0.00  0.00    +0.000 A 
ATOM     23  S   UNL     1      48.135   7.889  19.607  0.00  0.00    +0.000 S 
ATOM     24  C   UNL     1      48.475   6.222  19.565  0.00  0.00    +0.000 A 
ATOM     25  N   UNL     1      48.433   5.473  20.699  0.00  0.00    +0.000 NA
ATOM     26  C   UNL     1      48.747   4.232  20.531  0.00  0.00    +0.000 A 
ATOM     27  N   UNL     1      49.080   3.668  19.325  0.00  0.00    +0.000 N 
ATOM     28  C   UNL     1      49.085   4.375  18.146  0.00  0.00    +0.000 A 
ATOM     29  O   UNL     1      49.303   3.828  17.071  0.00  0.00    +0.000 OA
ATOM     30  C   UNL     1      48.785   5.788  18.289  0.00  0.00    +0.000 A 
ATOM     31  H   UNL     1      49.292   2.684  19.259  0.00  0.00    +0.000 HD
ENDBRANCH  18  21
ENDBRANCH   2  17
TORSDOF 6
ENDMDL
MODEL 4
REMARK VINA RESULT:    -7.844      2.876      4.167
REMARK INTER + INTRA:         -11.665
REMARK INTER:                 -10.387
REMARK INTRA:                  -1.279
REMARK UNBOUND:                -1.070
REMARK  Name = 
REMARK  7 active torsions:
REMARK  status: ('A' for Active; 'I' for Inactive)
REMARK    1  A    between atoms: C_1  and  C_2
REMARK    2  A    between atoms: C_2  and  N_3
REMARK    3  A    between atoms: C_2  and  C_16
REMARK    4  A    between atoms: C_4  and  C_6
REMARK    5  A    between atoms: C_19  and  O_20
REMARK    6  A    between atoms: O_20  and  C_21
REMARK    7  A    between atoms: C_21  and  C_22
REMARK                            x       y       z     vdW  Elec       q    Type
REMARK                         _______ _______ _______ _____ _____    ______ ____
ROOT
ATOM      1  C   UNL     1      47.158   4.691  14.934  0.00  0.00    +0.000 C 
ATOM      2  C   UNL     1      46.818   5.747  13.876  0.00  0.00    +0.000 C 
ENDROOT
BRANCH   2   3
ATOM      3  C   UNL     1      46.130   5.048  12.709  0.00  0.00    +0.000 A 
ATOM      4  C   UNL     1      45.786   5.772  11.558  0.00  0.00    +0.000 A 
ATOM      5  C   UNL     1      45.124   5.150  10.494  0.00  0.00    +0.000 A 
ATOM      6  C   UNL     1      44.809   3.793  10.557  0.00  0.00    +0.000 A 
ATOM      7  C   UNL     1      45.093   3.079  11.721  0.00  0.00    +0.000 A 
ATOM      8  C   UNL     1      45.750   3.700  12.785  0.00  0.00    +0.000 A 
BRANCH   6   9
ATOM      9  O   UNL     1      44.227   3.259   9.437  0.00  0.00    +0.000 OA
BRANCH   9  10
ATOM     10  C   UNL     1      44.739   1.980   9.053  0.00  0.00    +0.000 C 
BRANCH  10  11
ATOM     11  C   UNL     1      45.811   2.146   8.016  0.00  0.00    +0.000 A 
ATOM     12  C   UNL     1      45.899   3.287   7.217  0.00  0.00    +0.000 A 
ATOM     13  C   UNL     1      46.896   3.372   6.250  0.00  0.00    +0.000 A 
ATOM     14  C   UNL     1      47.773   2.310   6.112  0.00  0.00    +0.000 A 
ATOM     15  N   UNL     1      47.718   1.188   6.863  0.00  0.00    +0.000 NA
ATOM     16  C   UNL     1      46.743   1.135   7.797  0.00  0.00    +0.000 A 
ENDBRANCH  10  11
ENDBRANCH   9  10
ENDBRANCH   6   9
ENDBRANCH   2   3
BRANCH   2  17
ATOM     17  N   UNL     1      47.990   6.494  13.431  0.00  0.00    +0.000 N 
ATOM     18  C   UNL     1      47.982   7.863  13.307  0.00  0.00    +0.000 C 
ATOM     19  O   UNL     1      47.003   8.546  13.590  0.00  0.00    +0.000 OA
ATOM     20  H   UNL     1      48.670   5.981  12.877  0.00  0.00    +0.000 HD
BRANCH  18  21
ATOM     21  C   UNL     1      49.235   8.494  12.875  0.00  0.00    +0.000 A 
ATOM     22  C   UNL     1      49.224   9.342  11.775  0.00  0.00    +0.000 A 
ATOM     23  S   UNL     1      50.754   9.989  11.392  0.00  0.00    +0.000 S 
ATOM     24  C   UNL     1      51.492   9.128  12.660  0.00  0.00    +0.000 A 
ATOM     25  N   UNL     1      52.834   9.203  12.865  0.00  0.00    +0.000 NA
ATOM     26  C   UNL     1      53.267   8.472  13.838  0.00  0.00    +0.000 A 
ATOM     27  N   UNL     1      52.474   7.689  14.639  0.00  0.00    +0.000 N 
ATOM     28  C   UNL     1      51.107   7.623  14.501  0.00  0.00    +0.000 A 
ATOM     29  O   UNL     1      50.414   6.983  15.282  0.00  0.00    +0.000 OA
ATOM     30  C   UNL     1      50.577   8.391  13.389  0.00  0.00    +0.000 A 
ATOM     31  H   UNL     1      52.874   7.160  15.399  0.00  0.00    +0.000 HD
ENDBRANCH  18  21
ENDBRANCH   2  17
TORSDOF 6
ENDMDL
MODEL 5
REMARK VINA RESULT:    -7.602      2.618      4.373
REMARK INTER + INTRA:         -11.339
REMARK INTER:                 -10.076
REMARK INTRA:                  -1.262
REMARK UNBOUND:                -1.070
REMARK  Name = 
REMARK  7 active torsions:
REMARK  status: ('A' for Active; 'I' for Inactive)
REMARK    1  A    between atoms: C_1  and  C_2
REMARK    2  A    between atoms: C_2  and  N_3
REMARK    3  A    between atoms: C_2  and  C_16
REMARK    4  A    between atoms: C_4  and  C_6
REMARK    5  A    between atoms: C_19  and  O_20
REMARK    6  A    between atoms: O_20  and  C_21
REMARK    7  A    between atoms: C_21  and  C_22
REMARK                            x       y       z     vdW  Elec       q    Type
REMARK                         _______ _______ _______ _____ _____    ______ ____
ROOT
ATOM      1  C   UNL     1      47.171   4.347  15.170  0.00  0.00    +0.000 C 
ATOM      2  C   UNL     1      46.980   5.573  14.270  0.00  0.00    +0.000 C 
ENDROOT
BRANCH   2   3
ATOM      3  C   UNL     1      46.229   5.133  13.018  0.00  0.00    +0.000 A 
ATOM      4  C   UNL     1      45.704   3.834  12.932  0.00  0.00    +0.000 A 
ATOM      5  C   UNL     1      45.042   3.407  11.775  0.00  0.00    +0.000 A 
ATOM      6  C   UNL     1      44.882   4.273  10.695  0.00  0.00    +0.000 A 
ATOM      7  C   UNL     1      45.453   5.545  10.748  0.00  0.00    +0.000 A 
ATOM      8  C   UNL     1      46.117   5.971  11.900  0.00  0.00    +0.000 A 
BRANCH   6   9
ATOM      9  O   UNL     1      44.158   3.787   9.637  0.00  0.00    +0.000 OA
BRANCH   9  10
ATOM     10  C   UNL     1      44.696   4.108   8.351  0.00  0.00    +0.000 C 
BRANCH  10  11
ATOM     11  C   UNL     1      45.703   3.074   7.943  0.00  0.00    +0.000 A 
ATOM     12  C   UNL     1      46.739   3.360   7.052  0.00  0.00    +0.000 A 
ATOM     13  C   UNL     1      47.626   2.353   6.685  0.00  0.00    +0.000 A 
ATOM     14  C   UNL     1      47.448   1.089   7.220  0.00  0.00    +0.000 A 
ATOM     15  N   UNL     1      46.456   0.771   8.082  0.00  0.00    +0.000 NA
ATOM     16  C   UNL     1      45.613   1.770   8.425  0.00  0.00    +0.000 A 
ENDBRANCH  10  11
ENDBRANCH   9  10
ENDBRANCH   6   9
ENDBRANCH   2   3
BRANCH   2  17
ATOM     17  N   UNL     1      48.242   6.222  13.931  0.00  0.00    +0.000 N 
ATOM     18  C   UNL     1      48.806   7.188  14.731  0.00  0.00    +0.000 C 
ATOM     19  O   UNL     1      48.303   7.544  15.791  0.00  0.00    +0.000 OA
ATOM     20  H   UNL     1      48.502   6.222  12.949  0.00  0.00    +0.000 HD
BRANCH  18  21
ATOM     21  C   UNL     1      50.091   7.744  14.288  0.00  0.00    +0.000 A 
ATOM     22  C   UNL     1      51.213   7.579  15.089  0.00  0.00    +0.000 A 
ATOM     23  S   UNL     1      52.625   8.286  14.446  0.00  0.00    +0.000 S 
ATOM     24  C   UNL     1      51.777   8.870  13.091  0.00  0.00    +0.000 A 
ATOM     25  N   UNL     1      52.404   9.617  12.144  0.00  0.00    +0.000 NA
ATOM     26  C   UNL     1      51.635  10.025  11.190  0.00  0.00    +0.000 A 
ATOM     27  N   UNL     1      50.297   9.734  11.087  0.00  0.00    +0.000 N 
ATOM     28  C   UNL     1      49.635   8.939  11.993  0.00  0.00    +0.000 A 
ATOM     29  O   UNL     1      48.462   8.625  11.832  0.00  0.00    +0.000 OA
ATOM     30  C   UNL     1      50.446   8.495  13.112  0.00  0.00    +0.000 A 
ATOM     31  H   UNL     1      49.759  10.064  10.302  0.00  0.00    +0.000 HD
ENDBRANCH  18  21
ENDBRANCH   2  17
TORSDOF 6
ENDMDL
MODEL 6
REMARK VINA RESULT:    -7.242      3.321      7.910
REMARK INTER + INTRA:         -10.853
REMARK INTER:                  -9.606
REMARK INTRA:                  -1.247
REMARK UNBOUND:                -1.070
REMARK  Name = 
REMARK  7 active torsions:
REMARK  status: ('A' for Active; 'I' for Inactive)
REMARK    1  A    between atoms: C_1  and  C_2
REMARK    2  A    between atoms: C_2  and  N_3
REMARK    3  A    between atoms: C_2  and  C_16
REMARK    4  A    between atoms: C_4  and  C_6
REMARK    5  A    between atoms: C_19  and  O_20
REMARK    6  A    between atoms: O_20  and  C_21
REMARK    7  A    between atoms: C_21  and  C_22
REMARK                            x       y       z     vdW  Elec       q    Type
REMARK                         _______ _______ _______ _____ _____    ______ ____
ROOT
ATOM      1  C   UNL     1      50.004   7.989  11.992  0.00  0.00    +0.000 C 
ATOM      2  C   UNL     1      48.726   7.639  12.763  0.00  0.00    +0.000 C 
ENDROOT
BRANCH   2   3
ATOM      3  C   UNL     1      49.125   7.165  14.156  0.00  0.00    +0.000 A 
ATOM      4  C   UNL     1      48.272   6.321  14.884  0.00  0.00    +0.000 A 
ATOM      5  C   UNL     1      48.611   5.907  16.176  0.00  0.00    +0.000 A 
ATOM      6  C   UNL     1      49.811   6.316  16.756  0.00  0.00    +0.000 A 
ATOM      7  C   UNL     1      50.636   7.202  16.064  0.00  0.00    +0.000 A 
ATOM      8  C   UNL     1      50.298   7.621  14.775  0.00  0.00    +0.000 A 
BRANCH   6   9
ATOM      9  O   UNL     1      50.087   5.799  17.995  0.00  0.00    +0.000 OA
BRANCH   9  10
ATOM     10  C   UNL     1      49.491   4.525  18.254  0.00  0.00    +0.000 C 
BRANCH  10  11
ATOM     11  C   UNL     1      50.487   3.431  18.001  0.00  0.00    +0.000 A 
ATOM     12  C   UNL     1      51.830   3.555  18.359  0.00  0.00    +0.000 A 
ATOM     13  C   UNL     1      52.715   2.520  18.072  0.00  0.00    +0.000 A 
ATOM     14  C   UNL     1      52.227   1.393  17.433  0.00  0.00    +0.000 A 
ATOM     15  N   UNL     1      50.936   1.238  17.067  0.00  0.00    +0.000 NA
ATOM     16  C   UNL     1      50.098   2.256  17.363  0.00  0.00    +0.000 A 
ENDBRANCH  10  11
ENDBRANCH   9  10
ENDBRANCH   6   9
ENDBRANCH   2   3
BRANCH   2  17
ATOM     17  N   UNL     1      47.911   6.642  12.076  0.00  0.00    +0.000 N 
ATOM     18  C   UNL     1      46.595   6.870  11.751  0.00  0.00    +0.000 C 
ATOM     19  O   UNL     1      46.031   7.933  11.990  0.00  0.00    +0.000 OA
ATOM     20  H   UNL     1      48.206   5.674  12.170  0.00  0.00    +0.000 HD
BRANCH  18  21
ATOM     21  C   UNL     1      45.894   5.795  11.038  0.00  0.00    +0.000 A 
ATOM     22  C   UNL     1      45.976   5.734   9.653  0.00  0.00    +0.000 A 
ATOM     23  S   UNL     1      45.104   4.436   8.972  0.00  0.00    +0.000 S 
ATOM     24  C   UNL     1      44.557   3.933  10.502  0.00  0.00    +0.000 A 
ATOM     25  N   UNL     1      43.713   2.874  10.628  0.00  0.00    +0.000 NA
ATOM     26  C   UNL     1      43.349   2.623  11.841  0.00  0.00    +0.000 A 
ATOM     27  N   UNL     1      43.770   3.324  12.944  0.00  0.00    +0.000 N 
ATOM     28  C   UNL     1      44.663   4.367  12.869  0.00  0.00    +0.000 A 
ATOM     29  O   UNL     1      45.088   4.921  13.876  0.00  0.00    +0.000 OA
ATOM     30  C   UNL     1      45.065   4.720  11.520  0.00  0.00    +0.000 A 
ATOM     31  H   UNL     1      43.466   3.060  13.868  0.00  0.00    +0.000 HD
ENDBRANCH  18  21
ENDBRANCH   2  17
TORSDOF 6
ENDMDL
MODEL 7
REMARK VINA RESULT:    -6.980      1.623      2.616
REMARK INTER + INTRA:         -10.499
REMARK INTER:                  -9.975
REMARK INTRA:                  -0.524
REMARK UNBOUND:                -1.070
REMARK  Name = 
REMARK  7 active torsions:
REMARK  status: ('A' for Active; 'I' for Inactive)
REMARK    1  A    between atoms: C_1  and  C_2
REMARK    2  A    between atoms: C_2  and  N_3
REMARK    3  A    between atoms: C_2  and  C_16
REMARK    4  A    between atoms: C_4  and  C_6
REMARK    5  A    between atoms: C_19  and  O_20
REMARK    6  A    between atoms: O_20  and  C_21
REMARK    7  A    between atoms: C_21  and  C_22
REMARK                            x       y       z     vdW  Elec       q    Type
REMARK                         _______ _______ _______ _____ _____    ______ ____
ROOT
ATOM      1  C   UNL     1      45.967   8.751  13.275  0.00  0.00    +0.000 C 
ATOM      2  C   UNL     1      46.944   7.587  13.077  0.00  0.00    +0.000 C 
ENDROOT
BRANCH   2   3
ATOM      3  C   UNL     1      46.255   6.526  12.227  0.00  0.00    +0.000 A 
ATOM      4  C   UNL     1      45.591   5.453  12.841  0.00  0.00    +0.000 A 
ATOM      5  C   UNL     1      44.984   4.455  12.071  0.00  0.00    +0.000 A 
ATOM      6  C   UNL     1      45.018   4.520  10.679  0.00  0.00    +0.000 A 
ATOM      7  C   UNL     1      45.727   5.550  10.060  0.00  0.00    +0.000 A 
ATOM      8  C   UNL     1      46.337   6.545  10.827  0.00  0.00    +0.000 A 
BRANCH   6   9
ATOM      9  O   UNL     1      44.334   3.536  10.014  0.00  0.00    +0.000 OA
BRANCH   9  10
ATOM     10  C   UNL     1      44.370   3.645   8.589  0.00  0.00    +0.000 C 
BRANCH  10  11
ATOM     11  C   UNL     1      45.520   2.853   8.041  0.00  0.00    +0.000 A 
ATOM     12  C   UNL     1      46.431   3.398   7.135  0.00  0.00    +0.000 A 
ATOM     13  C   UNL     1      47.461   2.606   6.636  0.00  0.00    +0.000 A 
ATOM     14  C   UNL     1      47.545   1.291   7.059  0.00  0.00    +0.000 A 
ATOM     15  N   UNL     1      46.682   0.726   7.931  0.00  0.00    +0.000 NA
ATOM     16  C   UNL     1      45.695   1.520   8.403  0.00  0.00    +0.000 A 
ENDBRANCH  10  11
ENDBRANCH   9  10
ENDBRANCH   6   9
ENDBRANCH   2   3
BRANCH   2  17
ATOM     17  N   UNL     1      47.417   7.030  14.341  0.00  0.00    +0.000 N 
ATOM     18  C   UNL     1      48.754   6.954  14.653  0.00  0.00    +0.000 C 
ATOM     19  O   UNL     1      49.631   7.375  13.906  0.00  0.00    +0.000 OA
ATOM     20  H   UNL     1      46.792   6.382  14.812  0.00  0.00    +0.000 HD
BRANCH  18  21
ATOM     21  C   UNL     1      49.094   6.396  15.968  0.00  0.00    +0.000 A 
ATOM     22  C   UNL     1      48.286   5.409  16.516  0.00  0.00    +0.000 A 
ATOM     23  S   UNL     1      48.805   4.869  18.047  0.00  0.00    +0.000 S 
ATOM     24  C   UNL     1      50.109   5.963  18.047  0.00  0.00    +0.000 A 
ATOM     25  N   UNL     1      50.947   6.048  19.115  0.00  0.00    +0.000 NA
ATOM     26  C   UNL     1      51.870   6.944  18.997  0.00  0.00    +0.000 A 
ATOM     27  N   UNL     1      52.043   7.747  17.898  0.00  0.00    +0.000 N 
ATOM     28  C   UNL     1      51.252   7.659  16.777  0.00  0.00    +0.000 A 
ATOM     29  O   UNL     1      51.480   8.329  15.777  0.00  0.00    +0.000 OA
ATOM     30  C   UNL     1      50.168   6.699  16.879  0.00  0.00    +0.000 A 
ATOM     31  H   UNL     1      52.801   8.411  17.861  0.00  0.00    +0.000 HD
ENDBRANCH  18  21
ENDBRANCH   2  17
TORSDOF 6
ENDMDL
MODEL 8
REMARK VINA RESULT:    -6.639      2.871      8.373
REMARK INTER + INTRA:         -10.038
REMARK INTER:                  -8.785
REMARK INTRA:                  -1.254
REMARK UNBOUND:                -1.070
REMARK  Name = 
REMARK  7 active torsions:
REMARK  status: ('A' for Active; 'I' for Inactive)
REMARK    1  A    between atoms: C_1  and  C_2
REMARK    2  A    between atoms: C_2  and  N_3
REMARK    3  A    between atoms: C_2  and  C_16
REMARK    4  A    between atoms: C_4  and  C_6
REMARK    5  A    between atoms: C_19  and  O_20
REMARK    6  A    between atoms: O_20  and  C_21
REMARK    7  A    between atoms: C_21  and  C_22
REMARK                            x       y       z     vdW  Elec       q    Type
REMARK                         _______ _______ _______ _____ _____    ______ ____
ROOT
ATOM      1  C   UNL     1      49.385   7.742  11.335  0.00  0.00    +0.000 C 
ATOM      2  C   UNL     1      48.150   7.821  12.239  0.00  0.00    +0.000 C 
ENDROOT
BRANCH   2   3
ATOM      3  C   UNL     1      48.622   8.010  13.676  0.00  0.00    +0.000 A 
ATOM      4  C   UNL     1      49.771   7.345  14.133  0.00  0.00    +0.000 A 
ATOM      5  C   UNL     1      50.195   7.484  15.459  0.00  0.00    +0.000 A 
ATOM      6  C   UNL     1      49.489   8.298  16.344  0.00  0.00    +0.000 A 
ATOM      7  C   UNL     1      48.314   8.914  15.915  0.00  0.00    +0.000 A 
ATOM      8  C   UNL     1      47.886   8.774  14.594  0.00  0.00    +0.000 A 
BRANCH   6   9
ATOM      9  O   UNL     1      50.024   8.426  17.600  0.00  0.00    +0.000 OA
BRANCH   9  10
ATOM     10  C   UNL     1      49.183   7.954  18.655  0.00  0.00    +0.000 C 
BRANCH  10  11
ATOM     11  C   UNL     1      49.053   6.461  18.580  0.00  0.00    +0.000 A 
ATOM     12  C   UNL     1      47.843   5.838  18.272  0.00  0.00    +0.000 A 
ATOM     13  C   UNL     1      47.774   4.448  18.247  0.00  0.00    +0.000 A 
ATOM     14  C   UNL     1      48.919   3.726  18.535  0.00  0.00    +0.000 A 
ATOM     15  N   UNL     1      50.107   4.292  18.842  0.00  0.00    +0.000 NA
ATOM     16  C   UNL     1      50.146   5.643  18.853  0.00  0.00    +0.000 A 
ENDBRANCH  10  11
ENDBRANCH   9  10
ENDBRANCH   6   9
ENDBRANCH   2   3
BRANCH   2  17
ATOM     17  N   UNL     1      47.287   6.651  12.113  0.00  0.00    +0.000 N 
ATOM     18  C   UNL     1      45.955   6.755  11.788  0.00  0.00    +0.000 C 
ATOM     19  O   UNL     1      45.415   7.832  11.554  0.00  0.00    +0.000 OA
ATOM     20  H   UNL     1      47.578   5.817  12.615  0.00  0.00    +0.000 HD
BRANCH  18  21
ATOM     21  C   UNL     1      45.204   5.499  11.668  0.00  0.00    +0.000 A 
ATOM     22  C   UNL     1      44.518   5.011  12.772  0.00  0.00    +0.000 A 
ATOM     23  S   UNL     1      43.703   3.542  12.479  0.00  0.00    +0.000 S 
ATOM     24  C   UNL     1      44.271   3.489  10.875  0.00  0.00    +0.000 A 
ATOM     25  N   UNL     1      43.968   2.441  10.063  0.00  0.00    +0.000 NA
ATOM     26  C   UNL     1      44.492   2.511   8.885  0.00  0.00    +0.000 A 
ATOM     27  N   UNL     1      45.275   3.546   8.439  0.00  0.00    +0.000 N 
ATOM     28  C   UNL     1      45.563   4.650   9.207  0.00  0.00    +0.000 A 
ATOM     29  O   UNL     1      46.193   5.598   8.756  0.00  0.00    +0.000 OA
ATOM     30  C   UNL     1      45.036   4.596  10.558  0.00  0.00    +0.000 A 
ATOM     31  H   UNL     1      45.634   3.550   7.496  0.00  0.00    +0.000 HD
ENDBRANCH  18  21
ENDBRANCH   2  17
TORSDOF 6
ENDMDL
MODEL 9
REMARK VINA RESULT:    -6.382      3.377      5.448
REMARK INTER + INTRA:          -9.691
REMARK INTER:                  -9.102
REMARK INTRA:                  -0.590
REMARK UNBOUND:                -1.070
REMARK  Name = 
REMARK  7 active torsions:
REMARK  status: ('A' for Active; 'I' for Inactive)
REMARK    1  A    between atoms: C_1  and  C_2
REMARK    2  A    between atoms: C_2  and  N_3
REMARK    3  A    between atoms: C_2  and  C_16
REMARK    4  A    between atoms: C_4  and  C_6
REMARK    5  A    between atoms: C_19  and  O_20
REMARK    6  A    between atoms: O_20  and  C_21
REMARK    7  A    between atoms: C_21  and  C_22
REMARK                            x       y       z     vdW  Elec       q    Type
REMARK                         _______ _______ _______ _____ _____    ______ ____
ROOT
ATOM      1  C   UNL     1      47.075   2.827  17.710  0.00  0.00    +0.000 C 
ATOM      2  C   UNL     1      48.037   4.007  17.535  0.00  0.00    +0.000 C 
ENDROOT
BRANCH   2   3
ATOM      3  C   UNL     1      47.838   4.580  16.137  0.00  0.00    +0.000 A 
ATOM      4  C   UNL     1      48.417   5.811  15.791  0.00  0.00    +0.000 A 
ATOM      5  C   UNL     1      48.214   6.364  14.522  0.00  0.00    +0.000 A 
ATOM      6  C   UNL     1      47.443   5.691  13.575  0.00  0.00    +0.000 A 
ATOM      7  C   UNL     1      46.815   4.497  13.929  0.00  0.00    +0.000 A 
ATOM      8  C   UNL     1      47.013   3.946  15.196  0.00  0.00    +0.000 A 
BRANCH   6   9
ATOM      9  O   UNL     1      47.363   6.278  12.339  0.00  0.00    +0.000 OA
BRANCH   9  10
ATOM     10  C   UNL     1      46.052   6.718  11.974  0.00  0.00    +0.000 C 
BRANCH  10  11
ATOM     11  C   UNL     1      45.464   5.791  10.951  0.00  0.00    +0.000 A 
ATOM     12  C   UNL     1      44.363   4.981  11.232  0.00  0.00    +0.000 A 
ATOM     13  C   UNL     1      43.879   4.118  10.254  0.00  0.00    +0.000 A 
ATOM     14  C   UNL     1      44.515   4.091   9.024  0.00  0.00    +0.000 A 
ATOM     15  N   UNL     1      45.585   4.856   8.716  0.00  0.00    +0.000 NA
ATOM     16  C   UNL     1      46.030   5.689   9.683  0.00  0.00    +0.000 A 
ENDBRANCH  10  11
ENDBRANCH   9  10
ENDBRANCH   6   9
ENDBRANCH   2   3
BRANCH   2  17
ATOM     17  N   UNL     1      49.429   3.635  17.763  0.00  0.00    +0.000 N 
ATOM     18  C   UNL     1      50.025   2.586  17.103  0.00  0.00    +0.000 C 
ATOM     19  O   UNL     1      49.436   1.917  16.260  0.00  0.00    +0.000 OA
ATOM     20  H   UNL     1      49.832   3.912  18.654  0.00  0.00    +0.000 HD
BRANCH  18  21
ATOM     21  C   UNL     1      51.440   2.333  17.405  0.00  0.00    +0.000 A 
ATOM     22  C   UNL     1      51.894   1.023  17.480  0.00  0.00    +0.000 A 
ATOM     23  S   UNL     1      53.554   0.892  17.847  0.00  0.00    +0.000 S 
ATOM     24  C   UNL     1      53.715   2.583  17.956  0.00  0.00    +0.000 A 
ATOM     25  N   UNL     1      54.904   3.150  18.292  0.00  0.00    +0.000 NA
ATOM     26  C   UNL     1      54.876   4.439  18.373  0.00  0.00    +0.000 A 
ATOM     27  N   UNL     1      53.770   5.213  18.129  0.00  0.00    +0.000 N 
ATOM     28  C   UNL     1      52.562   4.686  17.736  0.00  0.00    +0.000 A 
ATOM     29  O   UNL     1      51.615   5.405  17.442  0.00  0.00    +0.000 OA
ATOM     30  C   UNL     1      52.528   3.237  17.677  0.00  0.00    +0.000 A 
ATOM     31  H   UNL     1      53.823   6.218  18.187  0.00  0.00    +0.000 HD
ENDBRANCH  18  21
ENDBRANCH   2  17
TORSDOF 6
ENDMDL
