MODEL 1
REMARK VINA RESULT:    -7.890      0.000      0.000
REMARK INTER + INTRA:         -10.779
REMARK INTER:                 -10.196
REMARK INTRA:                  -0.582
REMARK UNBOUND:                -0.582
REMARK  Name = 
REMARK  6 active torsions:
REMARK  status: ('A' for Active; 'I' for Inactive)
REMARK    1  A    between atoms: N_1  and  C_2
REMARK    2  A    between atoms: C_2  and  C_3
REMARK    3  A    between atoms: C_3  and  N_4
REMARK    4  A    between atoms: C_3  and  C_5
REMARK    5  A    between atoms: C_8  and  C_9
REMARK    6  A    between atoms: C_9  and  N_10
REMARK                            x       y       z     vdW  Elec       q    Type
REMARK                         _______ _______ _______ _____ _____    ______ ____
ROOT
ATOM      1  C   UNL     1      45.980   2.179   7.988  0.00  0.00    +0.000 A 
ATOM      2  C   UNL     1      45.942   3.545   7.709  0.00  0.00    +0.000 A 
ATOM      3  C   UNL     1      45.152   4.383   8.503  0.00  0.00    +0.000 A 
ATOM      4  C   UNL     1      44.409   3.851   9.562  0.00  0.00    +0.000 A 
ATOM      5  C   UNL     1      44.460   2.472   9.725  0.00  0.00    +0.000 A 
ATOM      6  N   UNL     1      45.221   1.635   8.975  0.00  0.00    +0.000 NA
ENDROOT
BRANCH   1   7
ATOM      7  C   UNL     1      46.869   1.256   7.159  0.00  0.00    +0.000 C 
BRANCH   7   8
ATOM      8  N   UNL     1      47.123  -0.033   7.844  0.00  0.00    +0.000 NA
ATOM      9  H   UNL     1      46.452  -0.088   8.619  0.00  0.00    +0.000 HD
ATOM     10  H   UNL     1      48.028   0.081   8.317  0.00  0.00    +0.000 HD
ENDBRANCH   7   8
BRANCH   7  11
ATOM     11  C   UNL     1      48.225   1.924   6.778  0.00  0.00    +0.000 C 
BRANCH  11  12
ATOM     12  N   UNL     1      48.436   1.970   5.316  0.00  0.00    +0.000 NA
ATOM     13  H   UNL     1      47.535   1.817   4.857  0.00  0.00    +0.000 HD
ATOM     14  H   UNL     1      49.034   1.192   5.037  0.00  0.00    +0.000 HD
ENDBRANCH  11  12
ENDBRANCH   7  11
ENDBRANCH   1   7
BRANCH   4  15
ATOM     15  C   UNL     1      43.605   4.720  10.499  0.00  0.00    +0.000 C 
BRANCH  15  16
ATOM     16  N   UNL     1      44.439   5.543  11.374  0.00  0.00    +0.000 N 
ATOM     17  C   UNL     1      44.815   6.829  11.071  0.00  0.00    +0.000 A 
ATOM     18  C   UNL     1      45.429   7.348  12.187  0.00  0.00    +0.000 A 
ATOM     19  C   UNL     1      45.876   6.212  12.918  0.00  0.00    +0.000 A 
ATOM     20  C   UNL     1      46.863   6.050  13.900  0.00  0.00    +0.000 A 
ATOM     21  C   UNL     1      47.058   4.758  14.346  0.00  0.00    +0.000 A 
ATOM     22  F   UNL     1      48.106   4.519  15.150  0.00  0.00    +0.000 F 
ATOM     23  N   UNL     1      46.290   3.701  14.003  0.00  0.00    +0.000 NA
ATOM     24  C   UNL     1      45.316   3.872  13.082  0.00  0.00    +0.000 A 
ATOM     25  C   UNL     1      45.164   5.107  12.467  0.00  0.00    +0.000 A 
ENDBRANCH  15  16
ENDBRANCH   4  15
TORSDOF 6
ENDMDL
MODEL 2
REMARK VINA RESULT:    -7.113      2.805      6.772
REMARK INTER + INTRA:          -9.774
REMARK INTER:                  -8.973
REMARK INTRA:                  -0.801
REMARK UNBOUND:                -0.582
REMARK  Name = 
REMARK  6 active torsions:
REMARK  status: ('A' for Active; 'I' for Inactive)
REMARK    1  A    between atoms: N_1  and  C_2
REMARK    2  A    between atoms: C_2  and  C_3
REMARK    3  A    between atoms: C_3  and  N_4
REMARK    4  A    between atoms: C_3  and  C_5
REMARK    5  A    between atoms: C_8  and  C_9
REMARK    6  A    between atoms: C_9  and  N_10
REMARK                            x       y       z     vdW  Elec       q    Type
REMARK                         _______ _______ _______ _____ _____    ______ ____
ROOT
ATOM      1  C   UNL     1      47.166   6.214  13.307  0.00  0.00    +0.000 A 
ATOM      2  C   UNL     1      46.358   5.140  13.679  0.00  0.00    +0.000 A 
ATOM      3  C   UNL     1      45.314   4.746  12.836  0.00  0.00    +0.000 A 
ATOM      4  C   UNL     1      45.086   5.427  11.636  0.00  0.00    +0.000 A 
ATOM      5  C   UNL     1      45.901   6.522  11.379  0.00  0.00    +0.000 A 
ATOM      6  N   UNL     1      46.924   6.924  12.175  0.00  0.00    +0.000 NA
ENDROOT
BRANCH   1   7
ATOM      7  C   UNL     1      48.337   6.631  14.194  0.00  0.00    +0.000 C 
BRANCH   7   8
ATOM      8  N   UNL     1      48.270   6.000  15.533  0.00  0.00    +0.000 NA
ATOM      9  H   UNL     1      48.982   6.465  16.109  0.00  0.00    +0.000 HD
ATOM     10  H   UNL     1      48.645   5.052  15.409  0.00  0.00    +0.000 HD
ENDBRANCH   7   8
BRANCH   7  11
ATOM     11  C   UNL     1      48.441   8.179  14.348  0.00  0.00    +0.000 C 
BRANCH  11  12
ATOM     12  N   UNL     1      47.142   8.799  14.680  0.00  0.00    +0.000 NA
ATOM     13  H   UNL     1      47.104   8.941  15.692  0.00  0.00    +0.000 HD
ATOM     14  H   UNL     1      46.391   8.147  14.456  0.00  0.00    +0.000 HD
ENDBRANCH  11  12
ENDBRANCH   7  11
ENDBRANCH   1   7
BRANCH   4  15
ATOM     15  C   UNL     1      44.025   4.993  10.652  0.00  0.00    +0.000 C 
BRANCH  15  16
ATOM     16  N   UNL     1      44.398   3.797   9.899  0.00  0.00    +0.000 N 
ATOM     17  C   UNL     1      44.103   2.520  10.312  0.00  0.00    +0.000 A 
ATOM     18  C   UNL     1      44.437   1.671   9.282  0.00  0.00    +0.000 A 
ATOM     19  C   UNL     1      45.398   2.388   8.516  0.00  0.00    +0.000 A 
ATOM     20  C   UNL     1      46.379   1.973   7.605  0.00  0.00    +0.000 A 
ATOM     21  C   UNL     1      47.183   2.972   7.093  0.00  0.00    +0.000 A 
ATOM     22  F   UNL     1      48.247   2.612   6.358  0.00  0.00    +0.000 F 
ATOM     23  N   UNL     1      46.999   4.293   7.308  0.00  0.00    +0.000 NA
ATOM     24  C   UNL     1      46.028   4.689   8.159  0.00  0.00    +0.000 A 
ATOM     25  C   UNL     1      45.282   3.735   8.840  0.00  0.00    +0.000 A 
ENDBRANCH  15  16
ENDBRANCH   4  15
TORSDOF 6
ENDMDL
MODEL 3
REMARK VINA RESULT:    -6.984      2.631      6.857
REMARK INTER + INTRA:          -9.608
REMARK INTER:                  -9.226
REMARK INTRA:                  -0.382
REMARK UNBOUND:                -0.582
REMARK  Name = 
REMARK  6 active torsions:
REMARK  status: ('A' for Active; 'I' for Inactive)
REMARK    1  A    between atoms: N_1  and  C_2
REMARK    2  A    between atoms: C_2  and  C_3
REMARK    3  A    between atoms: C_3  and  N_4
REMARK    4  A    between atoms: C_3  and  C_5
REMARK    5  A    between atoms: C_8  and  C_9
REMARK    6  A    between atoms: C_9  and  N_10
REMARK                            x       y       z     vdW  Elec       q    Type
REMARK                         _______ _______ _______ _____ _____    ______ ____
ROOT
ATOM      1  C   UNL     1      46.816   5.029  14.353  0.00  0.00    +0.000 A 
ATOM      2  C   UNL     1      47.157   5.953  13.366  0.00  0.00    +0.000 A 
ATOM      3  C   UNL     1      46.442   5.963  12.164  0.00  0.00    +0.000 A 
ATOM      4  C   UNL     1      45.400   5.052  11.959  0.00  0.00    +0.000 A 
ATOM      5  C   UNL     1      45.174   4.130  12.972  0.00  0.00    +0.000 A 
ATOM      6  N   UNL     1      45.847   4.100  14.150  0.00  0.00    +0.000 NA
ENDROOT
BRANCH   1   7
ATOM      7  C   UNL     1      47.557   5.031  15.688  0.00  0.00    +0.000 C 
BRANCH   7   8
ATOM      8  N   UNL     1      48.900   5.647  15.576  0.00  0.00    +0.000 NA
ATOM      9  H   UNL     1      49.072   5.791  14.574  0.00  0.00    +0.000 HD
ATOM     10  H   UNL     1      49.564   4.906  15.829  0.00  0.00    +0.000 HD
ENDBRANCH   7   8
BRANCH   7  11
ATOM     11  C   UNL     1      47.685   3.602  16.297  0.00  0.00    +0.000 C 
BRANCH  11  12
ATOM     12  N   UNL     1      46.689   3.354  17.359  0.00  0.00    +0.000 NA
ATOM     13  H   UNL     1      46.929   3.936  18.166  0.00  0.00    +0.000 HD
ATOM     14  H   UNL     1      46.764   2.387  17.674  0.00  0.00    +0.000 HD
ENDBRANCH  11  12
ENDBRANCH   7  11
ENDBRANCH   1   7
BRANCH   4  15
ATOM     15  C   UNL     1      44.545   5.073  10.715  0.00  0.00    +0.000 C 
BRANCH  15  16
ATOM     16  N   UNL     1      44.725   3.889   9.876  0.00  0.00    +0.000 N 
ATOM     17  C   UNL     1      44.322   2.629  10.247  0.00  0.00    +0.000 A 
ATOM     18  C   UNL     1      44.482   1.811   9.153  0.00  0.00    +0.000 A 
ATOM     19  C   UNL     1      45.457   2.464   8.349  0.00  0.00    +0.000 A 
ATOM     20  C   UNL     1      46.315   2.000   7.343  0.00  0.00    +0.000 A 
ATOM     21  C   UNL     1      47.185   2.935   6.818  0.00  0.00    +0.000 A 
ATOM     22  F   UNL     1      48.145   2.506   5.984  0.00  0.00    +0.000 F 
ATOM     23  N   UNL     1      47.166   4.253   7.112  0.00  0.00    +0.000 NA
ATOM     24  C   UNL     1      46.311   4.701   8.057  0.00  0.00    +0.000 A 
ATOM     25  C   UNL     1      45.516   3.795   8.747  0.00  0.00    +0.000 A 
ENDBRANCH  15  16
ENDBRANCH   4  15
TORSDOF 6
ENDMDL
MODEL 4
REMARK VINA RESULT:    -6.919      1.890      2.551
REMARK INTER + INTRA:          -9.524
REMARK INTER:                  -8.946
REMARK INTRA:                  -0.578
REMARK UNBOUND:                -0.582
REMARK  Name = 
REMARK  6 active torsions:
REMARK  status: ('A' for Active; 'I' for Inactive)
REMARK    1  A    between atoms: N_1  and  C_2
REMARK    2  A    between atoms: C_2  and  C_3
REMARK    3  A    between atoms: C_3  and  N_4
REMARK    4  A    between atoms: C_3  and  C_5
REMARK    5  A    between atoms: C_8  and  C_9
REMARK    6  A    between atoms: C_9  and  N_10
REMARK                            x       y       z     vdW  Elec       q    Type
REMARK                         _______ _______ _______ _____ _____    ______ ____
ROOT
ATOM      1  C   UNL     1      45.932   2.791   7.762  0.00  0.00    +0.000 A 
ATOM      2  C   UNL     1      45.396   2.147   8.877  0.00  0.00    +0.000 A 
ATOM      3  C   UNL     1      44.991   2.910   9.977  0.00  0.00    +0.000 A 
ATOM      4  C   UNL     1      45.128   4.302   9.955  0.00  0.00    +0.000 A 
ATOM      5  C   UNL     1      45.730   4.849   8.828  0.00  0.00    +0.000 A 
ATOM      6  N   UNL     1      46.127   4.135   7.745  0.00  0.00    +0.000 NA
ENDROOT
BRANCH   1   7
ATOM      7  C   UNL     1      46.341   1.978   6.536  0.00  0.00    +0.000 C 
BRANCH   7   8
ATOM      8  N   UNL     1      47.121   0.774   6.903  0.00  0.00    +0.000 NA
ATOM      9  H   UNL     1      47.781   0.609   6.134  0.00  0.00    +0.000 HD
ATOM     10  H   UNL     1      46.465  -0.013   6.827  0.00  0.00    +0.000 HD
ENDBRANCH   7   8
BRANCH   7  11
ATOM     11  C   UNL     1      47.142   2.828   5.502  0.00  0.00    +0.000 C 
BRANCH  11  12
ATOM     12  N   UNL     1      48.454   2.231   5.183  0.00  0.00    +0.000 NA
ATOM     13  H   UNL     1      48.303   1.264   4.882  0.00  0.00    +0.000 HD
ATOM     14  H   UNL     1      49.017   2.180   6.031  0.00  0.00    +0.000 HD
ENDBRANCH  11  12
ENDBRANCH   7  11
ENDBRANCH   1   7
BRANCH   4  15
ATOM     15  C   UNL     1      44.633   5.178  11.081  0.00  0.00    +0.000 C 
BRANCH  15  16
ATOM     16  N   UNL     1      45.541   5.207  12.226  0.00  0.00    +0.000 N 
ATOM     17  C   UNL     1      45.267   4.596  13.425  0.00  0.00    +0.000 A 
ATOM     18  C   UNL     1      46.406   4.673  14.192  0.00  0.00    +0.000 A 
ATOM     19  C   UNL     1      47.133   5.771  13.656  0.00  0.00    +0.000 A 
ATOM     20  C   UNL     1      48.139   6.588  14.189  0.00  0.00    +0.000 A 
ATOM     21  C   UNL     1      48.573   7.615  13.374  0.00  0.00    +0.000 A 
ATOM     22  F   UNL     1      49.402   8.531  13.899  0.00  0.00    +0.000 F 
ATOM     23  N   UNL     1      48.194   7.789  12.090  0.00  0.00    +0.000 NA
ATOM     24  C   UNL     1      47.250   6.976  11.569  0.00  0.00    +0.000 A 
ATOM     25  C   UNL     1      46.647   6.020  12.377  0.00  0.00    +0.000 A 
ENDBRANCH  15  16
ENDBRANCH   4  15
TORSDOF 6
ENDMDL
MODEL 5
REMARK VINA RESULT:    -6.667      2.779      7.001
REMARK INTER + INTRA:          -9.199
REMARK INTER:                  -9.357
REMARK INTRA:                   0.159
REMARK UNBOUND:                -0.582
REMARK  Name = 
REMARK  6 active torsions:
REMARK  status: ('A' for Active; 'I' for Inactive)
REMARK    1  A    between atoms: N_1  and  C_2
REMARK    2  A    between atoms: C_2  and  C_3
REMARK    3  A    between atoms: C_3  and  N_4
REMARK    4  A    between atoms: C_3  and  C_5
REMARK    5  A    between atoms: C_8  and  C_9
REMARK    6  A    between atoms: C_9  and  N_10
REMARK                            x       y       z     vdW  Elec       q    Type
REMARK                         _______ _______ _______ _____ _____    ______ ____
ROOT
ATOM      1  C   UNL     1      47.531   5.079  15.315  0.00  0.00    +0.000 A 
ATOM      2  C   UNL     1      47.932   6.203  14.594  0.00  0.00    +0.000 A 
ATOM      3  C   UNL     1      47.263   6.529  13.409  0.00  0.00    +0.000 A 
ATOM      4  C   UNL     1      46.208   5.731  12.956  0.00  0.00    +0.000 A 
ATOM      5  C   UNL     1      45.921   4.597  13.706  0.00  0.00    +0.000 A 
ATOM      6  N   UNL     1      46.548   4.259  14.861  0.00  0.00    +0.000 NA
ENDROOT
BRANCH   1   7
ATOM      7  C   UNL     1      48.221   4.732  16.632  0.00  0.00    +0.000 C 
BRANCH   7   8
ATOM      8  N   UNL     1      49.663   5.073  16.610  0.00  0.00    +0.000 NA
ATOM      9  H   UNL     1      50.158   4.226  16.307  0.00  0.00    +0.000 HD
ATOM     10  H   UNL     1      49.937   5.171  17.595  0.00  0.00    +0.000 HD
ENDBRANCH   7   8
BRANCH   7  11
ATOM     11  C   UNL     1      48.044   3.231  17.017  0.00  0.00    +0.000 C 
BRANCH  11  12
ATOM     12  N   UNL     1      46.724   2.960  17.622  0.00  0.00    +0.000 NA
ATOM     13  H   UNL     1      46.413   3.806  18.106  0.00  0.00    +0.000 HD
ATOM     14  H   UNL     1      46.822   2.242  18.339  0.00  0.00    +0.000 HD
ENDBRANCH  11  12
ENDBRANCH   7  11
ENDBRANCH   1   7
BRANCH   4  15
ATOM     15  C   UNL     1      45.401   6.081  11.729  0.00  0.00    +0.000 C 
BRANCH  15  16
ATOM     16  N   UNL     1      44.942   4.906  10.991  0.00  0.00    +0.000 N 
ATOM     17  C   UNL     1      44.306   3.841  11.581  0.00  0.00    +0.000 A 
ATOM     18  C   UNL     1      43.863   3.020  10.571  0.00  0.00    +0.000 A 
ATOM     19  C   UNL     1      44.694   3.329   9.458  0.00  0.00    +0.000 A 
ATOM     20  C   UNL     1      45.015   2.619   8.293  0.00  0.00    +0.000 A 
ATOM     21  C   UNL     1      45.923   3.228   7.451  0.00  0.00    +0.000 A 
ATOM     22  F   UNL     1      46.399   2.518   6.416  0.00  0.00    +0.000 F 
ATOM     23  N   UNL     1      46.400   4.481   7.611  0.00  0.00    +0.000 NA
ATOM     24  C   UNL     1      46.059   5.175   8.719  0.00  0.00    +0.000 A 
ATOM     25  C   UNL     1      45.278   4.568   9.694  0.00  0.00    +0.000 A 
ENDBRANCH  15  16
ENDBRANCH   4  15
TORSDOF 6
ENDMDL
MODEL 6
REMARK VINA RESULT:    -6.631      2.275      3.294
REMARK INTER + INTRA:          -9.152
REMARK INTER:                  -8.619
REMARK INTRA:                  -0.533
REMARK UNBOUND:                -0.582
REMARK  Name = 
REMARK  6 active torsions:
REMARK  status: ('A' for Active; 'I' for Inactive)
REMARK    1  A    between atoms: N_1  and  C_2
REMARK    2  A    between atoms: C_2  and  C_3
REMARK    3  A    between atoms: C_3  and  N_4
REMARK    4  A    between atoms: C_3  and  C_5
REMARK    5  A    between atoms: C_8  and  C_9
REMARK    6  A    between atoms: C_9  and  N_10
REMARK                            x       y       z     vdW  Elec       q    Type
REMARK                         _______ _______ _______ _____ _____    ______ ____
ROOT
ATOM      1  C   UNL     1      45.755   2.697   8.013  0.00  0.00    +0.000 A 
ATOM      2  C   UNL     1      45.095   2.014   9.034  0.00  0.00    +0.000 A 
ATOM      3  C   UNL     1      44.505   2.742  10.072  0.00  0.00    +0.000 A 
ATOM      4  C   UNL     1      44.582   4.139  10.082  0.00  0.00    +0.000 A 
ATOM      5  C   UNL     1      45.313   4.727   9.058  0.00  0.00    +0.000 A 
ATOM      6  N   UNL     1      45.891   4.048   8.035  0.00  0.00    +0.000 NA
ENDROOT
BRANCH   1   7
ATOM      7  C   UNL     1      46.368   1.921   6.849  0.00  0.00    +0.000 C 
BRANCH   7   8
ATOM      8  N   UNL     1      47.106   0.722   7.309  0.00  0.00    +0.000 NA
ATOM      9  H   UNL     1      46.627   0.392   8.155  0.00  0.00    +0.000 HD
ATOM     10  H   UNL     1      48.005   1.072   7.664  0.00  0.00    +0.000 HD
ENDBRANCH   7   8
BRANCH   7  11
ATOM     11  C   UNL     1      47.304   2.809   5.973  0.00  0.00    +0.000 C 
BRANCH  11  12
ATOM     12  N   UNL     1      48.734   2.537   6.226  0.00  0.00    +0.000 NA
ATOM     13  H   UNL     1      49.281   2.972   5.479  0.00  0.00    +0.000 HD
ATOM     14  H   UNL     1      48.903   1.534   6.157  0.00  0.00    +0.000 HD
ENDBRANCH  11  12
ENDBRANCH   7  11
ENDBRANCH   1   7
BRANCH   4  15
ATOM     15  C   UNL     1      43.894   4.976  11.134  0.00  0.00    +0.000 C 
BRANCH  15  16
ATOM     16  N   UNL     1      44.800   5.903  11.810  0.00  0.00    +0.000 N 
ATOM     17  C   UNL     1      45.559   5.561  12.902  0.00  0.00    +0.000 A 
ATOM     18  C   UNL     1      46.412   6.610  13.152  0.00  0.00    +0.000 A 
ATOM     19  C   UNL     1      45.785   7.740  12.555  0.00  0.00    +0.000 A 
ATOM     20  C   UNL     1      45.924   9.118  12.767  0.00  0.00    +0.000 A 
ATOM     21  C   UNL     1      45.087   9.926  12.026  0.00  0.00    +0.000 A 
ATOM     22  F   UNL     1      45.052  11.236  12.317  0.00  0.00    +0.000 F 
ATOM     23  N   UNL     1      44.266   9.490  11.046  0.00  0.00    +0.000 NA
ATOM     24  C   UNL     1      44.163   8.162  10.821  0.00  0.00    +0.000 A 
ATOM     25  C   UNL     1      44.852   7.273  11.636  0.00  0.00    +0.000 A 
ENDBRANCH  15  16
ENDBRANCH   4  15
TORSDOF 6
ENDMDL
MODEL 7
REMARK VINA RESULT:    -6.615      2.964      6.790
REMARK INTER + INTRA:          -9.131
REMARK INTER:                  -8.443
REMARK INTRA:                  -0.688
REMARK UNBOUND:                -0.582
REMARK  Name = 
REMARK  6 active torsions:
REMARK  status: ('A' for Active; 'I' for Inactive)
REMARK    1  A    between atoms: N_1  and  C_2
REMARK    2  A    between atoms: C_2  and  C_3
REMARK    3  A    between atoms: C_3  and  N_4
REMARK    4  A    between atoms: C_3  and  C_5
REMARK    5  A    between atoms: C_8  and  C_9
REMARK    6  A    between atoms: C_9  and  N_10
REMARK                            x       y       z     vdW  Elec       q    Type
REMARK                         _______ _______ _______ _____ _____    ______ ____
ROOT
ATOM      1  C   UNL     1      47.503   7.380  13.346  0.00  0.00    +0.000 A 
ATOM      2  C   UNL     1      47.203   6.039  13.581  0.00  0.00    +0.000 A 
ATOM      3  C   UNL     1      45.953   5.542  13.199  0.00  0.00    +0.000 A 
ATOM      4  C   UNL     1      45.018   6.385  12.591  0.00  0.00    +0.000 A 
ATOM      5  C   UNL     1      45.381   7.719  12.454  0.00  0.00    +0.000 A 
ATOM      6  N   UNL     1      46.588   8.229  12.810  0.00  0.00    +0.000 NA
ENDROOT
BRANCH   1   7
ATOM      7  C   UNL     1      48.878   7.931  13.718  0.00  0.00    +0.000 C 
BRANCH   7   8
ATOM      8  N   UNL     1      49.782   6.871  14.222  0.00  0.00    +0.000 NA
ATOM      9  H   UNL     1      49.208   6.027  14.333  0.00  0.00    +0.000 HD
ATOM     10  H   UNL     1      50.005   7.137  15.189  0.00  0.00    +0.000 HD
ENDBRANCH   7   8
BRANCH   7  11
ATOM     11  C   UNL     1      48.791   9.086  14.761  0.00  0.00    +0.000 C 
BRANCH  11  12
ATOM     12  N   UNL     1      47.504   9.092  15.485  0.00  0.00    +0.000 NA
ATOM     13  H   UNL     1      47.214  10.065  15.617  0.00  0.00    +0.000 HD
ATOM     14  H   UNL     1      47.640   8.706  16.419  0.00  0.00    +0.000 HD
ENDBRANCH  11  12
ENDBRANCH   7  11
ENDBRANCH   1   7
BRANCH   4  15
ATOM     15  C   UNL     1      43.686   5.882  12.086  0.00  0.00    +0.000 C 
BRANCH  15  16
ATOM     16  N   UNL     1      43.765   4.546  11.498  0.00  0.00    +0.000 N 
ATOM     17  C   UNL     1      43.479   3.395  12.191  0.00  0.00    +0.000 A 
ATOM     18  C   UNL     1      43.480   2.361  11.284  0.00  0.00    +0.000 A 
ATOM     19  C   UNL     1      44.278   2.827  10.202  0.00  0.00    +0.000 A 
ATOM     20  C   UNL     1      44.968   2.158   9.182  0.00  0.00    +0.000 A 
ATOM     21  C   UNL     1      45.699   2.958   8.327  0.00  0.00    +0.000 A 
ATOM     22  F   UNL     1      46.517   2.361   7.447  0.00  0.00    +0.000 F 
ATOM     23  N   UNL     1      45.681   4.309   8.335  0.00  0.00    +0.000 NA
ATOM     24  C   UNL     1      44.984   4.949   9.299  0.00  0.00    +0.000 A 
ATOM     25  C   UNL     1      44.354   4.212  10.293  0.00  0.00    +0.000 A 
ENDBRANCH  15  16
ENDBRANCH   4  15
TORSDOF 6
ENDMDL
MODEL 8
REMARK VINA RESULT:    -6.478      1.788      2.247
REMARK INTER + INTRA:          -8.954
REMARK INTER:                  -8.338
REMARK INTRA:                  -0.616
REMARK UNBOUND:                -0.582
REMARK  Name = 
REMARK  6 active torsions:
REMARK  status: ('A' for Active; 'I' for Inactive)
REMARK    1  A    between atoms: N_1  and  C_2
REMARK    2  A    between atoms: C_2  and  C_3
REMARK    3  A    between atoms: C_3  and  N_4
REMARK    4  A    between atoms: C_3  and  C_5
REMARK    5  A    between atoms: C_8  and  C_9
REMARK    6  A    between atoms: C_9  and  N_10
REMARK                            x       y       z     vdW  Elec       q    Type
REMARK                         _______ _______ _______ _____ _____    ______ ____
ROOT
ATOM      1  C   UNL     1      45.494   3.312   8.843  0.00  0.00    +0.000 A 
ATOM      2  C   UNL     1      44.801   2.751   9.915  0.00  0.00    +0.000 A 
ATOM      3  C   UNL     1      44.308   3.586  10.922  0.00  0.00    +0.000 A 
ATOM      4  C   UNL     1      44.514   4.968  10.852  0.00  0.00    +0.000 A 
ATOM      5  C   UNL     1      45.269   5.429   9.781  0.00  0.00    +0.000 A 
ATOM      6  N   UNL     1      45.755   4.644   8.786  0.00  0.00    +0.000 NA
ENDROOT
BRANCH   1   7
ATOM      7  C   UNL     1      46.002   2.420   7.712  0.00  0.00    +0.000 C 
BRANCH   7   8
ATOM      8  N   UNL     1      46.351   1.063   8.191  0.00  0.00    +0.000 NA
ATOM      9  H   UNL     1      47.266   0.836   7.782  0.00  0.00    +0.000 HD
ATOM     10  H   UNL     1      45.708   0.426   7.704  0.00  0.00    +0.000 HD
ENDBRANCH   7   8
BRANCH   7  11
ATOM     11  C   UNL     1      47.223   3.045   6.968  0.00  0.00    +0.000 C 
BRANCH  11  12
ATOM     12  N   UNL     1      46.821   4.116   6.034  0.00  0.00    +0.000 NA
ATOM     13  H   UNL     1      47.423   4.927   6.198  0.00  0.00    +0.000 HD
ATOM     14  H   UNL     1      45.872   4.417   6.253  0.00  0.00    +0.000 HD
ENDBRANCH  11  12
ENDBRANCH   7  11
ENDBRANCH   1   7
BRANCH   4  15
ATOM     15  C   UNL     1      43.935   5.922  11.869  0.00  0.00    +0.000 C 
BRANCH  15  16
ATOM     16  N   UNL     1      44.882   6.952  12.291  0.00  0.00    +0.000 N 
ATOM     17  C   UNL     1      44.857   8.243  11.821  0.00  0.00    +0.000 A 
ATOM     18  C   UNL     1      45.761   8.966  12.563  0.00  0.00    +0.000 A 
ATOM     19  C   UNL     1      46.668   7.997  13.076  0.00  0.00    +0.000 A 
ATOM     20  C   UNL     1      47.979   8.095  13.563  0.00  0.00    +0.000 A 
ATOM     21  C   UNL     1      48.574   6.904  13.927  0.00  0.00    +0.000 A 
ATOM     22  F   UNL     1      49.882   6.918  14.229  0.00  0.00    +0.000 F 
ATOM     23  N   UNL     1      47.945   5.710  13.967  0.00  0.00    +0.000 NA
ATOM     24  C   UNL     1      46.668   5.628  13.531  0.00  0.00    +0.000 A 
ATOM     25  C   UNL     1      46.053   6.753  12.997  0.00  0.00    +0.000 A 
ENDBRANCH  15  16
ENDBRANCH   4  15
TORSDOF 6
ENDMDL
MODEL 9
REMARK VINA RESULT:    -5.853      3.735      5.852
REMARK INTER + INTRA:          -8.146
REMARK INTER:                  -7.363
REMARK INTRA:                  -0.783
REMARK UNBOUND:                -0.582
REMARK  Name = 
REMARK  6 active torsions:
REMARK  status: ('A' for Active; 'I' for Inactive)
REMARK    1  A    between atoms: N_1  and  C_2
REMARK    2  A    between atoms: C_2  and  C_3
REMARK    3  A    between atoms: C_3  and  N_4
REMARK    4  A    between atoms: C_3  and  C_5
REMARK    5  A    between atoms: C_8  and  C_9
REMARK    6  A    between atoms: C_9  and  N_10
REMARK                            x       y       z     vdW  Elec       q    Type
REMARK                         _______ _______ _______ _____ _____    ______ ____
ROOT
ATOM      1  C   UNL     1      45.065   5.268  11.788  0.00  0.00    +0.000 A 
ATOM      2  C   UNL     1      45.716   6.342  11.181  0.00  0.00    +0.000 A 
ATOM      3  C   UNL     1      46.912   6.815  11.732  0.00  0.00    +0.000 A 
ATOM      4  C   UNL     1      47.442   6.216  12.879  0.00  0.00    +0.000 A 
ATOM      5  C   UNL     1      46.692   5.195  13.448  0.00  0.00    +0.000 A 
ATOM      6  N   UNL     1      45.533   4.711  12.934  0.00  0.00    +0.000 NA
ENDROOT
BRANCH   1   7
ATOM      7  C   UNL     1      43.782   4.711  11.177  0.00  0.00    +0.000 C 
BRANCH   7   8
ATOM      8  N   UNL     1      43.734   4.909   9.710  0.00  0.00    +0.000 NA
ATOM      9  H   UNL     1      42.901   5.478   9.519  0.00  0.00    +0.000 HD
ATOM     10  H   UNL     1      43.492   3.991   9.316  0.00  0.00    +0.000 HD
ENDBRANCH   7   8
BRANCH   7  11
ATOM     11  C   UNL     1      42.502   5.319  11.830  0.00  0.00    +0.000 C 
BRANCH  11  12
ATOM     12  N   UNL     1      42.624   5.437  13.297  0.00  0.00    +0.000 NA
ATOM     13  H   UNL     1      43.454   4.915  13.593  0.00  0.00    +0.000 HD
ATOM     14  H   UNL     1      41.828   4.980  13.740  0.00  0.00    +0.000 HD
ENDBRANCH  11  12
ENDBRANCH   7  11
ENDBRANCH   1   7
BRANCH   4  15
ATOM     15  C   UNL     1      48.769   6.634  13.466  0.00  0.00    +0.000 C 
BRANCH  15  16
ATOM     16  N   UNL     1      48.631   7.416  14.693  0.00  0.00    +0.000 N 
ATOM     17  C   UNL     1      48.615   8.790  14.719  0.00  0.00    +0.000 A 
ATOM     18  C   UNL     1      48.290   9.170  16.000  0.00  0.00    +0.000 A 
ATOM     19  C   UNL     1      48.643   8.057  16.812  0.00  0.00    +0.000 A 
ATOM     20  C   UNL     1      48.919   7.937  18.180  0.00  0.00    +0.000 A 
ATOM     21  C   UNL     1      49.293   6.679  18.609  0.00  0.00    +0.000 A 
ATOM     22  F   UNL     1      49.739   6.547  19.868  0.00  0.00    +0.000 F 
ATOM     23  N   UNL     1      49.277   5.569  17.840  0.00  0.00    +0.000 NA
ATOM     24  C   UNL     1      48.975   5.685  16.528  0.00  0.00    +0.000 A 
ATOM     25  C   UNL     1      48.746   6.943  15.987  0.00  0.00    +0.000 A 
ENDBRANCH  15  16
ENDBRANCH   4  15
TORSDOF 6
ENDMDL
