MODEL 1
REMARK VINA RESULT:    -8.196      0.000      0.000
REMARK INTER + INTRA:         -11.658
REMARK INTER:                 -10.832
REMARK INTRA:                  -0.826
REMARK UNBOUND:                -0.826
REMARK  Name = 
REMARK  6 active torsions:
REMARK  status: ('A' for Active; 'I' for Inactive)
REMARK    1  A    between atoms: C_2  and  C_20
REMARK    2  A    between atoms: N_3  and  C_4
REMARK    3  A    between atoms: C_4  and  C_5
REMARK    4  A    between atoms: C_8  and  C_9
REMARK    5  A    between atoms: C_9  and  O_10
REMARK    6  A    between atoms: C_9  and  C_11
REMARK                            x       y       z     vdW  Elec       q    Type
REMARK                         _______ _______ _______ _____ _____    ______ ____
ROOT
ATOM      1  C   UNL     1      47.363   8.293  13.592  0.00  0.00    +0.000 C 
ENDROOT
BRANCH   1   2
ATOM      2  C   UNL     1      46.310   7.440  12.935  0.00  0.00    +0.000 A 
ATOM      3  C   UNL     1      45.414   8.006  12.023  0.00  0.00    +0.000 A 
ATOM      4  C   UNL     1      44.476   7.211  11.361  0.00  0.00    +0.000 A 
ATOM      5  C   UNL     1      44.412   5.828  11.595  0.00  0.00    +0.000 A 
ATOM      6  C   UNL     1      45.264   5.276  12.563  0.00  0.00    +0.000 A 
ATOM      7  C   UNL     1      46.202   6.073  13.226  0.00  0.00    +0.000 A 
BRANCH   5   8
ATOM      8  C   UNL     1      43.379   5.006  10.854  0.00  0.00    +0.000 C 
BRANCH   8   9
ATOM      9  C   UNL     1      43.829   3.558  10.527  0.00  0.00    +0.000 C 
ATOM     10  O   UNL     1      43.297   2.606  11.109  0.00  0.00    +0.000 OA
ATOM     11  N   UNL     1      44.795   3.363   9.561  0.00  0.00    +0.000 N 
ATOM     12  C   UNL     1      45.533   4.360   8.807  0.00  0.00    +0.000 C 
ATOM     13  C   UNL     1      45.772   3.668   7.477  0.00  0.00    +0.000 C 
ATOM     14  C   UNL     1      46.016   2.217   7.878  0.00  0.00    +0.000 C 
ATOM     15  C   UNL     1      45.177   2.023   9.140  0.00  0.00    +0.000 C 
ENDBRANCH   8   9
BRANCH   8  16
ATOM     16  O   UNL     1      42.192   5.005  11.649  0.00  0.00    +0.000 OA
ATOM     17  H   UNL     1      42.087   5.926  11.952  0.00  0.00    +0.000 HD
ENDBRANCH   8  16
ENDBRANCH   5   8
ENDBRANCH   1   2
BRANCH   1  20
ATOM     18  O   UNL     1      49.810   6.997  14.070  0.00  0.00    +0.000 OA
ATOM     19  C   UNL     1      49.027   7.153  15.004  0.00  0.00    +0.000 C 
ATOM     20  N   UNL     1      47.800   7.738  14.845  0.00  0.00    +0.000 N 
ATOM     21  H   UNL     1      47.248   7.979  15.662  0.00  0.00    +0.000 HD
BRANCH  19  22
ATOM     22  C   UNL     1      49.349   6.671  16.353  0.00  0.00    +0.000 A 
ATOM     23  C   UNL     1      50.110   7.463  17.203  0.00  0.00    +0.000 A 
ATOM     24  S   UNL     1      50.362   6.769  18.740  0.00  0.00    +0.000 S 
ATOM     25  C   UNL     1      49.434   5.402  18.334  0.00  0.00    +0.000 A 
ATOM     26  N   UNL     1      49.205   4.420  19.246  0.00  0.00    +0.000 NA
ATOM     27  C   UNL     1      48.454   3.463  18.820  0.00  0.00    +0.000 A 
ATOM     28  N   UNL     1      47.924   3.389  17.554  0.00  0.00    +0.000 N 
ATOM     29  C   UNL     1      48.212   4.306  16.575  0.00  0.00    +0.000 A 
ATOM     30  O   UNL     1      47.871   4.119  15.411  0.00  0.00    +0.000 OA
ATOM     31  C   UNL     1      48.984   5.447  17.028  0.00  0.00    +0.000 A 
ATOM     32  H   UNL     1      47.385   2.584  17.269  0.00  0.00    +0.000 HD
ENDBRANCH  19  22
ENDBRANCH   1  20
TORSDOF 6
ENDMDL
MODEL 2
REMARK VINA RESULT:    -7.089      3.714      9.325
REMARK INTER + INTRA:         -10.195
REMARK INTER:                  -9.403
REMARK INTRA:                  -0.792
REMARK UNBOUND:                -0.826
REMARK  Name = 
REMARK  6 active torsions:
REMARK  status: ('A' for Active; 'I' for Inactive)
REMARK    1  A    between atoms: C_2  and  C_20
REMARK    2  A    between atoms: N_3  and  C_4
REMARK    3  A    between atoms: C_4  and  C_5
REMARK    4  A    between atoms: C_8  and  C_9
REMARK    5  A    between atoms: C_9  and  O_10
REMARK    6  A    between atoms: C_9  and  C_11
REMARK                            x       y       z     vdW  Elec       q    Type
REMARK                         _______ _______ _______ _____ _____    ______ ____
ROOT
ATOM      1  C   UNL     1      47.138   3.352  16.853  0.00  0.00    +0.000 C 
ENDROOT
BRANCH   1   2
ATOM      2  C   UNL     1      48.621   3.301  17.112  0.00  0.00    +0.000 A 
ATOM      3  C   UNL     1      49.307   4.454  17.507  0.00  0.00    +0.000 A 
ATOM      4  C   UNL     1      50.669   4.402  17.811  0.00  0.00    +0.000 A 
ATOM      5  C   UNL     1      51.379   3.194  17.729  0.00  0.00    +0.000 A 
ATOM      6  C   UNL     1      50.704   2.055  17.262  0.00  0.00    +0.000 A 
ATOM      7  C   UNL     1      49.341   2.109  16.958  0.00  0.00    +0.000 A 
BRANCH   5   8
ATOM      8  C   UNL     1      52.854   3.185  18.069  0.00  0.00    +0.000 C 
BRANCH   8   9
ATOM      9  C   UNL     1      53.332   4.424  18.869  0.00  0.00    +0.000 C 
ATOM     10  O   UNL     1      53.171   4.461  20.094  0.00  0.00    +0.000 OA
ATOM     11  N   UNL     1      53.964   5.449  18.195  0.00  0.00    +0.000 N 
ATOM     12  C   UNL     1      54.209   5.576  16.770  0.00  0.00    +0.000 C 
ATOM     13  C   UNL     1      55.515   6.350  16.720  0.00  0.00    +0.000 C 
ATOM     14  C   UNL     1      55.387   7.325  17.886  0.00  0.00    +0.000 C 
ATOM     15  C   UNL     1      54.527   6.585  18.910  0.00  0.00    +0.000 C 
ENDBRANCH   8   9
BRANCH   8  16
ATOM     16  O   UNL     1      53.112   1.980  18.791  0.00  0.00    +0.000 OA
ATOM     17  H   UNL     1      52.235   1.654  19.066  0.00  0.00    +0.000 HD
ENDBRANCH   8  16
ENDBRANCH   5   8
ENDBRANCH   1   2
BRANCH   1  20
ATOM     18  O   UNL     1      47.200   3.076  14.057  0.00  0.00    +0.000 OA
ATOM     19  C   UNL     1      46.817   4.138  14.541  0.00  0.00    +0.000 C 
ATOM     20  N   UNL     1      46.795   4.366  15.891  0.00  0.00    +0.000 N 
ATOM     21  H   UNL     1      46.337   5.195  16.254  0.00  0.00    +0.000 HD
BRANCH  19  22
ATOM     22  C   UNL     1      46.399   5.255  13.686  0.00  0.00    +0.000 A 
ATOM     23  C   UNL     1      47.272   6.312  13.460  0.00  0.00    +0.000 A 
ATOM     24  S   UNL     1      46.643   7.507  12.419  0.00  0.00    +0.000 S 
ATOM     25  C   UNL     1      45.196   6.637  12.206  0.00  0.00    +0.000 A 
ATOM     26  N   UNL     1      44.225   7.092  11.372  0.00  0.00    +0.000 NA
ATOM     27  C   UNL     1      43.200   6.316  11.272  0.00  0.00    +0.000 A 
ATOM     28  N   UNL     1      43.051   5.130  11.949  0.00  0.00    +0.000 N 
ATOM     29  C   UNL     1      43.959   4.684  12.875  0.00  0.00    +0.000 A 
ATOM     30  O   UNL     1      43.715   3.717  13.590  0.00  0.00    +0.000 OA
ATOM     31  C   UNL     1      45.170   5.478  12.961  0.00  0.00    +0.000 A 
ATOM     32  H   UNL     1      42.199   4.594  11.865  0.00  0.00    +0.000 HD
ENDBRANCH  19  22
ENDBRANCH   1  20
TORSDOF 6
ENDMDL
MODEL 3
REMARK VINA RESULT:    -6.914      2.265      3.010
REMARK INTER + INTRA:          -9.963
REMARK INTER:                  -8.976
REMARK INTRA:                  -0.987
REMARK UNBOUND:                -0.826
REMARK  Name = 
REMARK  6 active torsions:
REMARK  status: ('A' for Active; 'I' for Inactive)
REMARK    1  A    between atoms: C_2  and  C_20
REMARK    2  A    between atoms: N_3  and  C_4
REMARK    3  A    between atoms: C_4  and  C_5
REMARK    4  A    between atoms: C_8  and  C_9
REMARK    5  A    between atoms: C_9  and  O_10
REMARK    6  A    between atoms: C_9  and  C_11
REMARK                            x       y       z     vdW  Elec       q    Type
REMARK                         _______ _______ _______ _____ _____    ______ ____
ROOT
ATOM      1  C   UNL     1      48.887   8.133  14.733  0.00  0.00    +0.000 C 
ENDROOT
BRANCH   1   2
ATOM      2  C   UNL     1      47.796   7.792  13.752  0.00  0.00    +0.000 A 
ATOM      3  C   UNL     1      47.815   6.568  13.076  0.00  0.00    +0.000 A 
ATOM      4  C   UNL     1      46.774   6.217  12.213  0.00  0.00    +0.000 A 
ATOM      5  C   UNL     1      45.688   7.082  12.006  0.00  0.00    +0.000 A 
ATOM      6  C   UNL     1      45.709   8.339  12.630  0.00  0.00    +0.000 A 
ATOM      7  C   UNL     1      46.752   8.689  13.493  0.00  0.00    +0.000 A 
BRANCH   5   8
ATOM      8  C   UNL     1      44.582   6.659  11.063  0.00  0.00    +0.000 C 
BRANCH   8   9
ATOM      9  C   UNL     1      44.169   5.170  11.190  0.00  0.00    +0.000 C 
ATOM     10  O   UNL     1      43.446   4.814  12.127  0.00  0.00    +0.000 OA
ATOM     11  N   UNL     1      44.590   4.277  10.226  0.00  0.00    +0.000 N 
ATOM     12  C   UNL     1      45.454   4.520   9.086  0.00  0.00    +0.000 C 
ATOM     13  C   UNL     1      44.930   3.541   8.050  0.00  0.00    +0.000 C 
ATOM     14  C   UNL     1      44.559   2.318   8.884  0.00  0.00    +0.000 C 
ATOM     15  C   UNL     1      44.144   2.892  10.239  0.00  0.00    +0.000 C 
ENDBRANCH   8   9
BRANCH   8  16
ATOM     16  O   UNL     1      43.469   7.521  11.304  0.00  0.00    +0.000 OA
ATOM     17  H   UNL     1      42.756   7.184  10.730  0.00  0.00    +0.000 HD
ENDBRANCH   8  16
ENDBRANCH   5   8
ENDBRANCH   1   2
BRANCH   1  20
ATOM     18  O   UNL     1      48.380   7.177  17.326  0.00  0.00    +0.000 OA
ATOM     19  C   UNL     1      49.129   6.537  16.593  0.00  0.00    +0.000 C 
ATOM     20  N   UNL     1      49.459   6.956  15.332  0.00  0.00    +0.000 N 
ATOM     21  H   UNL     1      49.959   6.331  14.709  0.00  0.00    +0.000 HD
BRANCH  19  22
ATOM     22  C   UNL     1      49.760   5.294  17.052  0.00  0.00    +0.000 A 
ATOM     23  C   UNL     1      48.980   4.165  17.269  0.00  0.00    +0.000 A 
ATOM     24  S   UNL     1      49.874   2.802  17.766  0.00  0.00    +0.000 S 
ATOM     25  C   UNL     1      51.339   3.662  17.675  0.00  0.00    +0.000 A 
ATOM     26  N   UNL     1      52.525   3.049  17.931  0.00  0.00    +0.000 NA
ATOM     27  C   UNL     1      53.559   3.805  17.785  0.00  0.00    +0.000 A 
ATOM     28  N   UNL     1      53.512   5.130  17.424  0.00  0.00    +0.000 N 
ATOM     29  C   UNL     1      52.335   5.812  17.255  0.00  0.00    +0.000 A 
ATOM     30  O   UNL     1      52.322   7.031  17.108  0.00  0.00    +0.000 OA
ATOM     31  C   UNL     1      51.145   4.985  17.323  0.00  0.00    +0.000 A 
ATOM     32  H   UNL     1      54.358   5.679  17.378  0.00  0.00    +0.000 HD
ENDBRANCH  19  22
ENDBRANCH   1  20
TORSDOF 6
ENDMDL
MODEL 4
REMARK VINA RESULT:    -6.872      3.003      4.496
REMARK INTER + INTRA:          -9.907
REMARK INTER:                  -8.966
REMARK INTRA:                  -0.941
REMARK UNBOUND:                -0.826
REMARK  Name = 
REMARK  6 active torsions:
REMARK  status: ('A' for Active; 'I' for Inactive)
REMARK    1  A    between atoms: C_2  and  C_20
REMARK    2  A    between atoms: N_3  and  C_4
REMARK    3  A    between atoms: C_4  and  C_5
REMARK    4  A    between atoms: C_8  and  C_9
REMARK    5  A    between atoms: C_9  and  O_10
REMARK    6  A    between atoms: C_9  and  C_11
REMARK                            x       y       z     vdW  Elec       q    Type
REMARK                         _______ _______ _______ _____ _____    ______ ____
ROOT
ATOM      1  C   UNL     1      47.399   6.522  14.212  0.00  0.00    +0.000 C 
ENDROOT
BRANCH   1   2
ATOM      2  C   UNL     1      46.669   6.007  13.000  0.00  0.00    +0.000 A 
ATOM      3  C   UNL     1      46.782   6.672  11.774  0.00  0.00    +0.000 A 
ATOM      4  C   UNL     1      46.160   6.166  10.631  0.00  0.00    +0.000 A 
ATOM      5  C   UNL     1      45.409   4.981  10.685  0.00  0.00    +0.000 A 
ATOM      6  C   UNL     1      45.237   4.357  11.930  0.00  0.00    +0.000 A 
ATOM      7  C   UNL     1      45.861   4.865  13.074  0.00  0.00    +0.000 A 
BRANCH   5   8
ATOM      8  C   UNL     1      44.753   4.470   9.420  0.00  0.00    +0.000 C 
BRANCH   8   9
ATOM      9  C   UNL     1      45.056   2.983   9.099  0.00  0.00    +0.000 C 
ATOM     10  O   UNL     1      44.415   2.092   9.667  0.00  0.00    +0.000 OA
ATOM     11  N   UNL     1      46.016   2.688   8.153  0.00  0.00    +0.000 N 
ATOM     12  C   UNL     1      46.870   3.603   7.418  0.00  0.00    +0.000 C 
ATOM     13  C   UNL     1      47.064   2.890   6.090  0.00  0.00    +0.000 C 
ATOM     14  C   UNL     1      47.147   1.421   6.493  0.00  0.00    +0.000 C 
ATOM     15  C   UNL     1      46.265   1.316   7.737  0.00  0.00    +0.000 C 
ENDBRANCH   8   9
BRANCH   8  16
ATOM     16  O   UNL     1      43.348   4.687   9.556  0.00  0.00    +0.000 OA
ATOM     17  H   UNL     1      42.971   3.808   9.750  0.00  0.00    +0.000 HD
ENDBRANCH   8  16
ENDBRANCH   5   8
ENDBRANCH   1   2
BRANCH   1  20
ATOM     18  O   UNL     1      48.889   8.551  15.461  0.00  0.00    +0.000 OA
ATOM     19  C   UNL     1      49.424   7.872  14.588  0.00  0.00    +0.000 C 
ATOM     20  N   UNL     1      48.756   6.892  13.905  0.00  0.00    +0.000 N 
ATOM     21  H   UNL     1      49.270   6.260  13.301  0.00  0.00    +0.000 HD
BRANCH  19  22
ATOM     22  C   UNL     1      50.817   8.108  14.191  0.00  0.00    +0.000 A 
ATOM     23  C   UNL     1      51.836   7.943  15.122  0.00  0.00    +0.000 A 
ATOM     24  S   UNL     1      53.393   8.224  14.487  0.00  0.00    +0.000 S 
ATOM     25  C   UNL     1      52.764   8.541  12.938  0.00  0.00    +0.000 A 
ATOM     26  N   UNL     1      53.589   8.806  11.892  0.00  0.00    +0.000 NA
ATOM     27  C   UNL     1      52.983   8.987  10.768  0.00  0.00    +0.000 A 
ATOM     28  N   UNL     1      51.620   8.944  10.600  0.00  0.00    +0.000 N 
ATOM     29  C   UNL     1      50.749   8.780  11.646  0.00  0.00    +0.000 A 
ATOM     30  O   UNL     1      49.539   8.924  11.493  0.00  0.00    +0.000 OA
ATOM     31  C   UNL     1      51.382   8.487  12.917  0.00  0.00    +0.000 A 
ATOM     32  H   UNL     1      51.208   9.147   9.701  0.00  0.00    +0.000 HD
ENDBRANCH  19  22
ENDBRANCH   1  20
TORSDOF 6
ENDMDL
MODEL 5
REMARK VINA RESULT:    -6.757      1.885      2.072
REMARK INTER + INTRA:          -9.756
REMARK INTER:                  -8.821
REMARK INTRA:                  -0.935
REMARK UNBOUND:                -0.826
REMARK  Name = 
REMARK  6 active torsions:
REMARK  status: ('A' for Active; 'I' for Inactive)
REMARK    1  A    between atoms: C_2  and  C_20
REMARK    2  A    between atoms: N_3  and  C_4
REMARK    3  A    between atoms: C_4  and  C_5
REMARK    4  A    between atoms: C_8  and  C_9
REMARK    5  A    between atoms: C_9  and  O_10
REMARK    6  A    between atoms: C_9  and  C_11
REMARK                            x       y       z     vdW  Elec       q    Type
REMARK                         _______ _______ _______ _____ _____    ______ ____
ROOT
ATOM      1  C   UNL     1      48.957   8.404  14.251  0.00  0.00    +0.000 C 
ENDROOT
BRANCH   1   2
ATOM      2  C   UNL     1      47.707   7.698  13.797  0.00  0.00    +0.000 A 
ATOM      3  C   UNL     1      46.605   8.434  13.349  0.00  0.00    +0.000 A 
ATOM      4  C   UNL     1      45.466   7.786  12.866  0.00  0.00    +0.000 A 
ATOM      5  C   UNL     1      45.401   6.385  12.819  0.00  0.00    +0.000 A 
ATOM      6  C   UNL     1      46.478   5.650  13.337  0.00  0.00    +0.000 A 
ATOM      7  C   UNL     1      47.618   6.300  13.820  0.00  0.00    +0.000 A 
BRANCH   5   8
ATOM      8  C   UNL     1      44.146   5.726  12.287  0.00  0.00    +0.000 C 
BRANCH   8   9
ATOM      9  C   UNL     1      44.315   4.229  11.922  0.00  0.00    +0.000 C 
ATOM     10  O   UNL     1      44.001   3.360  12.743  0.00  0.00    +0.000 OA
ATOM     11  N   UNL     1      44.782   3.898  10.666  0.00  0.00    +0.000 N 
ATOM     12  C   UNL     1      45.216   4.784   9.601  0.00  0.00    +0.000 C 
ATOM     13  C   UNL     1      44.836   4.015   8.348  0.00  0.00    +0.000 C 
ATOM     14  C   UNL     1      45.117   2.565   8.729  0.00  0.00    +0.000 C 
ATOM     15  C   UNL     1      44.859   2.510  10.235  0.00  0.00    +0.000 C 
ENDBRANCH   8   9
BRANCH   8  16
ATOM     16  O   UNL     1      43.128   5.900  13.274  0.00  0.00    +0.000 OA
ATOM     17  H   UNL     1      43.586   6.274  14.050  0.00  0.00    +0.000 HD
ENDBRANCH   8  16
ENDBRANCH   5   8
ENDBRANCH   1   2
BRANCH   1  20
ATOM     18  O   UNL     1      49.877   8.477  16.905  0.00  0.00    +0.000 OA
ATOM     19  C   UNL     1      50.270   7.579  16.165  0.00  0.00    +0.000 C 
ATOM     20  N   UNL     1      49.900   7.497  14.849  0.00  0.00    +0.000 N 
ATOM     21  H   UNL     1      50.127   6.665  14.314  0.00  0.00    +0.000 HD
BRANCH  19  22
ATOM     22  C   UNL     1      51.208   6.556  16.642  0.00  0.00    +0.000 A 
ATOM     23  C   UNL     1      52.547   6.880  16.819  0.00  0.00    +0.000 A 
ATOM     24  S   UNL     1      53.490   5.588  17.410  0.00  0.00    +0.000 S 
ATOM     25  C   UNL     1      52.135   4.562  17.484  0.00  0.00    +0.000 A 
ATOM     26  N   UNL     1      52.245   3.296  17.964  0.00  0.00    +0.000 NA
ATOM     27  C   UNL     1      51.135   2.642  18.003  0.00  0.00    +0.000 A 
ATOM     28  N   UNL     1      49.923   3.136  17.585  0.00  0.00    +0.000 N 
ATOM     29  C   UNL     1      49.786   4.369  17.001  0.00  0.00    +0.000 A 
ATOM     30  O   UNL     1      48.729   4.710  16.478  0.00  0.00    +0.000 OA
ATOM     31  C   UNL     1      50.990   5.178  17.013  0.00  0.00    +0.000 A 
ATOM     32  H   UNL     1      49.099   2.551  17.594  0.00  0.00    +0.000 HD
ENDBRANCH  19  22
ENDBRANCH   1  20
TORSDOF 6
ENDMDL
MODEL 6
REMARK VINA RESULT:    -6.709      2.134      3.865
REMARK INTER + INTRA:          -9.691
REMARK INTER:                  -9.508
REMARK INTRA:                  -0.183
REMARK UNBOUND:                -0.826
REMARK  Name = 
REMARK  6 active torsions:
REMARK  status: ('A' for Active; 'I' for Inactive)
REMARK    1  A    between atoms: C_2  and  C_20
REMARK    2  A    between atoms: N_3  and  C_4
REMARK    3  A    between atoms: C_4  and  C_5
REMARK    4  A    between atoms: C_8  and  C_9
REMARK    5  A    between atoms: C_9  and  O_10
REMARK    6  A    between atoms: C_9  and  C_11
REMARK                            x       y       z     vdW  Elec       q    Type
REMARK                         _______ _______ _______ _____ _____    ______ ____
ROOT
ATOM      1  C   UNL     1      47.038   4.713  15.275  0.00  0.00    +0.000 C 
ENDROOT
BRANCH   1   2
ATOM      2  C   UNL     1      46.418   4.629  13.905  0.00  0.00    +0.000 A 
ATOM      3  C   UNL     1      46.236   3.387  13.289  0.00  0.00    +0.000 A 
ATOM      4  C   UNL     1      45.604   3.295  12.047  0.00  0.00    +0.000 A 
ATOM      5  C   UNL     1      45.138   4.445  11.390  0.00  0.00    +0.000 A 
ATOM      6  C   UNL     1      45.388   5.694  11.976  0.00  0.00    +0.000 A 
ATOM      7  C   UNL     1      46.020   5.785  13.220  0.00  0.00    +0.000 A 
BRANCH   5   8
ATOM      8  C   UNL     1      44.459   4.296  10.045  0.00  0.00    +0.000 C 
BRANCH   8   9
ATOM      9  C   UNL     1      45.421   4.365   8.831  0.00  0.00    +0.000 C 
ATOM     10  O   UNL     1      45.901   5.452   8.493  0.00  0.00    +0.000 OA
ATOM     11  N   UNL     1      45.749   3.197   8.174  0.00  0.00    +0.000 N 
ATOM     12  C   UNL     1      45.260   1.853   8.423  0.00  0.00    +0.000 C 
ATOM     13  C   UNL     1      46.449   0.986   8.044  0.00  0.00    +0.000 C 
ATOM     14  C   UNL     1      47.042   1.716   6.843  0.00  0.00    +0.000 C 
ATOM     15  C   UNL     1      46.728   3.190   7.098  0.00  0.00    +0.000 C 
ENDBRANCH   8   9
BRANCH   8  16
ATOM     16  O   UNL     1      43.750   3.055  10.066  0.00  0.00    +0.000 OA
ATOM     17  H   UNL     1      44.032   2.614  10.889  0.00  0.00    +0.000 HD
ENDBRANCH   8  16
ENDBRANCH   5   8
ENDBRANCH   1   2
BRANCH   1  20
ATOM     18  O   UNL     1      49.458   4.863  16.694  0.00  0.00    +0.000 OA
ATOM     19  C   UNL     1      49.056   5.859  16.099  0.00  0.00    +0.000 C 
ATOM     20  N   UNL     1      47.868   5.880  15.419  0.00  0.00    +0.000 N 
ATOM     21  H   UNL     1      47.643   6.669  14.823  0.00  0.00    +0.000 HD
BRANCH  19  22
ATOM     22  C   UNL     1      49.813   7.116  16.124  0.00  0.00    +0.000 A 
ATOM     23  C   UNL     1      50.215   7.653  17.340  0.00  0.00    +0.000 A 
ATOM     24  S   UNL     1      51.112   9.095  17.188  0.00  0.00    +0.000 S 
ATOM     25  C   UNL     1      51.024   9.033  15.489  0.00  0.00    +0.000 A 
ATOM     26  N   UNL     1      51.647   9.969  14.725  0.00  0.00    +0.000 NA
ATOM     27  C   UNL     1      51.534   9.780  13.455  0.00  0.00    +0.000 A 
ATOM     28  N   UNL     1      50.836   8.747  12.878  0.00  0.00    +0.000 N 
ATOM     29  C   UNL     1      50.111   7.841  13.610  0.00  0.00    +0.000 A 
ATOM     30  O   UNL     1      49.357   7.041  13.063  0.00  0.00    +0.000 OA
ATOM     31  C   UNL     1      50.275   7.959  15.046  0.00  0.00    +0.000 A 
ATOM     32  H   UNL     1      50.744   8.687  11.874  0.00  0.00    +0.000 HD
ENDBRANCH  19  22
ENDBRANCH   1  20
TORSDOF 6
ENDMDL
MODEL 7
REMARK VINA RESULT:    -6.631      4.296      9.245
REMARK INTER + INTRA:          -9.589
REMARK INTER:                  -8.866
REMARK INTRA:                  -0.723
REMARK UNBOUND:                -0.826
REMARK  Name = 
REMARK  6 active torsions:
REMARK  status: ('A' for Active; 'I' for Inactive)
REMARK    1  A    between atoms: C_2  and  C_20
REMARK    2  A    between atoms: N_3  and  C_4
REMARK    3  A    between atoms: C_4  and  C_5
REMARK    4  A    between atoms: C_8  and  C_9
REMARK    5  A    between atoms: C_9  and  O_10
REMARK    6  A    between atoms: C_9  and  C_11
REMARK                            x       y       z     vdW  Elec       q    Type
REMARK                         _______ _______ _______ _____ _____    ______ ____
ROOT
ATOM      1  C   UNL     1      47.408   3.396  16.969  0.00  0.00    +0.000 C 
ENDROOT
BRANCH   1   2
ATOM      2  C   UNL     1      48.860   3.358  17.367  0.00  0.00    +0.000 A 
ATOM      3  C   UNL     1      49.424   4.422  18.079  0.00  0.00    +0.000 A 
ATOM      4  C   UNL     1      50.752   4.367  18.507  0.00  0.00    +0.000 A 
ATOM      5  C   UNL     1      51.550   3.245  18.234  0.00  0.00    +0.000 A 
ATOM      6  C   UNL     1      51.004   2.212  17.457  0.00  0.00    +0.000 A 
ATOM      7  C   UNL     1      49.674   2.269  17.028  0.00  0.00    +0.000 A 
BRANCH   5   8
ATOM      8  C   UNL     1      52.984   3.229  18.718  0.00  0.00    +0.000 C 
BRANCH   8   9
ATOM      9  C   UNL     1      54.028   2.912  17.617  0.00  0.00    +0.000 C 
ATOM     10  O   UNL     1      54.534   3.835  16.970  0.00  0.00    +0.000 OA
ATOM     11  N   UNL     1      54.397   1.599  17.407  0.00  0.00    +0.000 N 
ATOM     12  C   UNL     1      53.888   0.403  18.054  0.00  0.00    +0.000 C 
ATOM     13  C   UNL     1      55.097  -0.516  18.063  0.00  0.00    +0.000 C 
ATOM     14  C   UNL     1      55.774  -0.213  16.730  0.00  0.00    +0.000 C 
ATOM     15  C   UNL     1      55.448   1.255  16.461  0.00  0.00    +0.000 C 
ENDBRANCH   8   9
BRANCH   8  16
ATOM     16  O   UNL     1      53.241   4.502  19.315  0.00  0.00    +0.000 OA
ATOM     17  H   UNL     1      53.796   4.311  20.094  0.00  0.00    +0.000 HD
ENDBRANCH   8  16
ENDBRANCH   5   8
ENDBRANCH   1   2
BRANCH   1  20
ATOM     18  O   UNL     1      47.355   3.134  14.172  0.00  0.00    +0.000 OA
ATOM     19  C   UNL     1      47.094   4.226  14.672  0.00  0.00    +0.000 C 
ATOM     20  N   UNL     1      47.138   4.446  16.022  0.00  0.00    +0.000 N 
ATOM     21  H   UNL     1      46.776   5.314  16.403  0.00  0.00    +0.000 HD
BRANCH  19  22
ATOM     22  C   UNL     1      46.763   5.385  13.834  0.00  0.00    +0.000 A 
ATOM     23  C   UNL     1      47.674   6.425  13.707  0.00  0.00    +0.000 A 
ATOM     24  S   UNL     1      47.147   7.674  12.673  0.00  0.00    +0.000 S 
ATOM     25  C   UNL     1      45.697   6.851  12.332  0.00  0.00    +0.000 A 
ATOM     26  N   UNL     1      44.796   7.363  11.453  0.00  0.00    +0.000 NA
ATOM     27  C   UNL     1      43.761   6.619  11.256  0.00  0.00    +0.000 A 
ATOM     28  N   UNL     1      43.538   5.413  11.875  0.00  0.00    +0.000 N 
ATOM     29  C   UNL     1      44.370   4.910  12.842  0.00  0.00    +0.000 A 
ATOM     30  O   UNL     1      44.054   3.924  13.502  0.00  0.00    +0.000 OA
ATOM     31  C   UNL     1      45.591   5.667  13.038  0.00  0.00    +0.000 A 
ATOM     32  H   UNL     1      42.680   4.905  11.714  0.00  0.00    +0.000 HD
ENDBRANCH  19  22
ENDBRANCH   1  20
TORSDOF 6
ENDMDL
MODEL 8
REMARK VINA RESULT:    -6.559      3.371      4.384
REMARK INTER + INTRA:          -9.494
REMARK INTER:                  -8.530
REMARK INTRA:                  -0.965
REMARK UNBOUND:                -0.826
REMARK  Name = 
REMARK  6 active torsions:
REMARK  status: ('A' for Active; 'I' for Inactive)
REMARK    1  A    between atoms: C_2  and  C_20
REMARK    2  A    between atoms: N_3  and  C_4
REMARK    3  A    between atoms: C_4  and  C_5
REMARK    4  A    between atoms: C_8  and  C_9
REMARK    5  A    between atoms: C_9  and  O_10
REMARK    6  A    between atoms: C_9  and  C_11
REMARK                            x       y       z     vdW  Elec       q    Type
REMARK                         _______ _______ _______ _____ _____    ______ ____
ROOT
ATOM      1  C   UNL     1      47.479   6.968  13.735  0.00  0.00    +0.000 C 
ENDROOT
BRANCH   1   2
ATOM      2  C   UNL     1      46.739   6.245  12.641  0.00  0.00    +0.000 A 
ATOM      3  C   UNL     1      46.003   5.092  12.931  0.00  0.00    +0.000 A 
ATOM      4  C   UNL     1      45.262   4.452  11.935  0.00  0.00    +0.000 A 
ATOM      5  C   UNL     1      45.239   4.950  10.623  0.00  0.00    +0.000 A 
ATOM      6  C   UNL     1      46.036   6.064  10.319  0.00  0.00    +0.000 A 
ATOM      7  C   UNL     1      46.777   6.704  11.317  0.00  0.00    +0.000 A 
BRANCH   5   8
ATOM      8  C   UNL     1      44.421   4.223   9.577  0.00  0.00    +0.000 C 
BRANCH   8   9
ATOM      9  C   UNL     1      44.951   2.811   9.219  0.00  0.00    +0.000 C 
ATOM     10  O   UNL     1      44.485   1.820   9.792  0.00  0.00    +0.000 OA
ATOM     11  N   UNL     1      45.912   2.689   8.236  0.00  0.00    +0.000 N 
ATOM     12  C   UNL     1      46.577   3.740   7.489  0.00  0.00    +0.000 C 
ATOM     13  C   UNL     1      46.837   3.086   6.143  0.00  0.00    +0.000 C 
ATOM     14  C   UNL     1      47.173   1.645   6.516  0.00  0.00    +0.000 C 
ATOM     15  C   UNL     1      46.366   1.381   7.787  0.00  0.00    +0.000 C 
ENDBRANCH   8   9
BRANCH   8  16
ATOM     16  O   UNL     1      43.079   4.158  10.062  0.00  0.00    +0.000 OA
ATOM     17  H   UNL     1      42.997   4.904  10.686  0.00  0.00    +0.000 HD
ENDBRANCH   8  16
ENDBRANCH   5   8
ENDBRANCH   1   2
BRANCH   1  20
ATOM     18  O   UNL     1      48.446   9.552  13.205  0.00  0.00    +0.000 OA
ATOM     19  C   UNL     1      49.222   8.602  13.138  0.00  0.00    +0.000 C 
ATOM     20  N   UNL     1      48.821   7.309  13.343  0.00  0.00    +0.000 N 
ATOM     21  H   UNL     1      49.515   6.573  13.423  0.00  0.00    +0.000 HD
BRANCH  19  22
ATOM     22  C   UNL     1      50.633   8.797  12.784  0.00  0.00    +0.000 A 
ATOM     23  C   UNL     1      50.963   9.363  11.559  0.00  0.00    +0.000 A 
ATOM     24  S   UNL     1      52.641   9.548  11.322  0.00  0.00    +0.000 S 
ATOM     25  C   UNL     1      52.984   8.911  12.862  0.00  0.00    +0.000 A 
ATOM     26  N   UNL     1      54.262   8.838  13.317  0.00  0.00    +0.000 NA
ATOM     27  C   UNL     1      54.376   8.373  14.515  0.00  0.00    +0.000 A 
ATOM     28  N   UNL     1      53.323   7.957  15.294  0.00  0.00    +0.000 N 
ATOM     29  C   UNL     1      52.031   7.920  14.837  0.00  0.00    +0.000 A 
ATOM     30  O   UNL     1      51.142   7.379  15.488  0.00  0.00    +0.000 OA
ATOM     31  C   UNL     1      51.838   8.511  13.527  0.00  0.00    +0.000 A 
ATOM     32  H   UNL     1      53.487   7.554  16.205  0.00  0.00    +0.000 HD
ENDBRANCH  19  22
ENDBRANCH   1  20
TORSDOF 6
ENDMDL
MODEL 9
REMARK VINA RESULT:    -6.546      3.727      5.093
REMARK INTER + INTRA:          -9.476
REMARK INTER:                  -8.613
REMARK INTRA:                  -0.863
REMARK UNBOUND:                -0.826
REMARK  Name = 
REMARK  6 active torsions:
REMARK  status: ('A' for Active; 'I' for Inactive)
REMARK    1  A    between atoms: C_2  and  C_20
REMARK    2  A    between atoms: N_3  and  C_4
REMARK    3  A    between atoms: C_4  and  C_5
REMARK    4  A    between atoms: C_8  and  C_9
REMARK    5  A    between atoms: C_9  and  O_10
REMARK    6  A    between atoms: C_9  and  C_11
REMARK                            x       y       z     vdW  Elec       q    Type
REMARK                         _______ _______ _______ _____ _____    ______ ____
ROOT
ATOM      1  C   UNL     1      47.517   8.564  13.862  0.00  0.00    +0.000 C 
ENDROOT
BRANCH   1   2
ATOM      2  C   UNL     1      46.447   7.789  13.139  0.00  0.00    +0.000 A 
ATOM      3  C   UNL     1      45.466   8.462  12.404  0.00  0.00    +0.000 A 
ATOM      4  C   UNL     1      44.508   7.749  11.678  0.00  0.00    +0.000 A 
ATOM      5  C   UNL     1      44.510   6.346  11.669  0.00  0.00    +0.000 A 
ATOM      6  C   UNL     1      45.450   5.675  12.465  0.00  0.00    +0.000 A 
ATOM      7  C   UNL     1      46.408   6.389  13.192  0.00  0.00    +0.000 A 
BRANCH   5   8
ATOM      8  C   UNL     1      43.453   5.616  10.867  0.00  0.00    +0.000 C 
BRANCH   8   9
ATOM      9  C   UNL     1      43.720   4.099  10.687  0.00  0.00    +0.000 C 
ATOM     10  O   UNL     1      43.089   3.283  11.367  0.00  0.00    +0.000 OA
ATOM     11  N   UNL     1      44.638   3.692   9.740  0.00  0.00    +0.000 N 
ATOM     12  C   UNL     1      45.476   4.512   8.884  0.00  0.00    +0.000 C 
ATOM     13  C   UNL     1      45.606   3.665   7.630  0.00  0.00    +0.000 C 
ATOM     14  C   UNL     1      45.682   2.243   8.176  0.00  0.00    +0.000 C 
ATOM     15  C   UNL     1      44.849   2.281   9.457  0.00  0.00    +0.000 C 
ENDBRANCH   8   9
BRANCH   8  16
ATOM     16  O   UNL     1      42.201   5.841  11.517  0.00  0.00    +0.000 OA
ATOM     17  H   UNL     1      41.920   6.730  11.230  0.00  0.00    +0.000 HD
ENDBRANCH   8  16
ENDBRANCH   5   8
ENDBRANCH   1   2
BRANCH   1  20
ATOM     18  O   UNL     1      49.890   9.875  14.600  0.00  0.00    +0.000 OA
ATOM     19  C   UNL     1      49.699   9.613  13.415  0.00  0.00    +0.000 C 
ATOM     20  N   UNL     1      48.552   9.013  12.970  0.00  0.00    +0.000 N 
ATOM     21  H   UNL     1      48.496   8.682  12.012  0.00  0.00    +0.000 HD
BRANCH  19  22
ATOM     22  C   UNL     1      50.684   9.976  12.389  0.00  0.00    +0.000 A 
ATOM     23  C   UNL     1      51.179  11.273  12.338  0.00  0.00    +0.000 A 
ATOM     24  S   UNL     1      52.336  11.516  11.110  0.00  0.00    +0.000 S 
ATOM     25  C   UNL     1      52.243   9.888  10.626  0.00  0.00    +0.000 A 
ATOM     26  N   UNL     1      53.035   9.410   9.631  0.00  0.00    +0.000 NA
ATOM     27  C   UNL     1      52.891   8.151   9.392  0.00  0.00    +0.000 A 
ATOM     28  N   UNL     1      52.010   7.328  10.050  0.00  0.00    +0.000 N 
ATOM     29  C   UNL     1      51.123   7.789  10.989  0.00  0.00    +0.000 A 
ATOM     30  O   UNL     1      50.231   7.069  11.428  0.00  0.00    +0.000 OA
ATOM     31  C   UNL     1      51.302   9.181  11.354  0.00  0.00    +0.000 A 
ATOM     32  H   UNL     1      51.910   6.360   9.778  0.00  0.00    +0.000 HD
ENDBRANCH  19  22
ENDBRANCH   1  20
TORSDOF 6
ENDMDL
