MODEL 1
REMARK VINA RESULT:    -8.135      0.000      0.000
REMARK INTER + INTRA:         -11.931
REMARK INTER:                 -11.226
REMARK INTRA:                  -0.704
REMARK UNBOUND:                -0.704
REMARK  Name = 
REMARK  7 active torsions:
REMARK  status: ('A' for Active; 'I' for Inactive)
REMARK    1  A    between atoms: N_1  and  C_2
REMARK    2  A    between atoms: C_2  and  C_3
REMARK    3  A    between atoms: C_3  and  N_4
REMARK    4  A    between atoms: C_3  and  C_17
REMARK    5  A    between atoms: C_5  and  C_7
REMARK    6  A    between atoms: C_20  and  O_21
REMARK    7  A    between atoms: O_21  and  C_22
REMARK                            x       y       z     vdW  Elec       q    Type
REMARK                         _______ _______ _______ _____ _____    ______ ____
ROOT
ATOM      1  C   UNL     1      46.425   6.939  12.763  0.00  0.00    +0.000 C 
ENDROOT
BRANCH   1   2
ATOM      2  C   UNL     1      45.964   5.896  11.742  0.00  0.00    +0.000 A 
ATOM      3  C   UNL     1      45.431   4.675  12.178  0.00  0.00    +0.000 A 
ATOM      4  C   UNL     1      44.991   3.723  11.258  0.00  0.00    +0.000 A 
ATOM      5  C   UNL     1      45.025   3.988   9.888  0.00  0.00    +0.000 A 
ATOM      6  C   UNL     1      45.588   5.183   9.436  0.00  0.00    +0.000 A 
ATOM      7  C   UNL     1      46.050   6.131  10.357  0.00  0.00    +0.000 A 
BRANCH   5   8
ATOM      8  O   UNL     1      44.584   3.098   8.930  0.00  0.00    +0.000 OA
BRANCH   8   9
ATOM      9  C   UNL     1      45.536   2.522   8.092  0.00  0.00    +0.000 A 
ATOM     10  C   UNL     1      45.906   3.247   6.969  0.00  0.00    +0.000 A 
ATOM     11  C   UNL     1      46.873   2.703   6.124  0.00  0.00    +0.000 A 
ATOM     12  C   UNL     1      47.433   1.467   6.432  0.00  0.00    +0.000 A 
ATOM     13  C   UNL     1      46.988   0.812   7.566  0.00  0.00    +0.000 A 
ATOM     14  N   UNL     1      46.037   1.300   8.386  0.00  0.00    +0.000 NA
ENDBRANCH   8   9
ENDBRANCH   5   8
ENDBRANCH   1   2
BRANCH   1  15
ATOM     15  N   UNL     1      46.646   6.273  14.037  0.00  0.00    +0.000 N 
ATOM     16  C   UNL     1      47.888   5.924  14.504  0.00  0.00    +0.000 C 
ATOM     17  O   UNL     1      48.934   6.245  13.951  0.00  0.00    +0.000 OA
ATOM     18  H   UNL     1      45.849   5.749  14.382  0.00  0.00    +0.000 HD
BRANCH  16  19
ATOM     19  C   UNL     1      47.890   5.180  15.765  0.00  0.00    +0.000 A 
ATOM     20  C   UNL     1      47.429   3.873  15.823  0.00  0.00    +0.000 A 
ATOM     21  S   UNL     1      47.523   3.196  17.390  0.00  0.00    +0.000 S 
ATOM     22  C   UNL     1      48.136   4.643  18.041  0.00  0.00    +0.000 A 
ATOM     23  N   UNL     1      48.402   4.769  19.370  0.00  0.00    +0.000 NA
ATOM     24  C   UNL     1      48.819   5.939  19.723  0.00  0.00    +0.000 A 
ATOM     25  N   UNL     1      49.014   6.993  18.868  0.00  0.00    +0.000 N 
ATOM     26  C   UNL     1      48.814   6.899  17.516  0.00  0.00    +0.000 A 
ATOM     27  O   UNL     1      49.087   7.823  16.768  0.00  0.00    +0.000 OA
ATOM     28  C   UNL     1      48.301   5.614  17.074  0.00  0.00    +0.000 A 
ATOM     29  H   UNL     1      49.378   7.875  19.194  0.00  0.00    +0.000 HD
ENDBRANCH  16  19
ENDBRANCH   1  15
BRANCH   1  30
ATOM     30  C   UNL     1      45.398   8.097  12.893  0.00  0.00    +0.000 C 
BRANCH  30  31
ATOM     31  N   UNL     1      45.986   9.443  12.894  0.00  0.00    +0.000 NA
ATOM     32  H   UNL     1      45.535   9.989  13.626  0.00  0.00    +0.000 HD
ATOM     33  H   UNL     1      45.767   9.910  12.014  0.00  0.00    +0.000 HD
ENDBRANCH  30  31
ENDBRANCH   1  30
TORSDOF 7
ENDMDL
MODEL 2
REMARK VINA RESULT:    -8.063      1.679      2.219
REMARK INTER + INTRA:         -11.831
REMARK INTER:                 -11.008
REMARK INTRA:                  -0.822
REMARK UNBOUND:                -0.704
REMARK  Name = 
REMARK  7 active torsions:
REMARK  status: ('A' for Active; 'I' for Inactive)
REMARK    1  A    between atoms: N_1  and  C_2
REMARK    2  A    between atoms: C_2  and  C_3
REMARK    3  A    between atoms: C_3  and  N_4
REMARK    4  A    between atoms: C_3  and  C_17
REMARK    5  A    between atoms: C_5  and  C_7
REMARK    6  A    between atoms: C_20  and  O_21
REMARK    7  A    between atoms: O_21  and  C_22
REMARK                            x       y       z     vdW  Elec       q    Type
REMARK                         _______ _______ _______ _____ _____    ______ ____
ROOT
ATOM      1  C   UNL     1      46.063   7.999  12.356  0.00  0.00    +0.000 C 
ENDROOT
BRANCH   1   2
ATOM      2  C   UNL     1      45.567   6.776  11.583  0.00  0.00    +0.000 A 
ATOM      3  C   UNL     1      44.345   6.180  11.923  0.00  0.00    +0.000 A 
ATOM      4  C   UNL     1      43.872   5.074  11.214  0.00  0.00    +0.000 A 
ATOM      5  C   UNL     1      44.581   4.573  10.122  0.00  0.00    +0.000 A 
ATOM      6  C   UNL     1      45.818   5.131   9.794  0.00  0.00    +0.000 A 
ATOM      7  C   UNL     1      46.305   6.226  10.517  0.00  0.00    +0.000 A 
BRANCH   5   8
ATOM      8  O   UNL     1      44.157   3.498   9.368  0.00  0.00    +0.000 OA
BRANCH   8   9
ATOM      9  C   UNL     1      45.080   2.895   8.518  0.00  0.00    +0.000 A 
ATOM     10  C   UNL     1      45.440   3.600   7.378  0.00  0.00    +0.000 A 
ATOM     11  C   UNL     1      46.380   3.029   6.520  0.00  0.00    +0.000 A 
ATOM     12  C   UNL     1      46.924   1.787   6.833  0.00  0.00    +0.000 A 
ATOM     13  C   UNL     1      46.492   1.153   7.984  0.00  0.00    +0.000 A 
ATOM     14  N   UNL     1      45.566   1.668   8.816  0.00  0.00    +0.000 NA
ENDBRANCH   8   9
ENDBRANCH   5   8
ENDBRANCH   1   2
BRANCH   1  15
ATOM     15  N   UNL     1      46.717   7.545  13.572  0.00  0.00    +0.000 N 
ATOM     16  C   UNL     1      48.037   7.173  13.630  0.00  0.00    +0.000 C 
ATOM     17  O   UNL     1      48.818   7.303  12.693  0.00  0.00    +0.000 OA
ATOM     18  H   UNL     1      46.090   7.158  14.269  0.00  0.00    +0.000 HD
BRANCH  16  19
ATOM     19  C   UNL     1      48.482   6.659  14.926  0.00  0.00    +0.000 A 
ATOM     20  C   UNL     1      49.479   7.303  15.645  0.00  0.00    +0.000 A 
ATOM     21  S   UNL     1      49.841   6.536  17.128  0.00  0.00    +0.000 S 
ATOM     22  C   UNL     1      48.713   5.298  16.830  0.00  0.00    +0.000 A 
ATOM     23  N   UNL     1      48.544   4.265  17.699  0.00  0.00    +0.000 NA
ATOM     24  C   UNL     1      47.685   3.380  17.315  0.00  0.00    +0.000 A 
ATOM     25  N   UNL     1      46.964   3.440  16.151  0.00  0.00    +0.000 N 
ATOM     26  C   UNL     1      47.058   4.486  15.272  0.00  0.00    +0.000 A 
ATOM     27  O   UNL     1      46.335   4.559  14.293  0.00  0.00    +0.000 OA
ATOM     28  C   UNL     1      48.045   5.488  15.637  0.00  0.00    +0.000 A 
ATOM     29  H   UNL     1      46.278   2.737  15.921  0.00  0.00    +0.000 HD
ENDBRANCH  16  19
ENDBRANCH   1  15
BRANCH   1  30
ATOM     30  C   UNL     1      44.902   8.985  12.665  0.00  0.00    +0.000 C 
BRANCH  30  31
ATOM     31  N   UNL     1      45.193  10.392  12.364  0.00  0.00    +0.000 NA
ATOM     32  H   UNL     1      44.654  10.974  13.004  0.00  0.00    +0.000 HD
ATOM     33  H   UNL     1      44.860  10.615  11.426  0.00  0.00    +0.000 HD
ENDBRANCH  30  31
ENDBRANCH   1  30
TORSDOF 7
ENDMDL
MODEL 3
REMARK VINA RESULT:    -8.007      3.164      4.277
REMARK INTER + INTRA:         -11.754
REMARK INTER:                 -10.473
REMARK INTRA:                  -1.281
REMARK UNBOUND:                -0.704
REMARK  Name = 
REMARK  7 active torsions:
REMARK  status: ('A' for Active; 'I' for Inactive)
REMARK    1  A    between atoms: N_1  and  C_2
REMARK    2  A    between atoms: C_2  and  C_3
REMARK    3  A    between atoms: C_3  and  N_4
REMARK    4  A    between atoms: C_3  and  C_17
REMARK    5  A    between atoms: C_5  and  C_7
REMARK    6  A    between atoms: C_20  and  O_21
REMARK    7  A    between atoms: O_21  and  C_22
REMARK                            x       y       z     vdW  Elec       q    Type
REMARK                         _______ _______ _______ _____ _____    ______ ____
ROOT
ATOM      1  C   UNL     1      46.383   5.783  13.631  0.00  0.00    +0.000 C 
ENDROOT
BRANCH   1   2
ATOM      2  C   UNL     1      45.876   5.124  12.346  0.00  0.00    +0.000 A 
ATOM      3  C   UNL     1      45.970   5.806  11.125  0.00  0.00    +0.000 A 
ATOM      4  C   UNL     1      45.527   5.210   9.943  0.00  0.00    +0.000 A 
ATOM      5  C   UNL     1      45.031   3.905   9.946  0.00  0.00    +0.000 A 
ATOM      6  C   UNL     1      44.896   3.227  11.159  0.00  0.00    +0.000 A 
ATOM      7  C   UNL     1      45.319   3.831  12.349  0.00  0.00    +0.000 A 
BRANCH   5   8
ATOM      8  O   UNL     1      44.600   3.253   8.810  0.00  0.00    +0.000 OA
BRANCH   8   9
ATOM      9  C   UNL     1      45.558   2.628   8.015  0.00  0.00    +0.000 A 
ATOM     10  C   UNL     1      45.985   3.313   6.887  0.00  0.00    +0.000 A 
ATOM     11  C   UNL     1      46.959   2.719   6.086  0.00  0.00    +0.000 A 
ATOM     12  C   UNL     1      47.470   1.475   6.441  0.00  0.00    +0.000 A 
ATOM     13  C   UNL     1      46.972   0.862   7.576  0.00  0.00    +0.000 A 
ATOM     14  N   UNL     1      46.011   1.398   8.353  0.00  0.00    +0.000 NA
ENDBRANCH   8   9
ENDBRANCH   5   8
ENDBRANCH   1   2
BRANCH   1  15
ATOM     15  N   UNL     1      47.494   6.659  13.294  0.00  0.00    +0.000 N 
ATOM     16  C   UNL     1      47.405   8.028  13.286  0.00  0.00    +0.000 C 
ATOM     17  O   UNL     1      46.418   8.644  13.676  0.00  0.00    +0.000 OA
ATOM     18  H   UNL     1      48.207   6.231  12.713  0.00  0.00    +0.000 HD
BRANCH  16  19
ATOM     19  C   UNL     1      48.608   8.727  12.832  0.00  0.00    +0.000 A 
ATOM     20  C   UNL     1      48.542   9.678  11.823  0.00  0.00    +0.000 A 
ATOM     21  S   UNL     1      50.061  10.369  11.452  0.00  0.00    +0.000 S 
ATOM     22  C   UNL     1      50.853   9.384  12.591  0.00  0.00    +0.000 A 
ATOM     23  N   UNL     1      52.203   9.434  12.758  0.00  0.00    +0.000 NA
ATOM     24  C   UNL     1      52.664   8.596  13.626  0.00  0.00    +0.000 A 
ATOM     25  N   UNL     1      51.900   7.725  14.359  0.00  0.00    +0.000 N 
ATOM     26  C   UNL     1      50.534   7.676  14.266  0.00  0.00    +0.000 A 
ATOM     27  O   UNL     1      49.874   6.959  14.999  0.00  0.00    +0.000 OA
ATOM     28  C   UNL     1      49.969   8.569  13.269  0.00  0.00    +0.000 A 
ATOM     29  H   UNL     1      52.312   7.118  15.051  0.00  0.00    +0.000 HD
ENDBRANCH  16  19
ENDBRANCH   1  15
BRANCH   1  30
ATOM     30  C   UNL     1      46.791   4.722  14.690  0.00  0.00    +0.000 C 
BRANCH  30  31
ATOM     31  N   UNL     1      47.727   5.203  15.714  0.00  0.00    +0.000 NA
ATOM     32  H   UNL     1      47.406   6.114  16.038  0.00  0.00    +0.000 HD
ATOM     33  H   UNL     1      48.643   5.357  15.292  0.00  0.00    +0.000 HD
ENDBRANCH  30  31
ENDBRANCH   1  30
TORSDOF 7
ENDMDL
MODEL 4
REMARK VINA RESULT:    -7.841      1.509      1.994
REMARK INTER + INTRA:         -11.525
REMARK INTER:                 -10.320
REMARK INTRA:                  -1.205
REMARK UNBOUND:                -0.704
REMARK  Name = 
REMARK  7 active torsions:
REMARK  status: ('A' for Active; 'I' for Inactive)
REMARK    1  A    between atoms: N_1  and  C_2
REMARK    2  A    between atoms: C_2  and  C_3
REMARK    3  A    between atoms: C_3  and  N_4
REMARK    4  A    between atoms: C_3  and  C_17
REMARK    5  A    between atoms: C_5  and  C_7
REMARK    6  A    between atoms: C_20  and  O_21
REMARK    7  A    between atoms: O_21  and  C_22
REMARK                            x       y       z     vdW  Elec       q    Type
REMARK                         _______ _______ _______ _____ _____    ______ ____
ROOT
ATOM      1  C   UNL     1      47.891   7.211  13.890  0.00  0.00    +0.000 C 
ENDROOT
BRANCH   1   2
ATOM      2  C   UNL     1      46.964   6.411  12.973  0.00  0.00    +0.000 A 
ATOM      3  C   UNL     1      46.489   6.983  11.785  0.00  0.00    +0.000 A 
ATOM      4  C   UNL     1      45.658   6.258  10.930  0.00  0.00    +0.000 A 
ATOM      5  C   UNL     1      45.326   4.932  11.215  0.00  0.00    +0.000 A 
ATOM      6  C   UNL     1      45.760   4.360  12.412  0.00  0.00    +0.000 A 
ATOM      7  C   UNL     1      46.577   5.093  13.282  0.00  0.00    +0.000 A 
BRANCH   5   8
ATOM      8  O   UNL     1      44.528   4.156  10.400  0.00  0.00    +0.000 OA
BRANCH   8   9
ATOM      9  C   UNL     1      45.141   3.464   9.358  0.00  0.00    +0.000 A 
ATOM     10  C   UNL     1      45.628   4.219   8.301  0.00  0.00    +0.000 A 
ATOM     11  C   UNL     1      46.266   3.554   7.255  0.00  0.00    +0.000 A 
ATOM     12  C   UNL     1      46.397   2.169   7.306  0.00  0.00    +0.000 A 
ATOM     13  C   UNL     1      45.866   1.500   8.394  0.00  0.00    +0.000 A 
ATOM     14  N   UNL     1      45.221   2.113   9.405  0.00  0.00    +0.000 NA
ENDBRANCH   8   9
ENDBRANCH   5   8
ENDBRANCH   1   2
BRANCH   1  15
ATOM     15  N   UNL     1      47.876   6.601  15.210  0.00  0.00    +0.000 N 
ATOM     16  C   UNL     1      49.012   6.256  15.898  0.00  0.00    +0.000 C 
ATOM     17  O   UNL     1      50.144   6.538  15.520  0.00  0.00    +0.000 OA
ATOM     18  H   UNL     1      47.022   6.103  15.434  0.00  0.00    +0.000 HD
BRANCH  16  19
ATOM     19  C   UNL     1      48.783   5.570  17.171  0.00  0.00    +0.000 A 
ATOM     20  C   UNL     1      48.943   4.195  17.279  0.00  0.00    +0.000 A 
ATOM     21  S   UNL     1      48.626   3.604  18.851  0.00  0.00    +0.000 S 
ATOM     22  C   UNL     1      48.220   5.156  19.417  0.00  0.00    +0.000 A 
ATOM     23  N   UNL     1      47.804   5.361  20.696  0.00  0.00    +0.000 NA
ATOM     24  C   UNL     1      47.488   6.584  20.965  0.00  0.00    +0.000 A 
ATOM     25  N   UNL     1      47.568   7.628  20.080  0.00  0.00    +0.000 N 
ATOM     26  C   UNL     1      48.033   7.482  18.799  0.00  0.00    +0.000 A 
ATOM     27  O   UNL     1      48.184   8.444  18.065  0.00  0.00    +0.000 OA
ATOM     28  C   UNL     1      48.360   6.115  18.433  0.00  0.00    +0.000 A 
ATOM     29  H   UNL     1      47.344   8.572  20.357  0.00  0.00    +0.000 HD
ENDBRANCH  16  19
ENDBRANCH   1  15
BRANCH   1  30
ATOM     30  C   UNL     1      47.479   8.708  13.947  0.00  0.00    +0.000 C 
BRANCH  30  31
ATOM     31  N   UNL     1      47.466   9.292  15.295  0.00  0.00    +0.000 NA
ATOM     32  H   UNL     1      47.844   8.604  15.945  0.00  0.00    +0.000 HD
ATOM     33  H   UNL     1      46.502   9.460  15.584  0.00  0.00    +0.000 HD
ENDBRANCH  30  31
ENDBRANCH   1  30
TORSDOF 7
ENDMDL
MODEL 5
REMARK VINA RESULT:    -7.156      3.316      8.096
REMARK INTER + INTRA:         -10.579
REMARK INTER:                  -9.294
REMARK INTRA:                  -1.285
REMARK UNBOUND:                -0.704
REMARK  Name = 
REMARK  7 active torsions:
REMARK  status: ('A' for Active; 'I' for Inactive)
REMARK    1  A    between atoms: N_1  and  C_2
REMARK    2  A    between atoms: C_2  and  C_3
REMARK    3  A    between atoms: C_3  and  N_4
REMARK    4  A    between atoms: C_3  and  C_17
REMARK    5  A    between atoms: C_5  and  C_7
REMARK    6  A    between atoms: C_20  and  O_21
REMARK    7  A    between atoms: O_21  and  C_22
REMARK                            x       y       z     vdW  Elec       q    Type
REMARK                         _______ _______ _______ _____ _____    ______ ____
ROOT
ATOM      1  C   UNL     1      47.951   7.297  13.383  0.00  0.00    +0.000 C 
ENDROOT
BRANCH   1   2
ATOM      2  C   UNL     1      48.355   6.563  14.663  0.00  0.00    +0.000 A 
ATOM      3  C   UNL     1      47.625   5.445  15.091  0.00  0.00    +0.000 A 
ATOM      4  C   UNL     1      47.993   4.756  16.247  0.00  0.00    +0.000 A 
ATOM      5  C   UNL     1      49.125   5.134  16.971  0.00  0.00    +0.000 A 
ATOM      6  C   UNL     1      49.840   6.267  16.581  0.00  0.00    +0.000 A 
ATOM      7  C   UNL     1      49.460   6.974  15.433  0.00  0.00    +0.000 A 
BRANCH   5   8
ATOM      8  O   UNL     1      49.554   4.481  18.108  0.00  0.00    +0.000 OA
BRANCH   8   9
ATOM      9  C   UNL     1      50.565   3.533  17.971  0.00  0.00    +0.000 A 
ATOM     10  C   UNL     1      51.820   3.878  18.449  0.00  0.00    +0.000 A 
ATOM     11  C   UNL     1      52.846   2.939  18.344  0.00  0.00    +0.000 A 
ATOM     12  C   UNL     1      52.580   1.698  17.773  0.00  0.00    +0.000 A 
ATOM     13  C   UNL     1      51.300   1.451  17.311  0.00  0.00    +0.000 A 
ATOM     14  N   UNL     1      50.297   2.348  17.374  0.00  0.00    +0.000 NA
ENDBRANCH   8   9
ENDBRANCH   5   8
ENDBRANCH   1   2
BRANCH   1  15
ATOM     15  N   UNL     1      47.276   6.356  12.503  0.00  0.00    +0.000 N 
ATOM     16  C   UNL     1      46.211   6.693  11.707  0.00  0.00    +0.000 C 
ATOM     17  O   UNL     1      45.803   7.842  11.572  0.00  0.00    +0.000 OA
ATOM     18  H   UNL     1      47.371   5.384  12.774  0.00  0.00    +0.000 HD
BRANCH  16  19
ATOM     19  C   UNL     1      45.615   5.582  10.964  0.00  0.00    +0.000 A 
ATOM     20  C   UNL     1      45.719   5.511   9.582  0.00  0.00    +0.000 A 
ATOM     21  S   UNL     1      44.955   4.133   8.920  0.00  0.00    +0.000 S 
ATOM     22  C   UNL     1      44.423   3.620  10.452  0.00  0.00    +0.000 A 
ATOM     23  N   UNL     1      43.657   2.505  10.603  0.00  0.00    +0.000 NA
ATOM     24  C   UNL     1      43.293   2.268  11.819  0.00  0.00    +0.000 A 
ATOM     25  N   UNL     1      43.639   3.032  12.904  0.00  0.00    +0.000 N 
ATOM     26  C   UNL     1      44.452   4.130  12.811  0.00  0.00    +0.000 A 
ATOM     27  O   UNL     1      44.820   4.734  13.805  0.00  0.00    +0.000 OA
ATOM     28  C   UNL     1      44.853   4.465  11.456  0.00  0.00    +0.000 A 
ATOM     29  H   UNL     1      43.356   2.777  13.839  0.00  0.00    +0.000 HD
ENDBRANCH  16  19
ENDBRANCH   1  15
BRANCH   1  30
ATOM     30  C   UNL     1      49.179   7.949  12.691  0.00  0.00    +0.000 C 
BRANCH  30  31
ATOM     31  N   UNL     1      48.859   9.067  11.794  0.00  0.00    +0.000 NA
ATOM     32  H   UNL     1      49.088   9.936  12.274  0.00  0.00    +0.000 HD
ATOM     33  H   UNL     1      47.854   9.090  11.625  0.00  0.00    +0.000 HD
ENDBRANCH  30  31
ENDBRANCH   1  30
TORSDOF 7
ENDMDL
MODEL 6
REMARK VINA RESULT:    -7.012      2.075      2.848
REMARK INTER + INTRA:         -10.380
REMARK INTER:                  -9.583
REMARK INTRA:                  -0.797
REMARK UNBOUND:                -0.704
REMARK  Name = 
REMARK  7 active torsions:
REMARK  status: ('A' for Active; 'I' for Inactive)
REMARK    1  A    between atoms: N_1  and  C_2
REMARK    2  A    between atoms: C_2  and  C_3
REMARK    3  A    between atoms: C_3  and  N_4
REMARK    4  A    between atoms: C_3  and  C_17
REMARK    5  A    between atoms: C_5  and  C_7
REMARK    6  A    between atoms: C_20  and  O_21
REMARK    7  A    between atoms: O_21  and  C_22
REMARK                            x       y       z     vdW  Elec       q    Type
REMARK                         _______ _______ _______ _____ _____    ______ ____
ROOT
ATOM      1  C   UNL     1      48.325   8.072  13.750  0.00  0.00    +0.000 C 
ENDROOT
BRANCH   1   2
ATOM      2  C   UNL     1      47.260   7.218  13.058  0.00  0.00    +0.000 A 
ATOM      3  C   UNL     1      47.189   5.842  13.317  0.00  0.00    +0.000 A 
ATOM      4  C   UNL     1      46.212   5.054  12.707  0.00  0.00    +0.000 A 
ATOM      5  C   UNL     1      45.255   5.629  11.869  0.00  0.00    +0.000 A 
ATOM      6  C   UNL     1      45.335   6.990  11.571  0.00  0.00    +0.000 A 
ATOM      7  C   UNL     1      46.328   7.779  12.165  0.00  0.00    +0.000 A 
BRANCH   5   8
ATOM      8  O   UNL     1      44.252   4.908  11.255  0.00  0.00    +0.000 OA
BRANCH   8   9
ATOM      9  C   UNL     1      44.603   4.080  10.192  0.00  0.00    +0.000 A 
ATOM     10  C   UNL     1      45.295   4.665   9.141  0.00  0.00    +0.000 A 
ATOM     11  C   UNL     1      45.679   3.854   8.073  0.00  0.00    +0.000 A 
ATOM     12  C   UNL     1      45.363   2.498   8.097  0.00  0.00    +0.000 A 
ATOM     13  C   UNL     1      44.657   2.010   9.181  0.00  0.00    +0.000 A 
ATOM     14  N   UNL     1      44.250   2.774  10.213  0.00  0.00    +0.000 NA
ENDBRANCH   8   9
ENDBRANCH   5   8
ENDBRANCH   1   2
BRANCH   1  15
ATOM     15  N   UNL     1      48.191   7.904  15.188  0.00  0.00    +0.000 N 
ATOM     16  C   UNL     1      49.095   7.218  15.958  0.00  0.00    +0.000 C 
ATOM     17  O   UNL     1      50.159   6.784  15.528  0.00  0.00    +0.000 OA
ATOM     18  H   UNL     1      47.241   7.981  15.534  0.00  0.00    +0.000 HD
BRANCH  16  19
ATOM     19  C   UNL     1      48.734   7.084  17.370  0.00  0.00    +0.000 A 
ATOM     20  C   UNL     1      48.344   8.189  18.114  0.00  0.00    +0.000 A 
ATOM     21  S   UNL     1      47.966   7.808  19.736  0.00  0.00    +0.000 S 
ATOM     22  C   UNL     1      48.359   6.169  19.503  0.00  0.00    +0.000 A 
ATOM     23  N   UNL     1      48.299   5.271  20.524  0.00  0.00    +0.000 NA
ATOM     24  C   UNL     1      48.670   4.075  20.206  0.00  0.00    +0.000 A 
ATOM     25  N   UNL     1      49.078   3.687  18.956  0.00  0.00    +0.000 N 
ATOM     26  C   UNL     1      49.103   4.540  17.884  0.00  0.00    +0.000 A 
ATOM     27  O   UNL     1      49.378   4.145  16.764  0.00  0.00    +0.000 OA
ATOM     28  C   UNL     1      48.736   5.910  18.201  0.00  0.00    +0.000 A 
ATOM     29  H   UNL     1      49.321   2.729  18.756  0.00  0.00    +0.000 HD
ENDBRANCH  16  19
ENDBRANCH   1  15
BRANCH   1  30
ATOM     30  C   UNL     1      48.211   9.565  13.335  0.00  0.00    +0.000 C 
BRANCH  30  31
ATOM     31  N   UNL     1      48.461  10.526  14.417  0.00  0.00    +0.000 NA
ATOM     32  H   UNL     1      48.216  10.082  15.301  0.00  0.00    +0.000 HD
ATOM     33  H   UNL     1      47.834  11.324  14.314  0.00  0.00    +0.000 HD
ENDBRANCH  30  31
ENDBRANCH   1  30
TORSDOF 7
ENDMDL
MODEL 7
REMARK VINA RESULT:    -6.760      4.035      8.781
REMARK INTER + INTRA:         -10.033
REMARK INTER:                  -9.037
REMARK INTRA:                  -0.996
REMARK UNBOUND:                -0.704
REMARK  Name = 
REMARK  7 active torsions:
REMARK  status: ('A' for Active; 'I' for Inactive)
REMARK    1  A    between atoms: N_1  and  C_2
REMARK    2  A    between atoms: C_2  and  C_3
REMARK    3  A    between atoms: C_3  and  N_4
REMARK    4  A    between atoms: C_3  and  C_17
REMARK    5  A    between atoms: C_5  and  C_7
REMARK    6  A    between atoms: C_20  and  O_21
REMARK    7  A    between atoms: O_21  and  C_22
REMARK                            x       y       z     vdW  Elec       q    Type
REMARK                         _______ _______ _______ _____ _____    ______ ____
ROOT
ATOM      1  C   UNL     1      47.914   4.259  16.383  0.00  0.00    +0.000 C 
ENDROOT
BRANCH   1   2
ATOM      2  C   UNL     1      49.211   5.016  16.679  0.00  0.00    +0.000 A 
ATOM      3  C   UNL     1      50.212   4.415  17.454  0.00  0.00    +0.000 A 
ATOM      4  C   UNL     1      51.406   5.087  17.717  0.00  0.00    +0.000 A 
ATOM      5  C   UNL     1      51.649   6.348  17.169  0.00  0.00    +0.000 A 
ATOM      6  C   UNL     1      50.648   6.976  16.426  0.00  0.00    +0.000 A 
ATOM      7  C   UNL     1      49.439   6.313  16.180  0.00  0.00    +0.000 A 
BRANCH   5   8
ATOM      8  O   UNL     1      52.817   7.054  17.372  0.00  0.00    +0.000 OA
BRANCH   8   9
ATOM      9  C   UNL     1      53.649   7.264  16.275  0.00  0.00    +0.000 A 
ATOM     10  C   UNL     1      54.262   6.146  15.728  0.00  0.00    +0.000 A 
ATOM     11  C   UNL     1      55.083   6.325  14.615  0.00  0.00    +0.000 A 
ATOM     12  C   UNL     1      55.256   7.603  14.091  0.00  0.00    +0.000 A 
ATOM     13  C   UNL     1      54.615   8.658  14.715  0.00  0.00    +0.000 A 
ATOM     14  N   UNL     1      53.839   8.519  15.807  0.00  0.00    +0.000 NA
ENDBRANCH   8   9
ENDBRANCH   5   8
ENDBRANCH   1   2
BRANCH   1  15
ATOM     15  N   UNL     1      47.158   5.006  15.391  0.00  0.00    +0.000 N 
ATOM     16  C   UNL     1      46.846   4.515  14.148  0.00  0.00    +0.000 C 
ATOM     17  O   UNL     1      47.070   3.360  13.801  0.00  0.00    +0.000 OA
ATOM     18  H   UNL     1      47.198   6.013  15.501  0.00  0.00    +0.000 HD
BRANCH  16  19
ATOM     19  C   UNL     1      46.158   5.456  13.263  0.00  0.00    +0.000 A 
ATOM     20  C   UNL     1      46.758   6.649  12.886  0.00  0.00    +0.000 A 
ATOM     21  S   UNL     1      45.781   7.595  11.851  0.00  0.00    +0.000 S 
ATOM     22  C   UNL     1      44.514   6.461  11.915  0.00  0.00    +0.000 A 
ATOM     23  N   UNL     1      43.334   6.675  11.273  0.00  0.00    +0.000 NA
ATOM     24  C   UNL     1      42.452   5.748  11.451  0.00  0.00    +0.000 A 
ATOM     25  N   UNL     1      42.647   4.615  12.198  0.00  0.00    +0.000 N 
ATOM     26  C   UNL     1      43.834   4.328  12.818  0.00  0.00    +0.000 A 
ATOM     27  O   UNL     1      44.009   3.268  13.395  0.00  0.00    +0.000 OA
ATOM     28  C   UNL     1      44.845   5.363  12.684  0.00  0.00    +0.000 A 
ATOM     29  H   UNL     1      41.933   3.905  12.272  0.00  0.00    +0.000 HD
ENDBRANCH  16  19
ENDBRANCH   1  15
BRANCH   1  30
ATOM     30  C   UNL     1      47.086   4.025  17.677  0.00  0.00    +0.000 C 
BRANCH  30  31
ATOM     31  N   UNL     1      46.650   2.639  17.886  0.00  0.00    +0.000 NA
ATOM     32  H   UNL     1      46.000   2.623  18.670  0.00  0.00    +0.000 HD
ATOM     33  H   UNL     1      47.449   2.070  18.166  0.00  0.00    +0.000 HD
ENDBRANCH  30  31
ENDBRANCH   1  30
TORSDOF 7
ENDMDL
MODEL 8
REMARK VINA RESULT:    -6.757      3.062      4.617
REMARK INTER + INTRA:         -10.029
REMARK INTER:                  -8.830
REMARK INTRA:                  -1.199
REMARK UNBOUND:                -0.704
REMARK  Name = 
REMARK  7 active torsions:
REMARK  status: ('A' for Active; 'I' for Inactive)
REMARK    1  A    between atoms: N_1  and  C_2
REMARK    2  A    between atoms: C_2  and  C_3
REMARK    3  A    between atoms: C_3  and  N_4
REMARK    4  A    between atoms: C_3  and  C_17
REMARK    5  A    between atoms: C_5  and  C_7
REMARK    6  A    between atoms: C_20  and  O_21
REMARK    7  A    between atoms: O_21  and  C_22
REMARK                            x       y       z     vdW  Elec       q    Type
REMARK                         _______ _______ _______ _____ _____    ______ ____
ROOT
ATOM      1  C   UNL     1      47.301   5.310  15.205  0.00  0.00    +0.000 C 
ENDROOT
BRANCH   1   2
ATOM      2  C   UNL     1      46.570   4.929  13.916  0.00  0.00    +0.000 A 
ATOM      3  C   UNL     1      46.406   3.579  13.575  0.00  0.00    +0.000 A 
ATOM      4  C   UNL     1      45.726   3.218  12.412  0.00  0.00    +0.000 A 
ATOM      5  C   UNL     1      45.151   4.190  11.592  0.00  0.00    +0.000 A 
ATOM      6  C   UNL     1      45.338   5.539  11.896  0.00  0.00    +0.000 A 
ATOM      7  C   UNL     1      46.039   5.905  13.052  0.00  0.00    +0.000 A 
BRANCH   5   8
ATOM      8  O   UNL     1      44.448   3.896  10.442  0.00  0.00    +0.000 OA
BRANCH   8   9
ATOM      9  C   UNL     1      45.154   3.358   9.368  0.00  0.00    +0.000 A 
ATOM     10  C   UNL     1      45.658   4.253   8.435  0.00  0.00    +0.000 A 
ATOM     11  C   UNL     1      46.386   3.742   7.361  0.00  0.00    +0.000 A 
ATOM     12  C   UNL     1      46.588   2.368   7.263  0.00  0.00    +0.000 A 
ATOM     13  C   UNL     1      46.034   1.555   8.234  0.00  0.00    +0.000 A 
ATOM     14  N   UNL     1      45.302   2.017   9.267  0.00  0.00    +0.000 NA
ENDBRANCH   8   9
ENDBRANCH   5   8
ENDBRANCH   1   2
BRANCH   1  15
ATOM     15  N   UNL     1      48.573   5.919  14.853  0.00  0.00    +0.000 N 
ATOM     16  C   UNL     1      49.017   7.106  15.378  0.00  0.00    +0.000 C 
ATOM     17  O   UNL     1      48.440   7.704  16.281  0.00  0.00    +0.000 OA
ATOM     18  H   UNL     1      48.938   5.640  13.949  0.00  0.00    +0.000 HD
BRANCH  16  19
ATOM     19  C   UNL     1      50.282   7.595  14.828  0.00  0.00    +0.000 A 
ATOM     20  C   UNL     1      51.448   7.557  15.579  0.00  0.00    +0.000 A 
ATOM     21  S   UNL     1      52.805   8.175  14.743  0.00  0.00    +0.000 S 
ATOM     22  C   UNL     1      51.865   8.554  13.377  0.00  0.00    +0.000 A 
ATOM     23  N   UNL     1      52.407   9.163  12.287  0.00  0.00    +0.000 NA
ATOM     24  C   UNL     1      51.560   9.427  11.348  0.00  0.00    +0.000 A 
ATOM     25  N   UNL     1      50.224   9.123  11.388  0.00  0.00    +0.000 N 
ATOM     26  C   UNL     1      49.643   8.462  12.438  0.00  0.00    +0.000 A 
ATOM     27  O   UNL     1      48.473   8.120  12.404  0.00  0.00    +0.000 OA
ATOM     28  C   UNL     1      50.546   8.181  13.541  0.00  0.00    +0.000 A 
ATOM     29  H   UNL     1      49.616   9.320  10.607  0.00  0.00    +0.000 HD
ENDBRANCH  16  19
ENDBRANCH   1  15
BRANCH   1  30
ATOM     30  C   UNL     1      47.492   4.079  16.134  0.00  0.00    +0.000 C 
BRANCH  30  31
ATOM     31  N   UNL     1      48.861   3.888  16.628  0.00  0.00    +0.000 NA
ATOM     32  H   UNL     1      48.851   3.980  17.643  0.00  0.00    +0.000 HD
ATOM     33  H   UNL     1      49.457   4.639  16.279  0.00  0.00    +0.000 HD
ENDBRANCH  30  31
ENDBRANCH   1  30
TORSDOF 7
ENDMDL
MODEL 9
REMARK VINA RESULT:    -6.656      2.866      4.060
REMARK INTER + INTRA:          -9.890
REMARK INTER:                  -8.421
REMARK INTRA:                  -1.469
REMARK UNBOUND:                -0.704
REMARK  Name = 
REMARK  7 active torsions:
REMARK  status: ('A' for Active; 'I' for Inactive)
REMARK    1  A    between atoms: N_1  and  C_2
REMARK    2  A    between atoms: C_2  and  C_3
REMARK    3  A    between atoms: C_3  and  N_4
REMARK    4  A    between atoms: C_3  and  C_17
REMARK    5  A    between atoms: C_5  and  C_7
REMARK    6  A    between atoms: C_20  and  O_21
REMARK    7  A    between atoms: O_21  and  C_22
REMARK                            x       y       z     vdW  Elec       q    Type
REMARK                         _______ _______ _______ _____ _____    ______ ____
ROOT
ATOM      1  C   UNL     1      49.082   8.663  14.285  0.00  0.00    +0.000 C 
ENDROOT
BRANCH   1   2
ATOM      2  C   UNL     1      47.950   8.127  13.406  0.00  0.00    +0.000 A 
ATOM      3  C   UNL     1      46.673   8.700  13.481  0.00  0.00    +0.000 A 
ATOM      4  C   UNL     1      45.636   8.233  12.673  0.00  0.00    +0.000 A 
ATOM      5  C   UNL     1      45.863   7.222  11.738  0.00  0.00    +0.000 A 
ATOM      6  C   UNL     1      47.119   6.615  11.677  0.00  0.00    +0.000 A 
ATOM      7  C   UNL     1      48.155   7.067  12.502  0.00  0.00    +0.000 A 
BRANCH   5   8
ATOM      8  O   UNL     1      44.886   6.732  10.895  0.00  0.00    +0.000 OA
BRANCH   8   9
ATOM      9  C   UNL     1      44.436   5.432  11.109  0.00  0.00    +0.000 A 
ATOM     10  C   UNL     1      43.828   5.169  12.329  0.00  0.00    +0.000 A 
ATOM     11  C   UNL     1      43.348   3.881  12.561  0.00  0.00    +0.000 A 
ATOM     12  C   UNL     1      43.487   2.911  11.572  0.00  0.00    +0.000 A 
ATOM     13  C   UNL     1      44.121   3.263  10.395  0.00  0.00    +0.000 A 
ATOM     14  N   UNL     1      44.619   4.491  10.153  0.00  0.00    +0.000 NA
ENDBRANCH   8   9
ENDBRANCH   5   8
ENDBRANCH   1   2
BRANCH   1  15
ATOM     15  N   UNL     1      49.159   7.851  15.488  0.00  0.00    +0.000 N 
ATOM     16  C   UNL     1      50.284   7.167  15.871  0.00  0.00    +0.000 C 
ATOM     17  O   UNL     1      51.366   7.270  15.302  0.00  0.00    +0.000 OA
ATOM     18  H   UNL     1      48.264   7.510  15.823  0.00  0.00    +0.000 HD
BRANCH  16  19
ATOM     19  C   UNL     1      50.129   6.335  17.065  0.00  0.00    +0.000 A 
ATOM     20  C   UNL     1      50.920   6.543  18.187  0.00  0.00    +0.000 A 
ATOM     21  S   UNL     1      50.572   5.462  19.464  0.00  0.00    +0.000 S 
ATOM     22  C   UNL     1      49.392   4.657  18.539  0.00  0.00    +0.000 A 
ATOM     23  N   UNL     1      48.721   3.578  19.026  0.00  0.00    +0.000 NA
ATOM     24  C   UNL     1      47.890   3.046  18.192  0.00  0.00    +0.000 A 
ATOM     25  N   UNL     1      47.652   3.504  16.922  0.00  0.00    +0.000 N 
ATOM     26  C   UNL     1      48.262   4.617  16.407  0.00  0.00    +0.000 A 
ATOM     27  O   UNL     1      47.961   5.056  15.310  0.00  0.00    +0.000 OA
ATOM     28  C   UNL     1      49.241   5.227  17.291  0.00  0.00    +0.000 A 
ATOM     29  H   UNL     1      46.963   3.069  16.327  0.00  0.00    +0.000 HD
ENDBRANCH  16  19
ENDBRANCH   1  15
BRANCH   1  30
ATOM     30  C   UNL     1      48.878  10.166  14.620  0.00  0.00    +0.000 C 
BRANCH  30  31
ATOM     31  N   UNL     1      48.458  10.438  16.001  0.00  0.00    +0.000 NA
ATOM     32  H   UNL     1      49.138  10.014  16.630  0.00  0.00    +0.000 HD
ATOM     33  H   UNL     1      47.570   9.971  16.184  0.00  0.00    +0.000 HD
ENDBRANCH  30  31
ENDBRANCH   1  30
TORSDOF 7
ENDMDL
