MODEL 1
REMARK VINA RESULT:    -7.856      0.000      0.000
REMARK INTER + INTRA:         -10.822
REMARK INTER:                 -10.152
REMARK INTRA:                  -0.670
REMARK UNBOUND:                -0.670
REMARK  Name = 
REMARK  7 active torsions:
REMARK  status: ('A' for Active; 'I' for Inactive)
REMARK    1  A    between atoms: C_1  and  C_2
REMARK    2  A    between atoms: C_2  and  C_3
REMARK    3  A    between atoms: C_2  and  C_4
REMARK    4  A    between atoms: C_2  and  C_18
REMARK    5  A    between atoms: C_4  and  O_5
REMARK    6  A    between atoms: O_5  and  C_6
REMARK    7  A    between atoms: C_10  and  C_11
REMARK                            x       y       z     vdW  Elec       q    Type
REMARK                         _______ _______ _______ _____ _____    ______ ____
ROOT
ATOM      1  C   UNL     1      44.574   5.170  10.630  0.00  0.00    +0.000 A 
ATOM      2  C   UNL     1      43.669   4.334  11.264  0.00  0.00    +0.000 A 
ATOM      3  N   UNL     1      43.453   3.044  10.913  0.00  0.00    +0.000 NA
ATOM      4  C   UNL     1      44.189   2.565   9.880  0.00  0.00    +0.000 A 
ATOM      5  C   UNL     1      45.128   3.302   9.157  0.00  0.00    +0.000 A 
ATOM      6  C   UNL     1      45.291   4.637   9.560  0.00  0.00    +0.000 A 
ENDROOT
BRANCH   5   7
ATOM      7  C   UNL     1      45.915   2.744   8.042  0.00  0.00    +0.000 A 
ATOM      8  C   UNL     1      46.259   3.495   6.910  0.00  0.00    +0.000 A 
ATOM      9  C   UNL     1      47.029   2.932   5.894  0.00  0.00    +0.000 A 
ATOM     10  C   UNL     1      47.452   1.621   6.032  0.00  0.00    +0.000 A 
ATOM     11  N   UNL     1      47.148   0.852   7.093  0.00  0.00    +0.000 NA
ATOM     12  C   UNL     1      46.389   1.426   8.058  0.00  0.00    +0.000 A 
ENDBRANCH   5   7
BRANCH   1  13
ATOM     13  O   UNL     1      44.706   6.439  11.116  0.00  0.00    +0.000 OA
BRANCH  13  14
ATOM     14  C   UNL     1      44.949   6.548  12.522  0.00  0.00    +0.000 C 
BRANCH  14  16
ATOM     15  C   UNL     1      47.297   6.708  11.571  0.00  0.00    +0.000 C 
ATOM     16  C   UNL     1      46.454   6.728  12.863  0.00  0.00    +0.000 C 
ATOM     17  C   UNL     1      46.579   8.149  13.471  0.00  0.00    +0.000 C 
BRANCH  16  18
ATOM     18  C   UNL     1      46.936   5.628  13.819  0.00  0.00    +0.000 A 
ATOM     19  C   UNL     1      47.556   5.890  15.048  0.00  0.00    +0.000 A 
ATOM     20  C   UNL     1      47.966   4.842  15.874  0.00  0.00    +0.000 A 
ATOM     21  C   UNL     1      47.745   3.546  15.452  0.00  0.00    +0.000 A 
ATOM     22  N   UNL     1      47.158   3.237  14.282  0.00  0.00    +0.000 NA
ATOM     23  C   UNL     1      46.774   4.274  13.501  0.00  0.00    +0.000 A 
ENDBRANCH  16  18
ENDBRANCH  14  16
ENDBRANCH  13  14
ENDBRANCH   1  13
TORSDOF 5
ENDMDL
MODEL 2
REMARK VINA RESULT:    -7.473      2.130      3.117
REMARK INTER + INTRA:         -10.328
REMARK INTER:                  -9.650
REMARK INTRA:                  -0.678
REMARK UNBOUND:                -0.670
REMARK  Name = 
REMARK  7 active torsions:
REMARK  status: ('A' for Active; 'I' for Inactive)
REMARK    1  A    between atoms: C_1  and  C_2
REMARK    2  A    between atoms: C_2  and  C_3
REMARK    3  A    between atoms: C_2  and  C_4
REMARK    4  A    between atoms: C_2  and  C_18
REMARK    5  A    between atoms: C_4  and  O_5
REMARK    6  A    between atoms: O_5  and  C_6
REMARK    7  A    between atoms: C_10  and  C_11
REMARK                            x       y       z     vdW  Elec       q    Type
REMARK                         _______ _______ _______ _____ _____    ______ ____
ROOT
ATOM      1  C   UNL     1      44.534   5.011  10.775  0.00  0.00    +0.000 A 
ATOM      2  C   UNL     1      43.642   4.132  11.368  0.00  0.00    +0.000 A 
ATOM      3  N   UNL     1      43.444   2.857  10.954  0.00  0.00    +0.000 NA
ATOM      4  C   UNL     1      44.185   2.441   9.898  0.00  0.00    +0.000 A 
ATOM      5  C   UNL     1      45.112   3.226   9.212  0.00  0.00    +0.000 A 
ATOM      6  C   UNL     1      45.257   4.542   9.680  0.00  0.00    +0.000 A 
ENDROOT
BRANCH   5   7
ATOM      7  C   UNL     1      45.905   2.736   8.070  0.00  0.00    +0.000 A 
ATOM      8  C   UNL     1      46.212   3.539   6.963  0.00  0.00    +0.000 A 
ATOM      9  C   UNL     1      46.990   3.039   5.919  0.00  0.00    +0.000 A 
ATOM     10  C   UNL     1      47.457   1.738   6.005  0.00  0.00    +0.000 A 
ATOM     11  N   UNL     1      47.191   0.922   7.041  0.00  0.00    +0.000 NA
ATOM     12  C   UNL     1      46.423   1.435   8.033  0.00  0.00    +0.000 A 
ENDBRANCH   5   7
BRANCH   1  13
ATOM     13  O   UNL     1      44.648   6.257  11.323  0.00  0.00    +0.000 OA
BRANCH  13  14
ATOM     14  C   UNL     1      45.871   6.949  11.054  0.00  0.00    +0.000 C 
BRANCH  14  16
ATOM     15  C   UNL     1      45.629   8.561  13.001  0.00  0.00    +0.000 C 
ATOM     16  C   UNL     1      46.544   7.509  12.338  0.00  0.00    +0.000 C 
ATOM     17  C   UNL     1      46.646   6.308  13.315  0.00  0.00    +0.000 C 
BRANCH  16  18
ATOM     18  C   UNL     1      47.909   8.131  12.016  0.00  0.00    +0.000 A 
ATOM     19  C   UNL     1      49.077   7.379  11.835  0.00  0.00    +0.000 A 
ATOM     20  C   UNL     1      50.288   8.008  11.538  0.00  0.00    +0.000 A 
ATOM     21  C   UNL     1      50.305   9.383  11.426  0.00  0.00    +0.000 A 
ATOM     22  N   UNL     1      49.217  10.155  11.593  0.00  0.00    +0.000 NA
ATOM     23  C   UNL     1      48.057   9.517  11.883  0.00  0.00    +0.000 A 
ENDBRANCH  16  18
ENDBRANCH  14  16
ENDBRANCH  13  14
ENDBRANCH   1  13
TORSDOF 5
ENDMDL
MODEL 3
REMARK VINA RESULT:    -7.037      1.671      2.120
REMARK INTER + INTRA:          -9.765
REMARK INTER:                  -9.044
REMARK INTRA:                  -0.721
REMARK UNBOUND:                -0.670
REMARK  Name = 
REMARK  7 active torsions:
REMARK  status: ('A' for Active; 'I' for Inactive)
REMARK    1  A    between atoms: C_1  and  C_2
REMARK    2  A    between atoms: C_2  and  C_3
REMARK    3  A    between atoms: C_2  and  C_4
REMARK    4  A    between atoms: C_2  and  C_18
REMARK    5  A    between atoms: C_4  and  O_5
REMARK    6  A    between atoms: O_5  and  C_6
REMARK    7  A    between atoms: C_10  and  C_11
REMARK                            x       y       z     vdW  Elec       q    Type
REMARK                         _______ _______ _______ _____ _____    ______ ____
ROOT
ATOM      1  C   UNL     1      44.502   5.278  11.181  0.00  0.00    +0.000 A 
ATOM      2  C   UNL     1      43.523   4.480  11.751  0.00  0.00    +0.000 A 
ATOM      3  N   UNL     1      43.210   3.236  11.314  0.00  0.00    +0.000 NA
ATOM      4  C   UNL     1      43.920   2.766  10.260  0.00  0.00    +0.000 A 
ATOM      5  C   UNL     1      44.926   3.470   9.596  0.00  0.00    +0.000 A 
ATOM      6  C   UNL     1      45.190   4.759  10.086  0.00  0.00    +0.000 A 
ENDROOT
BRANCH   5   7
ATOM      7  C   UNL     1      45.683   2.922   8.454  0.00  0.00    +0.000 A 
ATOM      8  C   UNL     1      46.078   3.709   7.364  0.00  0.00    +0.000 A 
ATOM      9  C   UNL     1      46.818   3.152   6.321  0.00  0.00    +0.000 A 
ATOM     10  C   UNL     1      47.157   1.812   6.391  0.00  0.00    +0.000 A 
ATOM     11  N   UNL     1      46.801   1.009   7.411  0.00  0.00    +0.000 NA
ATOM     12  C   UNL     1      46.074   1.579   8.402  0.00  0.00    +0.000 A 
ENDBRANCH   5   7
BRANCH   1  13
ATOM     13  O   UNL     1      44.727   6.499  11.750  0.00  0.00    +0.000 OA
BRANCH  13  14
ATOM     14  C   UNL     1      45.656   6.520  12.839  0.00  0.00    +0.000 C 
BRANCH  14  16
ATOM     15  C   UNL     1      47.658   7.216  11.440  0.00  0.00    +0.000 C 
ATOM     16  C   UNL     1      46.778   7.579  12.656  0.00  0.00    +0.000 C 
ATOM     17  C   UNL     1      46.050   8.906  12.317  0.00  0.00    +0.000 C 
BRANCH  16  18
ATOM     18  C   UNL     1      47.646   7.682  13.917  0.00  0.00    +0.000 A 
ATOM     19  C   UNL     1      48.267   6.580  14.519  0.00  0.00    +0.000 A 
ATOM     20  C   UNL     1      49.049   6.744  15.665  0.00  0.00    +0.000 A 
ATOM     21  C   UNL     1      49.195   8.013  16.186  0.00  0.00    +0.000 A 
ATOM     22  N   UNL     1      48.620   9.105  15.653  0.00  0.00    +0.000 NA
ATOM     23  C   UNL     1      47.865   8.915  14.543  0.00  0.00    +0.000 A 
ENDBRANCH  16  18
ENDBRANCH  14  16
ENDBRANCH  13  14
ENDBRANCH   1  13
TORSDOF 5
ENDMDL
MODEL 4
REMARK VINA RESULT:    -7.000      2.896      6.833
REMARK INTER + INTRA:          -9.717
REMARK INTER:                  -8.878
REMARK INTRA:                  -0.839
REMARK UNBOUND:                -0.670
REMARK  Name = 
REMARK  7 active torsions:
REMARK  status: ('A' for Active; 'I' for Inactive)
REMARK    1  A    between atoms: C_1  and  C_2
REMARK    2  A    between atoms: C_2  and  C_3
REMARK    3  A    between atoms: C_2  and  C_4
REMARK    4  A    between atoms: C_2  and  C_18
REMARK    5  A    between atoms: C_4  and  O_5
REMARK    6  A    between atoms: O_5  and  C_6
REMARK    7  A    between atoms: C_10  and  C_11
REMARK                            x       y       z     vdW  Elec       q    Type
REMARK                         _______ _______ _______ _____ _____    ______ ____
ROOT
ATOM      1  C   UNL     1      46.418   6.115  12.998  0.00  0.00    +0.000 A 
ATOM      2  C   UNL     1      47.181   5.495  13.976  0.00  0.00    +0.000 A 
ATOM      3  N   UNL     1      48.432   5.883  14.321  0.00  0.00    +0.000 NA
ATOM      4  C   UNL     1      48.940   6.951  13.659  0.00  0.00    +0.000 A 
ATOM      5  C   UNL     1      48.279   7.658  12.654  0.00  0.00    +0.000 A 
ATOM      6  C   UNL     1      46.993   7.195  12.332  0.00  0.00    +0.000 A 
ENDROOT
BRANCH   5   7
ATOM      7  C   UNL     1      48.863   8.821  11.960  0.00  0.00    +0.000 A 
ATOM      8  C   UNL     1      48.129   9.983  11.684  0.00  0.00    +0.000 A 
ATOM      9  C   UNL     1      48.733  11.068  11.051  0.00  0.00    +0.000 A 
ATOM     10  C   UNL     1      50.071  10.974  10.708  0.00  0.00    +0.000 A 
ATOM     11  N   UNL     1      50.822   9.883  10.944  0.00  0.00    +0.000 NA
ATOM     12  C   UNL     1      50.202   8.843  11.551  0.00  0.00    +0.000 A 
ENDBRANCH   5   7
BRANCH   1  13
ATOM     13  O   UNL     1      45.160   5.631  12.782  0.00  0.00    +0.000 OA
BRANCH  13  14
ATOM     14  C   UNL     1      45.069   4.231  12.496  0.00  0.00    +0.000 C 
BRANCH  14  16
ATOM     15  C   UNL     1      43.286   2.632  11.651  0.00  0.00    +0.000 C 
ATOM     16  C   UNL     1      44.085   3.915  11.335  0.00  0.00    +0.000 C 
ATOM     17  C   UNL     1      43.075   5.091  11.310  0.00  0.00    +0.000 C 
BRANCH  16  18
ATOM     18  C   UNL     1      44.837   3.749  10.008  0.00  0.00    +0.000 A 
ATOM     19  C   UNL     1      44.999   2.516   9.361  0.00  0.00    +0.000 A 
ATOM     20  C   UNL     1      45.692   2.435   8.151  0.00  0.00    +0.000 A 
ATOM     21  C   UNL     1      46.210   3.594   7.611  0.00  0.00    +0.000 A 
ATOM     22  N   UNL     1      46.089   4.802   8.189  0.00  0.00    +0.000 NA
ATOM     23  C   UNL     1      45.414   4.849   9.363  0.00  0.00    +0.000 A 
ENDBRANCH  16  18
ENDBRANCH  14  16
ENDBRANCH  13  14
ENDBRANCH   1  13
TORSDOF 5
ENDMDL
MODEL 5
REMARK VINA RESULT:    -6.982      2.045      7.598
REMARK INTER + INTRA:          -9.693
REMARK INTER:                  -9.084
REMARK INTRA:                  -0.609
REMARK UNBOUND:                -0.670
REMARK  Name = 
REMARK  7 active torsions:
REMARK  status: ('A' for Active; 'I' for Inactive)
REMARK    1  A    between atoms: C_1  and  C_2
REMARK    2  A    between atoms: C_2  and  C_3
REMARK    3  A    between atoms: C_2  and  C_4
REMARK    4  A    between atoms: C_2  and  C_18
REMARK    5  A    between atoms: C_4  and  O_5
REMARK    6  A    between atoms: O_5  and  C_6
REMARK    7  A    between atoms: C_10  and  C_11
REMARK                            x       y       z     vdW  Elec       q    Type
REMARK                         _______ _______ _______ _____ _____    ______ ____
ROOT
ATOM      1  C   UNL     1      46.769   5.870  12.877  0.00  0.00    +0.000 A 
ATOM      2  C   UNL     1      47.507   7.025  12.674  0.00  0.00    +0.000 A 
ATOM      3  N   UNL     1      48.398   7.523  13.565  0.00  0.00    +0.000 NA
ATOM      4  C   UNL     1      48.565   6.821  14.713  0.00  0.00    +0.000 A 
ATOM      5  C   UNL     1      47.882   5.648  15.039  0.00  0.00    +0.000 A 
ATOM      6  C   UNL     1      46.961   5.196  14.082  0.00  0.00    +0.000 A 
ENDROOT
BRANCH   5   7
ATOM      7  C   UNL     1      48.095   4.908  16.297  0.00  0.00    +0.000 A 
ATOM      8  C   UNL     1      47.476   3.679  16.564  0.00  0.00    +0.000 A 
ATOM      9  C   UNL     1      47.730   3.002  17.756  0.00  0.00    +0.000 A 
ATOM     10  C   UNL     1      48.611   3.566  18.663  0.00  0.00    +0.000 A 
ATOM     11  N   UNL     1      49.230   4.744  18.462  0.00  0.00    +0.000 NA
ATOM     12  C   UNL     1      48.952   5.381  17.298  0.00  0.00    +0.000 A 
ENDBRANCH   5   7
BRANCH   1  13
ATOM     13  O   UNL     1      45.932   5.474  11.874  0.00  0.00    +0.000 OA
BRANCH  13  14
ATOM     14  C   UNL     1      45.278   4.215  12.065  0.00  0.00    +0.000 C 
BRANCH  14  16
ATOM     15  C   UNL     1      43.383   2.689  11.338  0.00  0.00    +0.000 C 
ATOM     16  C   UNL     1      44.283   3.872  10.922  0.00  0.00    +0.000 C 
ATOM     17  C   UNL     1      43.368   5.116  10.775  0.00  0.00    +0.000 C 
BRANCH  16  18
ATOM     18  C   UNL     1      45.032   3.528   9.627  0.00  0.00    +0.000 A 
ATOM     19  C   UNL     1      45.315   2.217   9.224  0.00  0.00    +0.000 A 
ATOM     20  C   UNL     1      45.998   1.973   8.030  0.00  0.00    +0.000 A 
ATOM     21  C   UNL     1      46.384   3.051   7.260  0.00  0.00    +0.000 A 
ATOM     22  N   UNL     1      46.142   4.330   7.600  0.00  0.00    +0.000 NA
ATOM     23  C   UNL     1      45.481   4.536   8.765  0.00  0.00    +0.000 A 
ENDBRANCH  16  18
ENDBRANCH  14  16
ENDBRANCH  13  14
ENDBRANCH   1  13
TORSDOF 5
ENDMDL
MODEL 6
REMARK VINA RESULT:    -6.523      2.641      7.093
REMARK INTER + INTRA:          -9.100
REMARK INTER:                  -8.351
REMARK INTRA:                  -0.749
REMARK UNBOUND:                -0.670
REMARK  Name = 
REMARK  7 active torsions:
REMARK  status: ('A' for Active; 'I' for Inactive)
REMARK    1  A    between atoms: C_1  and  C_2
REMARK    2  A    between atoms: C_2  and  C_3
REMARK    3  A    between atoms: C_2  and  C_4
REMARK    4  A    between atoms: C_2  and  C_18
REMARK    5  A    between atoms: C_4  and  O_5
REMARK    6  A    between atoms: O_5  and  C_6
REMARK    7  A    between atoms: C_10  and  C_11
REMARK                            x       y       z     vdW  Elec       q    Type
REMARK                         _______ _______ _______ _____ _____    ______ ____
ROOT
ATOM      1  C   UNL     1      46.668   4.921  14.103  0.00  0.00    +0.000 A 
ATOM      2  C   UNL     1      47.105   4.420  15.319  0.00  0.00    +0.000 A 
ATOM      3  N   UNL     1      48.120   4.955  16.039  0.00  0.00    +0.000 NA
ATOM      4  C   UNL     1      48.720   6.053  15.518  0.00  0.00    +0.000 A 
ATOM      5  C   UNL     1      48.379   6.652  14.305  0.00  0.00    +0.000 A 
ATOM      6  C   UNL     1      47.331   6.038  13.600  0.00  0.00    +0.000 A 
ENDROOT
BRANCH   5   7
ATOM      7  C   UNL     1      49.052   7.851  13.773  0.00  0.00    +0.000 A 
ATOM      8  C   UNL     1      49.991   8.582  14.514  0.00  0.00    +0.000 A 
ATOM      9  C   UNL     1      50.622   9.693  13.957  0.00  0.00    +0.000 A 
ATOM     10  C   UNL     1      50.306  10.053  12.658  0.00  0.00    +0.000 A 
ATOM     11  N   UNL     1      49.411   9.392  11.903  0.00  0.00    +0.000 NA
ATOM     12  C   UNL     1      48.807   8.323  12.477  0.00  0.00    +0.000 A 
ENDBRANCH   5   7
BRANCH   1  13
ATOM     13  O   UNL     1      45.611   4.293  13.507  0.00  0.00    +0.000 OA
BRANCH  13  14
ATOM     14  C   UNL     1      44.873   5.074  12.562  0.00  0.00    +0.000 C 
BRANCH  14  16
ATOM     15  C   UNL     1      43.624   2.874  12.336  0.00  0.00    +0.000 C 
ATOM     16  C   UNL     1      43.967   4.209  11.641  0.00  0.00    +0.000 C 
ATOM     17  C   UNL     1      42.644   5.003  11.490  0.00  0.00    +0.000 C 
BRANCH  16  18
ATOM     18  C   UNL     1      44.654   3.937  10.296  0.00  0.00    +0.000 A 
ATOM     19  C   UNL     1      44.691   2.674   9.690  0.00  0.00    +0.000 A 
ATOM     20  C   UNL     1      45.330   2.495   8.461  0.00  0.00    +0.000 A 
ATOM     21  C   UNL     1      45.919   3.589   7.860  0.00  0.00    +0.000 A 
ATOM     22  N   UNL     1      45.917   4.822   8.397  0.00  0.00    +0.000 NA
ATOM     23  C   UNL     1      45.293   4.964   9.592  0.00  0.00    +0.000 A 
ENDBRANCH  16  18
ENDBRANCH  14  16
ENDBRANCH  13  14
ENDBRANCH   1  13
TORSDOF 5
ENDMDL
MODEL 7
REMARK VINA RESULT:    -6.422      2.227      7.829
REMARK INTER + INTRA:          -8.969
REMARK INTER:                  -8.287
REMARK INTRA:                  -0.682
REMARK UNBOUND:                -0.670
REMARK  Name = 
REMARK  7 active torsions:
REMARK  status: ('A' for Active; 'I' for Inactive)
REMARK    1  A    between atoms: C_1  and  C_2
REMARK    2  A    between atoms: C_2  and  C_3
REMARK    3  A    between atoms: C_2  and  C_4
REMARK    4  A    between atoms: C_2  and  C_18
REMARK    5  A    between atoms: C_4  and  O_5
REMARK    6  A    between atoms: O_5  and  C_6
REMARK    7  A    between atoms: C_10  and  C_11
REMARK                            x       y       z     vdW  Elec       q    Type
REMARK                         _______ _______ _______ _____ _____    ______ ____
ROOT
ATOM      1  C   UNL     1      47.007   5.199  13.639  0.00  0.00    +0.000 A 
ATOM      2  C   UNL     1      47.743   6.256  13.127  0.00  0.00    +0.000 A 
ATOM      3  N   UNL     1      48.631   6.981  13.848  0.00  0.00    +0.000 NA
ATOM      4  C   UNL     1      48.798   6.622  15.144  0.00  0.00    +0.000 A 
ATOM      5  C   UNL     1      48.117   5.583  15.780  0.00  0.00    +0.000 A 
ATOM      6  C   UNL     1      47.198   4.883  14.983  0.00  0.00    +0.000 A 
ENDROOT
BRANCH   5   7
ATOM      7  C   UNL     1      48.329   5.218  17.193  0.00  0.00    +0.000 A 
ATOM      8  C   UNL     1      48.334   6.165  18.226  0.00  0.00    +0.000 A 
ATOM      9  C   UNL     1      48.511   5.768  19.550  0.00  0.00    +0.000 A 
ATOM     10  C   UNL     1      48.673   4.420  19.822  0.00  0.00    +0.000 A 
ATOM     11  N   UNL     1      48.680   3.468  18.871  0.00  0.00    +0.000 NA
ATOM     12  C   UNL     1      48.517   3.889  17.593  0.00  0.00    +0.000 A 
ENDBRANCH   5   7
BRANCH   1  13
ATOM     13  O   UNL     1      46.171   4.541  12.783  0.00  0.00    +0.000 OA
BRANCH  13  14
ATOM     14  C   UNL     1      44.774   4.808  12.944  0.00  0.00    +0.000 C 
BRANCH  14  16
ATOM     15  C   UNL     1      42.560   5.229  11.775  0.00  0.00    +0.000 C 
ATOM     16  C   UNL     1      44.095   5.285  11.630  0.00  0.00    +0.000 C 
ATOM     17  C   UNL     1      44.489   6.777  11.473  0.00  0.00    +0.000 C 
BRANCH  16  18
ATOM     18  C   UNL     1      44.539   4.424  10.439  0.00  0.00    +0.000 A 
ATOM     19  C   UNL     1      45.307   4.916   9.375  0.00  0.00    +0.000 A 
ATOM     20  C   UNL     1      45.682   4.077   8.323  0.00  0.00    +0.000 A 
ATOM     21  C   UNL     1      45.281   2.757   8.359  0.00  0.00    +0.000 A 
ATOM     22  N   UNL     1      44.542   2.233   9.353  0.00  0.00    +0.000 NA
ATOM     23  C   UNL     1      44.190   3.071  10.357  0.00  0.00    +0.000 A 
ENDBRANCH  16  18
ENDBRANCH  14  16
ENDBRANCH  13  14
ENDBRANCH   1  13
TORSDOF 5
ENDMDL
MODEL 8
REMARK VINA RESULT:    -6.285      3.703      5.827
REMARK INTER + INTRA:          -8.793
REMARK INTER:                  -7.977
REMARK INTRA:                  -0.816
REMARK UNBOUND:                -0.670
REMARK  Name = 
REMARK  7 active torsions:
REMARK  status: ('A' for Active; 'I' for Inactive)
REMARK    1  A    between atoms: C_1  and  C_2
REMARK    2  A    between atoms: C_2  and  C_3
REMARK    3  A    between atoms: C_2  and  C_4
REMARK    4  A    between atoms: C_2  and  C_18
REMARK    5  A    between atoms: C_4  and  O_5
REMARK    6  A    between atoms: O_5  and  C_6
REMARK    7  A    between atoms: C_10  and  C_11
REMARK                            x       y       z     vdW  Elec       q    Type
REMARK                         _______ _______ _______ _____ _____    ______ ____
ROOT
ATOM      1  C   UNL     1      48.265   6.270  14.747  0.00  0.00    +0.000 A 
ATOM      2  C   UNL     1      48.354   7.572  14.281  0.00  0.00    +0.000 A 
ATOM      3  N   UNL     1      47.512   8.111  13.367  0.00  0.00    +0.000 NA
ATOM      4  C   UNL     1      46.524   7.306  12.904  0.00  0.00    +0.000 A 
ATOM      5  C   UNL     1      46.328   5.979  13.288  0.00  0.00    +0.000 A 
ATOM      6  C   UNL     1      47.246   5.476  14.224  0.00  0.00    +0.000 A 
ENDROOT
BRANCH   5   7
ATOM      7  C   UNL     1      45.237   5.135  12.766  0.00  0.00    +0.000 A 
ATOM      8  C   UNL     1      43.964   5.642  12.473  0.00  0.00    +0.000 A 
ATOM      9  C   UNL     1      42.973   4.810  11.954  0.00  0.00    +0.000 A 
ATOM     10  C   UNL     1      43.276   3.478  11.729  0.00  0.00    +0.000 A 
ATOM     11  N   UNL     1      44.479   2.937  11.995  0.00  0.00    +0.000 NA
ATOM     12  C   UNL     1      45.416   3.770  12.509  0.00  0.00    +0.000 A 
ENDBRANCH   5   7
BRANCH   1  13
ATOM     13  O   UNL     1      49.168   5.877  15.693  0.00  0.00    +0.000 OA
BRANCH  13  14
ATOM     14  C   UNL     1      48.912   6.329  17.027  0.00  0.00    +0.000 C 
BRANCH  14  16
ATOM     15  C   UNL     1      48.946   5.630  19.468  0.00  0.00    +0.000 C 
ATOM     16  C   UNL     1      48.669   5.162  18.024  0.00  0.00    +0.000 C 
ATOM     17  C   UNL     1      47.155   4.838  17.928  0.00  0.00    +0.000 C 
BRANCH  16  18
ATOM     18  C   UNL     1      49.558   3.957  17.685  0.00  0.00    +0.000 A 
ATOM     19  C   UNL     1      50.906   3.865  18.054  0.00  0.00    +0.000 A 
ATOM     20  C   UNL     1      51.658   2.737  17.718  0.00  0.00    +0.000 A 
ATOM     21  C   UNL     1      51.042   1.720  17.018  0.00  0.00    +0.000 A 
ATOM     22  N   UNL     1      49.754   1.756  16.635  0.00  0.00    +0.000 NA
ATOM     23  C   UNL     1      49.050   2.864  16.972  0.00  0.00    +0.000 A 
ENDBRANCH  16  18
ENDBRANCH  14  16
ENDBRANCH  13  14
ENDBRANCH   1  13
TORSDOF 5
ENDMDL
MODEL 9
REMARK VINA RESULT:    -6.215      3.491      5.380
REMARK INTER + INTRA:          -8.702
REMARK INTER:                  -7.756
REMARK INTRA:                  -0.946
REMARK UNBOUND:                -0.670
REMARK  Name = 
REMARK  7 active torsions:
REMARK  status: ('A' for Active; 'I' for Inactive)
REMARK    1  A    between atoms: C_1  and  C_2
REMARK    2  A    between atoms: C_2  and  C_3
REMARK    3  A    between atoms: C_2  and  C_4
REMARK    4  A    between atoms: C_2  and  C_18
REMARK    5  A    between atoms: C_4  and  O_5
REMARK    6  A    between atoms: O_5  and  C_6
REMARK    7  A    between atoms: C_10  and  C_11
REMARK                            x       y       z     vdW  Elec       q    Type
REMARK                         _______ _______ _______ _____ _____    ______ ____
ROOT
ATOM      1  C   UNL     1      48.769   6.739  13.711  0.00  0.00    +0.000 A 
ATOM      2  C   UNL     1      49.137   7.606  12.695  0.00  0.00    +0.000 A 
ATOM      3  N   UNL     1      48.444   7.761  11.542  0.00  0.00    +0.000 NA
ATOM      4  C   UNL     1      47.321   7.016  11.404  0.00  0.00    +0.000 A 
ATOM      5  C   UNL     1      46.845   6.105  12.348  0.00  0.00    +0.000 A 
ATOM      6  C   UNL     1      47.618   5.979  13.513  0.00  0.00    +0.000 A 
ENDROOT
BRANCH   5   7
ATOM      7  C   UNL     1      45.613   5.315  12.166  0.00  0.00    +0.000 A 
ATOM      8  C   UNL     1      44.927   5.256  10.945  0.00  0.00    +0.000 A 
ATOM      9  C   UNL     1      43.782   4.471  10.813  0.00  0.00    +0.000 A 
ATOM     10  C   UNL     1      43.344   3.749  11.910  0.00  0.00    +0.000 A 
ATOM     11  N   UNL     1      43.959   3.771  13.106  0.00  0.00    +0.000 NA
ATOM     12  C   UNL     1      45.063   4.551  13.204  0.00  0.00    +0.000 A 
ENDBRANCH   5   7
BRANCH   1  13
ATOM     13  O   UNL     1      49.551   6.714  14.831  0.00  0.00    +0.000 OA
BRANCH  13  14
ATOM     14  C   UNL     1      48.938   7.196  16.032  0.00  0.00    +0.000 C 
BRANCH  14  16
ATOM     15  C   UNL     1      50.937   6.376  17.366  0.00  0.00    +0.000 C 
ATOM     16  C   UNL     1      49.396   6.418  17.297  0.00  0.00    +0.000 C 
ATOM     17  C   UNL     1      48.904   7.257  18.505  0.00  0.00    +0.000 C 
BRANCH  16  18
ATOM     18  C   UNL     1      48.833   4.990  17.296  0.00  0.00    +0.000 A 
ATOM     19  C   UNL     1      49.635   3.844  17.384  0.00  0.00    +0.000 A 
ATOM     20  C   UNL     1      49.058   2.572  17.383  0.00  0.00    +0.000 A 
ATOM     21  C   UNL     1      47.685   2.473  17.295  0.00  0.00    +0.000 A 
ATOM     22  N   UNL     1      46.868   3.537  17.204  0.00  0.00    +0.000 NA
ATOM     23  C   UNL     1      47.456   4.757  17.205  0.00  0.00    +0.000 A 
ENDBRANCH  16  18
ENDBRANCH  14  16
ENDBRANCH  13  14
ENDBRANCH   1  13
TORSDOF 5
ENDMDL
