MODEL 1
REMARK VINA RESULT:    -7.905      0.000      0.000
REMARK INTER + INTRA:         -12.252
REMARK INTER:                 -11.140
REMARK INTRA:                  -1.112
REMARK UNBOUND:                -1.112
REMARK  Name = 
REMARK  7 active torsions:
REMARK  status: ('A' for Active; 'I' for Inactive)
REMARK    1  A    between atoms: C_2  and  C_19
REMARK    2  A    between atoms: N_3  and  C_4
REMARK    3  A    between atoms: C_4  and  C_5
REMARK    4  A    between atoms: C_8  and  C_9
REMARK    5  A    between atoms: C_9  and  N_10
REMARK    6  A    between atoms: N_10  and  C_11
REMARK    7  A    between atoms: C_11  and  C_12
REMARK                            x       y       z     vdW  Elec       q    Type
REMARK                         _______ _______ _______ _____ _____    ______ ____
ROOT
ATOM      1  C   UNL     1      46.836   7.911  13.194  0.00  0.00    +0.000 C 
ENDROOT
BRANCH   1   2
ATOM      2  C   UNL     1      46.013   6.945  12.394  0.00  0.00    +0.000 A 
ATOM      3  C   UNL     1      46.442   6.493  11.145  0.00  0.00    +0.000 A 
ATOM      4  C   UNL     1      45.675   5.563  10.444  0.00  0.00    +0.000 A 
ATOM      5  C   UNL     1      44.483   5.118  11.007  0.00  0.00    +0.000 A 
ATOM      6  N   UNL     1      44.022   5.572  12.201  0.00  0.00    +0.000 NA
ATOM      7  C   UNL     1      44.790   6.476  12.857  0.00  0.00    +0.000 A 
BRANCH   5   8
ATOM      8  C   UNL     1      43.629   4.099  10.277  0.00  0.00    +0.000 C 
BRANCH   8   9
ATOM      9  N   UNL     1      44.199   3.649   8.996  0.00  0.00    +0.000 NA
ATOM     10  H   UNL     1      45.029   4.231   8.845  0.00  0.00    +0.000 HD
BRANCH   9  11
ATOM     11  C   UNL     1      44.664   2.257   9.085  0.00  0.00    +0.000 C 
BRANCH  11  12
ATOM     12  C   UNL     1      45.871   2.045   8.229  0.00  0.00    +0.000 A 
ATOM     13  N   UNL     1      46.493   0.908   7.986  0.00  0.00    +0.000 NA
ATOM     14  C   UNL     1      47.536   1.226   7.155  0.00  0.00    +0.000 A 
ATOM     15  C   UNL     1      47.550   2.573   6.884  0.00  0.00    +0.000 A 
ATOM     16  N   UNL     1      46.485   3.082   7.568  0.00  0.00    +0.000 N 
ATOM     17  H   UNL     1      46.186   4.048   7.628  0.00  0.00    +0.000 HD
ENDBRANCH  11  12
ENDBRANCH   9  11
ENDBRANCH   8   9
ENDBRANCH   5   8
ENDBRANCH   1   2
BRANCH   1  20
ATOM     18  O   UNL     1      49.361   6.710  13.464  0.00  0.00    +0.000 OA
ATOM     19  C   UNL     1      48.626   6.767  14.446  0.00  0.00    +0.000 C 
ATOM     20  N   UNL     1      47.365   7.303  14.387  0.00  0.00    +0.000 N 
ATOM     21  H   UNL     1      46.860   7.476  15.249  0.00  0.00    +0.000 HD
BRANCH  19  22
ATOM     22  C   UNL     1      49.037   6.213  15.742  0.00  0.00    +0.000 A 
ATOM     23  C   UNL     1      50.070   6.813  16.449  0.00  0.00    +0.000 A 
ATOM     24  S   UNL     1      50.417   6.048  17.934  0.00  0.00    +0.000 S 
ATOM     25  C   UNL     1      49.170   4.913  17.703  0.00  0.00    +0.000 A 
ATOM     26  N   UNL     1      48.896   3.973  18.647  0.00  0.00    +0.000 NA
ATOM     27  C   UNL     1      47.892   3.212  18.365  0.00  0.00    +0.000 A 
ATOM     28  N   UNL     1      47.151   3.289  17.214  0.00  0.00    +0.000 N 
ATOM     29  C   UNL     1      47.451   4.160  16.194  0.00  0.00    +0.000 A 
ATOM     30  O   UNL     1      46.874   4.100  15.112  0.00  0.00    +0.000 OA
ATOM     31  C   UNL     1      48.524   5.090  16.492  0.00  0.00    +0.000 A 
ATOM     32  H   UNL     1      46.399   2.639  17.039  0.00  0.00    +0.000 HD
ENDBRANCH  19  22
ENDBRANCH   1  20
TORSDOF 7
ENDMDL
MODEL 2
REMARK VINA RESULT:    -7.438      1.637      1.844
REMARK INTER + INTRA:         -11.594
REMARK INTER:                 -10.786
REMARK INTRA:                  -0.808
REMARK UNBOUND:                -1.112
REMARK  Name = 
REMARK  7 active torsions:
REMARK  status: ('A' for Active; 'I' for Inactive)
REMARK    1  A    between atoms: C_2  and  C_19
REMARK    2  A    between atoms: N_3  and  C_4
REMARK    3  A    between atoms: C_4  and  C_5
REMARK    4  A    between atoms: C_8  and  C_9
REMARK    5  A    between atoms: C_9  and  N_10
REMARK    6  A    between atoms: N_10  and  C_11
REMARK    7  A    between atoms: C_11  and  C_12
REMARK                            x       y       z     vdW  Elec       q    Type
REMARK                         _______ _______ _______ _____ _____    ______ ____
ROOT
ATOM      1  C   UNL     1      48.068   6.688  13.452  0.00  0.00    +0.000 C 
ENDROOT
BRANCH   1   2
ATOM      2  C   UNL     1      46.930   5.942  12.822  0.00  0.00    +0.000 A 
ATOM      3  C   UNL     1      46.387   6.348  11.602  0.00  0.00    +0.000 A 
ATOM      4  C   UNL     1      45.357   5.609  11.021  0.00  0.00    +0.000 A 
ATOM      5  C   UNL     1      44.883   4.483  11.687  0.00  0.00    +0.000 A 
ATOM      6  N   UNL     1      45.364   4.089  12.894  0.00  0.00    +0.000 NA
ATOM      7  C   UNL     1      46.365   4.829  13.433  0.00  0.00    +0.000 A 
BRANCH   5   8
ATOM      8  C   UNL     1      43.771   3.650  11.081  0.00  0.00    +0.000 C 
BRANCH   8   9
ATOM      9  N   UNL     1      43.955   3.358   9.649  0.00  0.00    +0.000 NA
ATOM     10  H   UNL     1      44.675   4.012   9.326  0.00  0.00    +0.000 HD
BRANCH   9  11
ATOM     11  C   UNL     1      44.493   2.002   9.452  0.00  0.00    +0.000 C 
BRANCH  11  12
ATOM     12  C   UNL     1      45.631   2.019   8.483  0.00  0.00    +0.000 A 
ATOM     13  N   UNL     1      46.398   1.006   8.130  0.00  0.00    +0.000 NA
ATOM     14  C   UNL     1      47.294   1.517   7.228  0.00  0.00    +0.000 A 
ATOM     15  C   UNL     1      47.071   2.857   7.024  0.00  0.00    +0.000 A 
ATOM     16  N   UNL     1      46.008   3.163   7.823  0.00  0.00    +0.000 N 
ATOM     17  H   UNL     1      45.568   4.066   7.957  0.00  0.00    +0.000 HD
ENDBRANCH  11  12
ENDBRANCH   9  11
ENDBRANCH   8   9
ENDBRANCH   5   8
ENDBRANCH   1   2
BRANCH   1  20
ATOM     18  O   UNL     1      50.195   6.674  15.288  0.00  0.00    +0.000 OA
ATOM     19  C   UNL     1      49.045   6.753  15.715  0.00  0.00    +0.000 C 
ATOM     20  N   UNL     1      47.953   6.729  14.887  0.00  0.00    +0.000 N 
ATOM     21  H   UNL     1      47.040   6.958  15.264  0.00  0.00    +0.000 HD
BRANCH  19  22
ATOM     22  C   UNL     1      48.768   6.829  17.154  0.00  0.00    +0.000 A 
ATOM     23  C   UNL     1      48.325   8.023  17.707  0.00  0.00    +0.000 A 
ATOM     24  S   UNL     1      48.048   7.937  19.388  0.00  0.00    +0.000 S 
ATOM     25  C   UNL     1      48.469   6.288  19.429  0.00  0.00    +0.000 A 
ATOM     26  N   UNL     1      48.404   5.578  20.586  0.00  0.00    +0.000 NA
ATOM     27  C   UNL     1      48.701   4.327  20.462  0.00  0.00    +0.000 A 
ATOM     28  N   UNL     1      49.079   3.727  19.289  0.00  0.00    +0.000 N 
ATOM     29  C   UNL     1      49.248   4.425  18.117  0.00  0.00    +0.000 A 
ATOM     30  O   UNL     1      49.741   3.897  17.124  0.00  0.00    +0.000 OA
ATOM     31  C   UNL     1      48.855   5.820  18.185  0.00  0.00    +0.000 A 
ATOM     32  H   UNL     1      49.333   2.750  19.267  0.00  0.00    +0.000 HD
ENDBRANCH  19  22
ENDBRANCH   1  20
TORSDOF 7
ENDMDL
MODEL 3
REMARK VINA RESULT:    -7.258      2.514      2.934
REMARK INTER + INTRA:         -11.340
REMARK INTER:                 -10.527
REMARK INTRA:                  -0.813
REMARK UNBOUND:                -1.112
REMARK  Name = 
REMARK  7 active torsions:
REMARK  status: ('A' for Active; 'I' for Inactive)
REMARK    1  A    between atoms: C_2  and  C_19
REMARK    2  A    between atoms: N_3  and  C_4
REMARK    3  A    between atoms: C_4  and  C_5
REMARK    4  A    between atoms: C_8  and  C_9
REMARK    5  A    between atoms: C_9  and  N_10
REMARK    6  A    between atoms: N_10  and  C_11
REMARK    7  A    between atoms: C_11  and  C_12
REMARK                            x       y       z     vdW  Elec       q    Type
REMARK                         _______ _______ _______ _____ _____    ______ ____
ROOT
ATOM      1  C   UNL     1      47.973   6.296  14.098  0.00  0.00    +0.000 C 
ENDROOT
BRANCH   1   2
ATOM      2  C   UNL     1      46.881   5.539  13.403  0.00  0.00    +0.000 A 
ATOM      3  C   UNL     1      46.004   6.179  12.526  0.00  0.00    +0.000 A 
ATOM      4  C   UNL     1      45.025   5.441  11.863  0.00  0.00    +0.000 A 
ATOM      5  C   UNL     1      44.939   4.073  12.106  0.00  0.00    +0.000 A 
ATOM      6  N   UNL     1      45.752   3.433  12.984  0.00  0.00    +0.000 NA
ATOM      7  C   UNL     1      46.693   4.178  13.613  0.00  0.00    +0.000 A 
BRANCH   5   8
ATOM      8  C   UNL     1      43.893   3.237  11.394  0.00  0.00    +0.000 C 
BRANCH   8   9
ATOM      9  N   UNL     1      44.447   2.316  10.387  0.00  0.00    +0.000 NA
ATOM     10  H   UNL     1      43.734   1.592  10.254  0.00  0.00    +0.000 HD
BRANCH   9  11
ATOM     11  C   UNL     1      44.616   2.992   9.091  0.00  0.00    +0.000 C 
BRANCH  11  12
ATOM     12  C   UNL     1      45.731   2.372   8.311  0.00  0.00    +0.000 A 
ATOM     13  N   UNL     1      46.101   1.106   8.308  0.00  0.00    +0.000 NA
ATOM     14  C   UNL     1      47.164   1.033   7.446  0.00  0.00    +0.000 A 
ATOM     15  C   UNL     1      47.445   2.268   6.913  0.00  0.00    +0.000 A 
ATOM     16  N   UNL     1      46.525   3.109   7.466  0.00  0.00    +0.000 N 
ATOM     17  H   UNL     1      46.431   4.109   7.329  0.00  0.00    +0.000 HD
ENDBRANCH  11  12
ENDBRANCH   9  11
ENDBRANCH   8   9
ENDBRANCH   5   8
ENDBRANCH   1   2
BRANCH   1  20
ATOM     18  O   UNL     1      50.132   6.208  15.894  0.00  0.00    +0.000 OA
ATOM     19  C   UNL     1      48.988   6.170  16.342  0.00  0.00    +0.000 C 
ATOM     20  N   UNL     1      47.884   6.171  15.530  0.00  0.00    +0.000 N 
ATOM     21  H   UNL     1      46.966   6.302  15.942  0.00  0.00    +0.000 HD
BRANCH  19  22
ATOM     22  C   UNL     1      48.735   6.070  17.784  0.00  0.00    +0.000 A 
ATOM     23  C   UNL     1      48.997   4.878  18.447  0.00  0.00    +0.000 A 
ATOM     24  S   UNL     1      48.650   4.933  20.116  0.00  0.00    +0.000 S 
ATOM     25  C   UNL     1      48.178   6.565  20.020  0.00  0.00    +0.000 A 
ATOM     26  N   UNL     1      47.797   7.250  21.131  0.00  0.00    +0.000 NA
ATOM     27  C   UNL     1      47.515   8.493  20.922  0.00  0.00    +0.000 A 
ATOM     28  N   UNL     1      47.559   9.108  19.698  0.00  0.00    +0.000 N 
ATOM     29  C   UNL     1      47.848   8.433  18.536  0.00  0.00    +0.000 A 
ATOM     30  O   UNL     1      47.724   8.968  17.438  0.00  0.00    +0.000 OA
ATOM     31  C   UNL     1      48.245   7.050  18.725  0.00  0.00    +0.000 A 
ATOM     32  H   UNL     1      47.292  10.076  19.596  0.00  0.00    +0.000 HD
ENDBRANCH  19  22
ENDBRANCH   1  20
TORSDOF 7
ENDMDL
MODEL 4
REMARK VINA RESULT:    -7.045      3.114      4.470
REMARK INTER + INTRA:         -11.041
REMARK INTER:                 -10.009
REMARK INTRA:                  -1.032
REMARK UNBOUND:                -1.112
REMARK  Name = 
REMARK  7 active torsions:
REMARK  status: ('A' for Active; 'I' for Inactive)
REMARK    1  A    between atoms: C_2  and  C_19
REMARK    2  A    between atoms: N_3  and  C_4
REMARK    3  A    between atoms: C_4  and  C_5
REMARK    4  A    between atoms: C_8  and  C_9
REMARK    5  A    between atoms: C_9  and  N_10
REMARK    6  A    between atoms: N_10  and  C_11
REMARK    7  A    between atoms: C_11  and  C_12
REMARK                            x       y       z     vdW  Elec       q    Type
REMARK                         _______ _______ _______ _____ _____    ______ ____
ROOT
ATOM      1  C   UNL     1      49.004   6.049  17.445  0.00  0.00    +0.000 C 
ENDROOT
BRANCH   1   2
ATOM      2  C   UNL     1      48.210   5.524  16.286  0.00  0.00    +0.000 A 
ATOM      3  C   UNL     1      48.187   6.195  15.063  0.00  0.00    +0.000 A 
ATOM      4  C   UNL     1      47.473   5.660  13.992  0.00  0.00    +0.000 A 
ATOM      5  C   UNL     1      46.783   4.466  14.177  0.00  0.00    +0.000 A 
ATOM      6  N   UNL     1      46.755   3.813  15.368  0.00  0.00    +0.000 NA
ATOM      7  C   UNL     1      47.458   4.360  16.389  0.00  0.00    +0.000 A 
BRANCH   5   8
ATOM      8  C   UNL     1      46.004   3.849  13.032  0.00  0.00    +0.000 C 
BRANCH   8   9
ATOM      9  N   UNL     1      44.549   4.059  13.117  0.00  0.00    +0.000 NA
ATOM     10  H   UNL     1      44.379   4.980  12.698  0.00  0.00    +0.000 HD
BRANCH   9  11
ATOM     11  C   UNL     1      43.824   3.077  12.296  0.00  0.00    +0.000 C 
BRANCH  11  12
ATOM     12  C   UNL     1      44.117   3.281  10.844  0.00  0.00    +0.000 A 
ATOM     13  N   UNL     1      44.010   4.400  10.153  0.00  0.00    +0.000 NA
ATOM     14  C   UNL     1      44.383   4.081   8.873  0.00  0.00    +0.000 A 
ATOM     15  C   UNL     1      44.726   2.754   8.781  0.00  0.00    +0.000 A 
ATOM     16  N   UNL     1      44.558   2.258  10.040  0.00  0.00    +0.000 N 
ATOM     17  H   UNL     1      44.693   1.305  10.358  0.00  0.00    +0.000 HD
ENDBRANCH  11  12
ENDBRANCH   9  11
ENDBRANCH   8   9
ENDBRANCH   5   8
ENDBRANCH   1   2
BRANCH   1  20
ATOM     18  O   UNL     1      51.656   6.161  16.522  0.00  0.00    +0.000 OA
ATOM     19  C   UNL     1      51.351   5.298  17.342  0.00  0.00    +0.000 C 
ATOM     20  N   UNL     1      50.071   5.154  17.812  0.00  0.00    +0.000 N 
ATOM     21  H   UNL     1      49.899   4.541  18.601  0.00  0.00    +0.000 HD
BRANCH  19  22
ATOM     22  C   UNL     1      52.337   4.328  17.834  0.00  0.00    +0.000 A 
ATOM     23  C   UNL     1      53.508   4.778  18.427  0.00  0.00    +0.000 A 
ATOM     24  S   UNL     1      54.540   3.523  18.943  0.00  0.00    +0.000 S 
ATOM     25  C   UNL     1      53.438   2.332  18.432  0.00  0.00    +0.000 A 
ATOM     26  N   UNL     1      53.696   1.011  18.623  0.00  0.00    +0.000 NA
ATOM     27  C   UNL     1      52.752   0.220  18.234  0.00  0.00    +0.000 A 
ATOM     28  N   UNL     1      51.582   0.630  17.650  0.00  0.00    +0.000 N 
ATOM     29  C   UNL     1      51.319   1.946  17.353  0.00  0.00    +0.000 A 
ATOM     30  O   UNL     1      50.340   2.269  16.688  0.00  0.00    +0.000 OA
ATOM     31  C   UNL     1      52.316   2.883  17.838  0.00  0.00    +0.000 A 
ATOM     32  H   UNL     1      50.898  -0.042  17.335  0.00  0.00    +0.000 HD
ENDBRANCH  19  22
ENDBRANCH   1  20
TORSDOF 7
ENDMDL
MODEL 5
REMARK VINA RESULT:    -6.831      2.540      3.535
REMARK INTER + INTRA:         -10.738
REMARK INTER:                  -9.882
REMARK INTRA:                  -0.856
REMARK UNBOUND:                -1.112
REMARK  Name = 
REMARK  7 active torsions:
REMARK  status: ('A' for Active; 'I' for Inactive)
REMARK    1  A    between atoms: C_2  and  C_19
REMARK    2  A    between atoms: N_3  and  C_4
REMARK    3  A    between atoms: C_4  and  C_5
REMARK    4  A    between atoms: C_8  and  C_9
REMARK    5  A    between atoms: C_9  and  N_10
REMARK    6  A    between atoms: N_10  and  C_11
REMARK    7  A    between atoms: C_11  and  C_12
REMARK                            x       y       z     vdW  Elec       q    Type
REMARK                         _______ _______ _______ _____ _____    ______ ____
ROOT
ATOM      1  C   UNL     1      47.506   4.121  15.189  0.00  0.00    +0.000 C 
ENDROOT
BRANCH   1   2
ATOM      2  C   UNL     1      46.830   4.545  13.920  0.00  0.00    +0.000 A 
ATOM      3  C   UNL     1      47.028   5.820  13.387  0.00  0.00    +0.000 A 
ATOM      4  C   UNL     1      46.418   6.171  12.183  0.00  0.00    +0.000 A 
ATOM      5  C   UNL     1      45.607   5.236  11.546  0.00  0.00    +0.000 A 
ATOM      6  N   UNL     1      45.364   4.004  12.064  0.00  0.00    +0.000 NA
ATOM      7  C   UNL     1      45.971   3.694  13.235  0.00  0.00    +0.000 A 
BRANCH   5   8
ATOM      8  C   UNL     1      44.936   5.579  10.231  0.00  0.00    +0.000 C 
BRANCH   8   9
ATOM      9  N   UNL     1      45.709   5.181   9.043  0.00  0.00    +0.000 NA
ATOM     10  H   UNL     1      46.615   4.859   9.400  0.00  0.00    +0.000 HD
BRANCH   9  11
ATOM     11  C   UNL     1      45.086   4.032   8.368  0.00  0.00    +0.000 C 
BRANCH  11  12
ATOM     12  C   UNL     1      46.127   3.117   7.807  0.00  0.00    +0.000 A 
ATOM     13  N   UNL     1      46.234   1.816   7.991  0.00  0.00    +0.000 NA
ATOM     14  C   UNL     1      47.342   1.431   7.282  0.00  0.00    +0.000 A 
ATOM     15  C   UNL     1      47.917   2.509   6.653  0.00  0.00    +0.000 A 
ATOM     16  N   UNL     1      47.133   3.574   6.990  0.00  0.00    +0.000 N 
ATOM     17  H   UNL     1      47.255   4.545   6.731  0.00  0.00    +0.000 HD
ENDBRANCH  11  12
ENDBRANCH   9  11
ENDBRANCH   8   9
ENDBRANCH   5   8
ENDBRANCH   1   2
BRANCH   1  20
ATOM     18  O   UNL     1      49.712   5.447  16.316  0.00  0.00    +0.000 OA
ATOM     19  C   UNL     1      48.582   5.775  16.667  0.00  0.00    +0.000 C 
ATOM     20  N   UNL     1      47.457   5.152  16.193  0.00  0.00    +0.000 N 
ATOM     21  H   UNL     1      46.548   5.559  16.384  0.00  0.00    +0.000 HD
BRANCH  19  22
ATOM     22  C   UNL     1      48.369   6.831  17.665  0.00  0.00    +0.000 A 
ATOM     23  C   UNL     1      48.307   6.501  19.012  0.00  0.00    +0.000 A 
ATOM     24  S   UNL     1      48.058   7.844  20.034  0.00  0.00    +0.000 S 
ATOM     25  C   UNL     1      48.066   8.919  18.715  0.00  0.00    +0.000 A 
ATOM     26  N   UNL     1      47.940  10.260  18.904  0.00  0.00    +0.000 NA
ATOM     27  C   UNL     1      48.016  10.961  17.822  0.00  0.00    +0.000 A 
ATOM     28  N   UNL     1      48.183  10.441  16.565  0.00  0.00    +0.000 N 
ATOM     29  C   UNL     1      48.222   9.089  16.318  0.00  0.00    +0.000 A 
ATOM     30  O   UNL     1      48.210   8.649  15.173  0.00  0.00    +0.000 OA
ATOM     31  C   UNL     1      48.217   8.259  17.508  0.00  0.00    +0.000 A 
ATOM     32  H   UNL     1      48.198  11.043  15.755  0.00  0.00    +0.000 HD
ENDBRANCH  19  22
ENDBRANCH   1  20
TORSDOF 7
ENDMDL
MODEL 6
REMARK VINA RESULT:    -6.808      1.812      2.549
REMARK INTER + INTRA:         -10.706
REMARK INTER:                  -9.959
REMARK INTRA:                  -0.748
REMARK UNBOUND:                -1.112
REMARK  Name = 
REMARK  7 active torsions:
REMARK  status: ('A' for Active; 'I' for Inactive)
REMARK    1  A    between atoms: C_2  and  C_19
REMARK    2  A    between atoms: N_3  and  C_4
REMARK    3  A    between atoms: C_4  and  C_5
REMARK    4  A    between atoms: C_8  and  C_9
REMARK    5  A    between atoms: C_9  and  N_10
REMARK    6  A    between atoms: N_10  and  C_11
REMARK    7  A    between atoms: C_11  and  C_12
REMARK                            x       y       z     vdW  Elec       q    Type
REMARK                         _______ _______ _______ _____ _____    ______ ____
ROOT
ATOM      1  C   UNL     1      47.525   7.021  13.554  0.00  0.00    +0.000 C 
ENDROOT
BRANCH   1   2
ATOM      2  C   UNL     1      46.524   6.249  12.748  0.00  0.00    +0.000 A 
ATOM      3  C   UNL     1      45.836   5.166  13.297  0.00  0.00    +0.000 A 
ATOM      4  C   UNL     1      44.880   4.494  12.535  0.00  0.00    +0.000 A 
ATOM      5  C   UNL     1      44.646   4.917  11.230  0.00  0.00    +0.000 A 
ATOM      6  N   UNL     1      45.330   5.941  10.658  0.00  0.00    +0.000 NA
ATOM      7  C   UNL     1      46.252   6.573  11.424  0.00  0.00    +0.000 A 
BRANCH   5   8
ATOM      8  C   UNL     1      43.607   4.216  10.376  0.00  0.00    +0.000 C 
BRANCH   8   9
ATOM      9  N   UNL     1      44.147   3.635   9.135  0.00  0.00    +0.000 NA
ATOM     10  H   UNL     1      44.915   4.253   8.854  0.00  0.00    +0.000 HD
BRANCH   9  11
ATOM     11  C   UNL     1      44.735   2.310   9.385  0.00  0.00    +0.000 C 
BRANCH  11  12
ATOM     12  C   UNL     1      45.841   2.030   8.418  0.00  0.00    +0.000 A 
ATOM     13  N   UNL     1      46.358   0.857   8.109  0.00  0.00    +0.000 NA
ATOM     14  C   UNL     1      47.339   1.116   7.188  0.00  0.00    +0.000 A 
ATOM     15  C   UNL     1      47.420   2.462   6.927  0.00  0.00    +0.000 A 
ATOM     16  N   UNL     1      46.460   3.032   7.710  0.00  0.00    +0.000 N 
ATOM     17  H   UNL     1      46.234   4.015   7.805  0.00  0.00    +0.000 HD
ENDBRANCH  11  12
ENDBRANCH   9  11
ENDBRANCH   8   9
ENDBRANCH   5   8
ENDBRANCH   1   2
BRANCH   1  20
ATOM     18  O   UNL     1      48.803   8.008  15.854  0.00  0.00    +0.000 OA
ATOM     19  C   UNL     1      48.649   6.795  15.737  0.00  0.00    +0.000 C 
ATOM     20  N   UNL     1      48.069   6.233  14.630  0.00  0.00    +0.000 N 
ATOM     21  H   UNL     1      47.817   5.251  14.647  0.00  0.00    +0.000 HD
BRANCH  19  22
ATOM     22  C   UNL     1      49.127   5.862  16.765  0.00  0.00    +0.000 A 
ATOM     23  C   UNL     1      48.212   5.119  17.499  0.00  0.00    +0.000 A 
ATOM     24  S   UNL     1      48.935   4.084  18.646  0.00  0.00    +0.000 S 
ATOM     25  C   UNL     1      50.498   4.560  18.172  0.00  0.00    +0.000 A 
ATOM     26  N   UNL     1      51.601   4.007  18.744  0.00  0.00    +0.000 NA
ATOM     27  C   UNL     1      52.721   4.423  18.253  0.00  0.00    +0.000 A 
ATOM     28  N   UNL     1      52.839   5.357  17.258  0.00  0.00    +0.000 N 
ATOM     29  C   UNL     1      51.757   6.009  16.718  0.00  0.00    +0.000 A 
ATOM     30  O   UNL     1      51.899   6.953  15.946  0.00  0.00    +0.000 OA
ATOM     31  C   UNL     1      50.469   5.525  17.181  0.00  0.00    +0.000 A 
ATOM     32  H   UNL     1      53.748   5.666  16.944  0.00  0.00    +0.000 HD
ENDBRANCH  19  22
ENDBRANCH   1  20
TORSDOF 7
ENDMDL
MODEL 7
REMARK VINA RESULT:    -6.735      2.136      3.687
REMARK INTER + INTRA:         -10.604
REMARK INTER:                  -9.573
REMARK INTRA:                  -1.031
REMARK UNBOUND:                -1.112
REMARK  Name = 
REMARK  7 active torsions:
REMARK  status: ('A' for Active; 'I' for Inactive)
REMARK    1  A    between atoms: C_2  and  C_19
REMARK    2  A    between atoms: N_3  and  C_4
REMARK    3  A    between atoms: C_4  and  C_5
REMARK    4  A    between atoms: C_8  and  C_9
REMARK    5  A    between atoms: C_9  and  N_10
REMARK    6  A    between atoms: N_10  and  C_11
REMARK    7  A    between atoms: C_11  and  C_12
REMARK                            x       y       z     vdW  Elec       q    Type
REMARK                         _______ _______ _______ _____ _____    ______ ____
ROOT
ATOM      1  C   UNL     1      47.024   4.323  14.713  0.00  0.00    +0.000 C 
ENDROOT
BRANCH   1   2
ATOM      2  C   UNL     1      46.202   4.351  13.459  0.00  0.00    +0.000 A 
ATOM      3  C   UNL     1      45.748   3.172  12.866  0.00  0.00    +0.000 A 
ATOM      4  C   UNL     1      44.951   3.233  11.724  0.00  0.00    +0.000 A 
ATOM      5  C   UNL     1      44.637   4.480  11.192  0.00  0.00    +0.000 A 
ATOM      6  N   UNL     1      45.099   5.640  11.725  0.00  0.00    +0.000 NA
ATOM      7  C   UNL     1      45.872   5.548  12.834  0.00  0.00    +0.000 A 
BRANCH   5   8
ATOM      8  C   UNL     1      43.764   4.584   9.957  0.00  0.00    +0.000 C 
BRANCH   8   9
ATOM      9  N   UNL     1      44.171   3.690   8.860  0.00  0.00    +0.000 NA
ATOM     10  H   UNL     1      43.471   3.823   8.123  0.00  0.00    +0.000 HD
BRANCH   9  11
ATOM     11  C   UNL     1      45.466   4.101   8.296  0.00  0.00    +0.000 C 
BRANCH  11  12
ATOM     12  C   UNL     1      46.248   2.911   7.840  0.00  0.00    +0.000 A 
ATOM     13  N   UNL     1      47.256   2.892   6.990  0.00  0.00    +0.000 NA
ATOM     14  C   UNL     1      47.633   1.577   6.892  0.00  0.00    +0.000 A 
ATOM     15  C   UNL     1      46.849   0.785   7.695  0.00  0.00    +0.000 A 
ATOM     16  N   UNL     1      45.977   1.644   8.296  0.00  0.00    +0.000 N 
ATOM     17  H   UNL     1      45.229   1.423   8.943  0.00  0.00    +0.000 HD
ENDBRANCH  11  12
ENDBRANCH   9  11
ENDBRANCH   8   9
ENDBRANCH   5   8
ENDBRANCH   1   2
BRANCH   1  20
ATOM     18  O   UNL     1      49.075   4.876  16.552  0.00  0.00    +0.000 OA
ATOM     19  C   UNL     1      48.570   5.808  15.931  0.00  0.00    +0.000 C 
ATOM     20  N   UNL     1      47.540   5.626  15.045  0.00  0.00    +0.000 N 
ATOM     21  H   UNL     1      47.265   6.391  14.440  0.00  0.00    +0.000 HD
BRANCH  19  22
ATOM     22  C   UNL     1      49.008   7.193  16.141  0.00  0.00    +0.000 A 
ATOM     23  C   UNL     1      48.961   7.744  17.415  0.00  0.00    +0.000 A 
ATOM     24  S   UNL     1      49.509   9.358  17.483  0.00  0.00    +0.000 S 
ATOM     25  C   UNL     1      49.869   9.364  15.820  0.00  0.00    +0.000 A 
ATOM     26  N   UNL     1      50.421  10.456  15.228  0.00  0.00    +0.000 NA
ATOM     27  C   UNL     1      50.690  10.304  13.974  0.00  0.00    +0.000 A 
ATOM     28  N   UNL     1      50.435   9.167  13.252  0.00  0.00    +0.000 N 
ATOM     29  C   UNL     1      49.794   8.075  13.787  0.00  0.00    +0.000 A 
ATOM     30  O   UNL     1      49.435   7.136  13.082  0.00  0.00    +0.000 OA
ATOM     31  C   UNL     1      49.538   8.165  15.212  0.00  0.00    +0.000 A 
ATOM     32  H   UNL     1      50.637   9.125  12.264  0.00  0.00    +0.000 HD
ENDBRANCH  19  22
ENDBRANCH   1  20
TORSDOF 7
ENDMDL
MODEL 8
REMARK VINA RESULT:    -6.708      2.557      3.053
REMARK INTER + INTRA:         -10.565
REMARK INTER:                  -9.793
REMARK INTRA:                  -0.772
REMARK UNBOUND:                -1.112
REMARK  Name = 
REMARK  7 active torsions:
REMARK  status: ('A' for Active; 'I' for Inactive)
REMARK    1  A    between atoms: C_2  and  C_19
REMARK    2  A    between atoms: N_3  and  C_4
REMARK    3  A    between atoms: C_4  and  C_5
REMARK    4  A    between atoms: C_8  and  C_9
REMARK    5  A    between atoms: C_9  and  N_10
REMARK    6  A    between atoms: N_10  and  C_11
REMARK    7  A    between atoms: C_11  and  C_12
REMARK                            x       y       z     vdW  Elec       q    Type
REMARK                         _______ _______ _______ _____ _____    ______ ____
ROOT
ATOM      1  C   UNL     1      47.162   4.128  14.704  0.00  0.00    +0.000 C 
ENDROOT
BRANCH   1   2
ATOM      2  C   UNL     1      46.261   4.308  13.519  0.00  0.00    +0.000 A 
ATOM      3  C   UNL     1      45.923   5.581  13.056  0.00  0.00    +0.000 A 
ATOM      4  C   UNL     1      45.117   5.716  11.926  0.00  0.00    +0.000 A 
ATOM      5  C   UNL     1      44.656   4.566  11.292  0.00  0.00    +0.000 A 
ATOM      6  N   UNL     1      44.936   3.317  11.744  0.00  0.00    +0.000 NA
ATOM      7  C   UNL     1      45.721   3.219  12.845  0.00  0.00    +0.000 A 
BRANCH   5   8
ATOM      8  C   UNL     1      43.786   4.675  10.054  0.00  0.00    +0.000 C 
BRANCH   8   9
ATOM      9  N   UNL     1      44.245   3.847   8.926  0.00  0.00    +0.000 NA
ATOM     10  H   UNL     1      43.560   3.997   8.179  0.00  0.00    +0.000 HD
BRANCH   9  11
ATOM     11  C   UNL     1      45.541   4.321   8.417  0.00  0.00    +0.000 C 
BRANCH  11  12
ATOM     12  C   UNL     1      46.308   3.199   7.792  0.00  0.00    +0.000 A 
ATOM     13  N   UNL     1      46.264   1.921   8.114  0.00  0.00    +0.000 NA
ATOM     14  C   UNL     1      47.140   1.296   7.265  0.00  0.00    +0.000 A 
ATOM     15  C   UNL     1      47.724   2.201   6.412  0.00  0.00    +0.000 A 
ATOM     16  N   UNL     1      47.183   3.406   6.753  0.00  0.00    +0.000 N 
ATOM     17  H   UNL     1      47.388   4.316   6.358  0.00  0.00    +0.000 HD
ENDBRANCH  11  12
ENDBRANCH   9  11
ENDBRANCH   8   9
ENDBRANCH   5   8
ENDBRANCH   1   2
BRANCH   1  20
ATOM     18  O   UNL     1      49.177   4.567  16.612  0.00  0.00    +0.000 OA
ATOM     19  C   UNL     1      48.505   5.522  16.231  0.00  0.00    +0.000 C 
ATOM     20  N   UNL     1      47.480   5.384  15.331  0.00  0.00    +0.000 N 
ATOM     21  H   UNL     1      47.062   6.214  14.925  0.00  0.00    +0.000 HD
BRANCH  19  22
ATOM     22  C   UNL     1      48.729   6.873  16.759  0.00  0.00    +0.000 A 
ATOM     23  C   UNL     1      49.297   7.844  15.946  0.00  0.00    +0.000 A 
ATOM     24  S   UNL     1      49.484   9.356  16.714  0.00  0.00    +0.000 S 
ATOM     25  C   UNL     1      48.771   8.778  18.147  0.00  0.00    +0.000 A 
ATOM     26  N   UNL     1      48.584   9.598  19.215  0.00  0.00    +0.000 NA
ATOM     27  C   UNL     1      47.986   9.042  20.216  0.00  0.00    +0.000 A 
ATOM     28  N   UNL     1      47.578   7.734  20.254  0.00  0.00    +0.000 N 
ATOM     29  C   UNL     1      47.830   6.847  19.235  0.00  0.00    +0.000 A 
ATOM     30  O   UNL     1      47.599   5.648  19.360  0.00  0.00    +0.000 OA
ATOM     31  C   UNL     1      48.433   7.439  18.055  0.00  0.00    +0.000 A 
ATOM     32  H   UNL     1      47.147   7.351  21.082  0.00  0.00    +0.000 HD
ENDBRANCH  19  22
ENDBRANCH   1  20
TORSDOF 7
ENDMDL
MODEL 9
REMARK VINA RESULT:    -6.688      2.872      8.096
REMARK INTER + INTRA:         -10.537
REMARK INTER:                  -9.201
REMARK INTRA:                  -1.336
REMARK UNBOUND:                -1.112
REMARK  Name = 
REMARK  7 active torsions:
REMARK  status: ('A' for Active; 'I' for Inactive)
REMARK    1  A    between atoms: C_2  and  C_19
REMARK    2  A    between atoms: N_3  and  C_4
REMARK    3  A    between atoms: C_4  and  C_5
REMARK    4  A    between atoms: C_8  and  C_9
REMARK    5  A    between atoms: C_9  and  N_10
REMARK    6  A    between atoms: N_10  and  C_11
REMARK    7  A    between atoms: C_11  and  C_12
REMARK                            x       y       z     vdW  Elec       q    Type
REMARK                         _______ _______ _______ _____ _____    ______ ____
ROOT
ATOM      1  C   UNL     1      47.411   7.726  12.074  0.00  0.00    +0.000 C 
ENDROOT
BRANCH   1   2
ATOM      2  C   UNL     1      48.436   7.557  13.155  0.00  0.00    +0.000 A 
ATOM      3  C   UNL     1      49.643   8.259  13.123  0.00  0.00    +0.000 A 
ATOM      4  C   UNL     1      50.558   8.112  14.164  0.00  0.00    +0.000 A 
ATOM      5  C   UNL     1      50.248   7.250  15.212  0.00  0.00    +0.000 A 
ATOM      6  N   UNL     1      49.101   6.524  15.248  0.00  0.00    +0.000 NA
ATOM      7  C   UNL     1      48.232   6.688  14.221  0.00  0.00    +0.000 A 
BRANCH   5   8
ATOM      8  C   UNL     1      51.216   7.073  16.366  0.00  0.00    +0.000 C 
BRANCH   8   9
ATOM      9  N   UNL     1      50.639   6.374  17.527  0.00  0.00    +0.000 NA
ATOM     10  H   UNL     1      49.651   6.229  17.297  0.00  0.00    +0.000 HD
BRANCH   9  11
ATOM     11  C   UNL     1      51.239   5.041  17.693  0.00  0.00    +0.000 C 
BRANCH  11  12
ATOM     12  C   UNL     1      50.250   3.970  17.364  0.00  0.00    +0.000 A 
ATOM     13  N   UNL     1      50.504   2.720  17.028  0.00  0.00    +0.000 NA
ATOM     14  C   UNL     1      49.280   2.137  16.821  0.00  0.00    +0.000 A 
ATOM     15  C   UNL     1      48.267   3.039  17.036  0.00  0.00    +0.000 A 
ATOM     16  N   UNL     1      48.895   4.199  17.385  0.00  0.00    +0.000 N 
ATOM     17  H   UNL     1      48.476   5.096  17.599  0.00  0.00    +0.000 HD
ENDBRANCH  11  12
ENDBRANCH   9  11
ENDBRANCH   8   9
ENDBRANCH   5   8
ENDBRANCH   1   2
BRANCH   1  20
ATOM     18  O   UNL     1      44.628   7.352  11.997  0.00  0.00    +0.000 OA
ATOM     19  C   UNL     1      45.359   6.401  11.736  0.00  0.00    +0.000 C 
ATOM     20  N   UNL     1      46.726   6.492  11.788  0.00  0.00    +0.000 N 
ATOM     21  H   UNL     1      47.288   5.737  11.410  0.00  0.00    +0.000 HD
BRANCH  19  22
ATOM     22  C   UNL     1      44.809   5.083  11.398  0.00  0.00    +0.000 A 
ATOM     23  C   UNL     1      44.026   4.407  12.324  0.00  0.00    +0.000 A 
ATOM     24  S   UNL     1      43.465   2.894  11.772  0.00  0.00    +0.000 S 
ATOM     25  C   UNL     1      44.213   3.108  10.258  0.00  0.00    +0.000 A 
ATOM     26  N   UNL     1      44.086   2.175   9.277  0.00  0.00    +0.000 NA
ATOM     27  C   UNL     1      44.661   2.489   8.165  0.00  0.00    +0.000 A 
ATOM     28  N   UNL     1      45.371   3.642   7.951  0.00  0.00    +0.000 N 
ATOM     29  C   UNL     1      45.602   4.567   8.940  0.00  0.00    +0.000 A 
ATOM     30  O   UNL     1      46.373   5.508   8.769  0.00  0.00    +0.000 OA
ATOM     31  C   UNL     1      44.915   4.298  10.189  0.00  0.00    +0.000 A 
ATOM     32  H   UNL     1      45.827   3.811   7.066  0.00  0.00    +0.000 HD
ENDBRANCH  19  22
ENDBRANCH   1  20
TORSDOF 7
ENDMDL
