MODEL 1
REMARK VINA RESULT:    -8.365      0.000      0.000
REMARK INTER + INTRA:         -13.600
REMARK INTER:                 -12.277
REMARK INTRA:                  -1.323
REMARK UNBOUND:                -1.323
REMARK  Name = 
REMARK  9 active torsions:
REMARK  status: ('A' for Active; 'I' for Inactive)
REMARK    1  A    between atoms: C_1  and  O_2
REMARK    2  A    between atoms: O_2  and  C_3
REMARK    3  A    between atoms: C_10  and  C_11
REMARK    4  A    between atoms: N_13  and  C_14
REMARK    5  A    between atoms: C_14  and  C_15
REMARK    6  A    between atoms: C_18  and  C_19
REMARK    7  A    between atoms: C_19  and  O_20
REMARK    8  A    between atoms: O_20  and  C_21
REMARK    9  A    between atoms: C_21  and  C_22
REMARK                            x       y       z     vdW  Elec       q    Type
REMARK                         _______ _______ _______ _____ _____    ______ ____
ROOT
ATOM      1  C   UNL     1      47.814   7.105  13.229  0.00  0.00    +0.000 C 
ENDROOT
BRANCH   1   2
ATOM      2  C   UNL     1      46.838   6.102  12.670  0.00  0.00    +0.000 A 
ATOM      3  C   UNL     1      46.598   4.889  13.331  0.00  0.00    +0.000 A 
ATOM      4  C   UNL     1      45.672   3.974  12.821  0.00  0.00    +0.000 A 
ATOM      5  C   UNL     1      44.976   4.245  11.634  0.00  0.00    +0.000 A 
ATOM      6  C   UNL     1      45.245   5.441  10.956  0.00  0.00    +0.000 A 
ATOM      7  C   UNL     1      46.170   6.357  11.466  0.00  0.00    +0.000 A 
BRANCH   5   8
ATOM      8  C   UNL     1      43.958   3.267  11.102  0.00  0.00    +0.000 C 
BRANCH   8   9
ATOM      9  O   UNL     1      44.089   3.185   9.685  0.00  0.00    +0.000 OA
BRANCH   9  10
ATOM     10  C   UNL     1      44.717   1.967   9.281  0.00  0.00    +0.000 C 
BRANCH  10  11
ATOM     11  C   UNL     1      45.774   2.241   8.242  0.00  0.00    +0.000 A 
ATOM     12  C   UNL     1      46.086   3.542   7.824  0.00  0.00    +0.000 A 
ATOM     13  C   UNL     1      47.100   3.766   6.890  0.00  0.00    +0.000 A 
ATOM     14  C   UNL     1      47.826   2.694   6.370  0.00  0.00    +0.000 A 
ATOM     15  C   UNL     1      47.537   1.398   6.789  0.00  0.00    +0.000 A 
ATOM     16  C   UNL     1      46.524   1.182   7.722  0.00  0.00    +0.000 A 
ATOM     17  F   UNL     1      46.276  -0.073   8.122  0.00  0.00    +0.000 F 
ENDBRANCH  10  11
ENDBRANCH   9  10
ENDBRANCH   8   9
ENDBRANCH   5   8
ENDBRANCH   1   2
BRANCH   1  20
ATOM     18  C   UNL     1      48.862   6.966  15.445  0.00  0.00    +0.000 C 
ATOM     19  O   UNL     1      49.958   6.733  14.942  0.00  0.00    +0.000 OA
ATOM     20  N   UNL     1      47.751   7.149  14.669  0.00  0.00    +0.000 N 
ATOM     21  H   UNL     1      46.845   7.292  15.096  0.00  0.00    +0.000 HD
BRANCH  18  29
ATOM     22  C   UNL     1      48.849   4.672  18.021  0.00  0.00    +0.000 A 
ATOM     23  N   UNL     1      48.718   4.006  19.186  0.00  0.00    +0.000 NA
ATOM     24  C   UNL     1      48.443   4.708  20.288  0.00  0.00    +0.000 A 
ATOM     25  N   UNL     1      48.290   6.025  20.380  0.00  0.00    +0.000 NA
ATOM     26  C   UNL     1      48.418   6.652  19.198  0.00  0.00    +0.000 A 
ATOM     27  S   UNL     1      48.266   8.341  19.130  0.00  0.00    +0.000 S 
ATOM     28  C   UNL     1      48.506   8.344  17.449  0.00  0.00    +0.000 A 
ATOM     29  C   UNL     1      48.698   7.078  16.904  0.00  0.00    +0.000 A 
ATOM     30  C   UNL     1      48.677   6.068  17.961  0.00  0.00    +0.000 A 
BRANCH  22  32
ATOM     31  C   UNL     1      48.244   2.928  16.565  0.00  0.00    +0.000 C 
ATOM     32  O   UNL     1      49.180   3.955  16.889  0.00  0.00    +0.000 OA
ENDBRANCH  22  32
ENDBRANCH  18  29
ENDBRANCH   1  20
TORSDOF 8
ENDMDL
MODEL 2
REMARK VINA RESULT:    -7.731      2.103      2.604
REMARK INTER + INTRA:         -12.670
REMARK INTER:                 -11.174
REMARK INTRA:                  -1.496
REMARK UNBOUND:                -1.323
REMARK  Name = 
REMARK  9 active torsions:
REMARK  status: ('A' for Active; 'I' for Inactive)
REMARK    1  A    between atoms: C_1  and  O_2
REMARK    2  A    between atoms: O_2  and  C_3
REMARK    3  A    between atoms: C_10  and  C_11
REMARK    4  A    between atoms: N_13  and  C_14
REMARK    5  A    between atoms: C_14  and  C_15
REMARK    6  A    between atoms: C_18  and  C_19
REMARK    7  A    between atoms: C_19  and  O_20
REMARK    8  A    between atoms: O_20  and  C_21
REMARK    9  A    between atoms: C_21  and  C_22
REMARK                            x       y       z     vdW  Elec       q    Type
REMARK                         _______ _______ _______ _____ _____    ______ ____
ROOT
ATOM      1  C   UNL     1      48.148   7.745  13.385  0.00  0.00    +0.000 C 
ENDROOT
BRANCH   1   2
ATOM      2  C   UNL     1      47.129   6.766  12.861  0.00  0.00    +0.000 A 
ATOM      3  C   UNL     1      46.346   7.078  11.740  0.00  0.00    +0.000 A 
ATOM      4  C   UNL     1      45.420   6.155  11.242  0.00  0.00    +0.000 A 
ATOM      5  C   UNL     1      45.249   4.908  11.860  0.00  0.00    +0.000 A 
ATOM      6  C   UNL     1      46.006   4.614  13.001  0.00  0.00    +0.000 A 
ATOM      7  C   UNL     1      46.933   5.536  13.499  0.00  0.00    +0.000 A 
BRANCH   5   8
ATOM      8  C   UNL     1      44.269   3.905  11.303  0.00  0.00    +0.000 C 
BRANCH   8   9
ATOM      9  O   UNL     1      44.987   2.772  10.822  0.00  0.00    +0.000 OA
BRANCH   9  10
ATOM     10  C   UNL     1      44.483   2.321   9.563  0.00  0.00    +0.000 C 
BRANCH  10  11
ATOM     11  C   UNL     1      45.573   2.348   8.523  0.00  0.00    +0.000 A 
ATOM     12  C   UNL     1      46.248   1.187   8.123  0.00  0.00    +0.000 A 
ATOM     13  C   UNL     1      47.224   1.238   7.125  0.00  0.00    +0.000 A 
ATOM     14  C   UNL     1      47.531   2.448   6.504  0.00  0.00    +0.000 A 
ATOM     15  C   UNL     1      46.856   3.607   6.879  0.00  0.00    +0.000 A 
ATOM     16  C   UNL     1      45.882   3.548   7.875  0.00  0.00    +0.000 A 
ATOM     17  F   UNL     1      45.235   4.673   8.208  0.00  0.00    +0.000 F 
ENDBRANCH  10  11
ENDBRANCH   9  10
ENDBRANCH   8   9
ENDBRANCH   5   8
ENDBRANCH   1   2
BRANCH   1  20
ATOM     18  C   UNL     1      50.006   7.779  14.988  0.00  0.00    +0.000 C 
ATOM     19  O   UNL     1      49.974   9.006  15.041  0.00  0.00    +0.000 OA
ATOM     20  N   UNL     1      49.147   7.082  14.186  0.00  0.00    +0.000 N 
ATOM     21  H   UNL     1      49.214   6.076  14.114  0.00  0.00    +0.000 HD
BRANCH  18  29
ATOM     22  C   UNL     1      49.648   5.218  17.271  0.00  0.00    +0.000 A 
ATOM     23  N   UNL     1      49.795   4.293  18.242  0.00  0.00    +0.000 NA
ATOM     24  C   UNL     1      51.023   4.058  18.709  0.00  0.00    +0.000 A 
ATOM     25  N   UNL     1      52.153   4.634  18.314  0.00  0.00    +0.000 NA
ATOM     26  C   UNL     1      51.965   5.557  17.355  0.00  0.00    +0.000 A 
ATOM     27  S   UNL     1      53.304   6.385  16.721  0.00  0.00    +0.000 S 
ATOM     28  C   UNL     1      52.312   7.297  15.688  0.00  0.00    +0.000 A 
ATOM     29  C   UNL     1      50.958   7.004  15.802  0.00  0.00    +0.000 A 
ATOM     30  C   UNL     1      50.755   5.936  16.780  0.00  0.00    +0.000 A 
BRANCH  22  32
ATOM     31  C   UNL     1      47.464   4.380  17.037  0.00  0.00    +0.000 C 
ATOM     32  O   UNL     1      48.387   5.430  16.752  0.00  0.00    +0.000 OA
ENDBRANCH  22  32
ENDBRANCH  18  29
ENDBRANCH   1  20
TORSDOF 8
ENDMDL
MODEL 3
REMARK VINA RESULT:    -7.707      1.613      2.779
REMARK INTER + INTRA:         -12.635
REMARK INTER:                 -11.296
REMARK INTRA:                  -1.339
REMARK UNBOUND:                -1.323
REMARK  Name = 
REMARK  9 active torsions:
REMARK  status: ('A' for Active; 'I' for Inactive)
REMARK    1  A    between atoms: C_1  and  O_2
REMARK    2  A    between atoms: O_2  and  C_3
REMARK    3  A    between atoms: C_10  and  C_11
REMARK    4  A    between atoms: N_13  and  C_14
REMARK    5  A    between atoms: C_14  and  C_15
REMARK    6  A    between atoms: C_18  and  C_19
REMARK    7  A    between atoms: C_19  and  O_20
REMARK    8  A    between atoms: O_20  and  C_21
REMARK    9  A    between atoms: C_21  and  C_22
REMARK                            x       y       z     vdW  Elec       q    Type
REMARK                         _______ _______ _______ _____ _____    ______ ____
ROOT
ATOM      1  C   UNL     1      47.169   3.703  15.076  0.00  0.00    +0.000 C 
ENDROOT
BRANCH   1   2
ATOM      2  C   UNL     1      46.562   4.224  13.799  0.00  0.00    +0.000 A 
ATOM      3  C   UNL     1      46.756   5.555  13.404  0.00  0.00    +0.000 A 
ATOM      4  C   UNL     1      46.211   6.027  12.206  0.00  0.00    +0.000 A 
ATOM      5  C   UNL     1      45.452   5.182  11.383  0.00  0.00    +0.000 A 
ATOM      6  C   UNL     1      45.229   3.863  11.798  0.00  0.00    +0.000 A 
ATOM      7  C   UNL     1      45.775   3.391  12.996  0.00  0.00    +0.000 A 
BRANCH   5   8
ATOM      8  C   UNL     1      44.890   5.687  10.077  0.00  0.00    +0.000 C 
BRANCH   8   9
ATOM      9  O   UNL     1      45.640   5.128   9.001  0.00  0.00    +0.000 OA
BRANCH   9  10
ATOM     10  C   UNL     1      44.881   4.160   8.274  0.00  0.00    +0.000 C 
BRANCH  10  11
ATOM     11  C   UNL     1      45.797   3.143   7.644  0.00  0.00    +0.000 A 
ATOM     12  C   UNL     1      46.572   3.439   6.515  0.00  0.00    +0.000 A 
ATOM     13  C   UNL     1      47.443   2.487   5.978  0.00  0.00    +0.000 A 
ATOM     14  C   UNL     1      47.560   1.229   6.570  0.00  0.00    +0.000 A 
ATOM     15  C   UNL     1      46.807   0.928   7.702  0.00  0.00    +0.000 A 
ATOM     16  C   UNL     1      45.941   1.882   8.233  0.00  0.00    +0.000 A 
ATOM     17  F   UNL     1      45.239   1.574   9.332  0.00  0.00    +0.000 F 
ENDBRANCH  10  11
ENDBRANCH   9  10
ENDBRANCH   8   9
ENDBRANCH   5   8
ENDBRANCH   1   2
BRANCH   1  20
ATOM     18  C   UNL     1      47.652   4.531  17.336  0.00  0.00    +0.000 C 
ATOM     19  O   UNL     1      47.637   3.388  17.787  0.00  0.00    +0.000 OA
ATOM     20  N   UNL     1      47.418   4.772  16.011  0.00  0.00    +0.000 N 
ATOM     21  H   UNL     1      47.385   5.720  15.661  0.00  0.00    +0.000 HD
BRANCH  18  29
ATOM     22  C   UNL     1      49.936   7.110  17.164  0.00  0.00    +0.000 A 
ATOM     23  N   UNL     1      50.756   8.156  17.392  0.00  0.00    +0.000 NA
ATOM     24  C   UNL     1      50.588   8.857  18.516  0.00  0.00    +0.000 A 
ATOM     25  N   UNL     1      49.674   8.651  19.458  0.00  0.00    +0.000 NA
ATOM     26  C   UNL     1      48.884   7.595  19.201  0.00  0.00    +0.000 A 
ATOM     27  S   UNL     1      47.650   7.191  20.294  0.00  0.00    +0.000 S 
ATOM     28  C   UNL     1      47.181   5.860  19.348  0.00  0.00    +0.000 A 
ATOM     29  C   UNL     1      47.943   5.689  18.198  0.00  0.00    +0.000 A 
ATOM     30  C   UNL     1      48.944   6.750  18.095  0.00  0.00    +0.000 A 
BRANCH  22  32
ATOM     31  C   UNL     1      49.801   7.190  14.818  0.00  0.00    +0.000 C 
ATOM     32  O   UNL     1      50.077   6.412  15.982  0.00  0.00    +0.000 OA
ENDBRANCH  22  32
ENDBRANCH  18  29
ENDBRANCH   1  20
TORSDOF 8
ENDMDL
MODEL 4
REMARK VINA RESULT:    -7.376      1.810      2.691
REMARK INTER + INTRA:         -12.149
REMARK INTER:                 -10.994
REMARK INTRA:                  -1.155
REMARK UNBOUND:                -1.323
REMARK  Name = 
REMARK  9 active torsions:
REMARK  status: ('A' for Active; 'I' for Inactive)
REMARK    1  A    between atoms: C_1  and  O_2
REMARK    2  A    between atoms: O_2  and  C_3
REMARK    3  A    between atoms: C_10  and  C_11
REMARK    4  A    between atoms: N_13  and  C_14
REMARK    5  A    between atoms: C_14  and  C_15
REMARK    6  A    between atoms: C_18  and  C_19
REMARK    7  A    between atoms: C_19  and  O_20
REMARK    8  A    between atoms: O_20  and  C_21
REMARK    9  A    between atoms: C_21  and  C_22
REMARK                            x       y       z     vdW  Elec       q    Type
REMARK                         _______ _______ _______ _____ _____    ______ ____
ROOT
ATOM      1  C   UNL     1      47.431   4.309  15.206  0.00  0.00    +0.000 C 
ENDROOT
BRANCH   1   2
ATOM      2  C   UNL     1      46.568   4.460  13.980  0.00  0.00    +0.000 A 
ATOM      3  C   UNL     1      46.146   5.726  13.552  0.00  0.00    +0.000 A 
ATOM      4  C   UNL     1      45.366   5.863  12.399  0.00  0.00    +0.000 A 
ATOM      5  C   UNL     1      44.981   4.737  11.657  0.00  0.00    +0.000 A 
ATOM      6  C   UNL     1      45.373   3.470  12.108  0.00  0.00    +0.000 A 
ATOM      7  C   UNL     1      46.153   3.333  13.260  0.00  0.00    +0.000 A 
BRANCH   5   8
ATOM      8  C   UNL     1      44.163   4.891  10.399  0.00  0.00    +0.000 C 
BRANCH   8   9
ATOM      9  O   UNL     1      45.031   4.828   9.270  0.00  0.00    +0.000 OA
BRANCH   9  10
ATOM     10  C   UNL     1      44.511   3.974   8.250  0.00  0.00    +0.000 C 
BRANCH  10  11
ATOM     11  C   UNL     1      45.591   3.059   7.732  0.00  0.00    +0.000 A 
ATOM     12  C   UNL     1      46.532   3.481   6.784  0.00  0.00    +0.000 A 
ATOM     13  C   UNL     1      47.547   2.622   6.355  0.00  0.00    +0.000 A 
ATOM     14  C   UNL     1      47.642   1.332   6.876  0.00  0.00    +0.000 A 
ATOM     15  C   UNL     1      46.723   0.905   7.831  0.00  0.00    +0.000 A 
ATOM     16  C   UNL     1      45.713   1.767   8.255  0.00  0.00    +0.000 A 
ATOM     17  F   UNL     1      44.851   1.339   9.187  0.00  0.00    +0.000 F 
ENDBRANCH  10  11
ENDBRANCH   9  10
ENDBRANCH   8   9
ENDBRANCH   5   8
ENDBRANCH   1   2
BRANCH   1  20
ATOM     18  C   UNL     1      48.886   5.748  16.561  0.00  0.00    +0.000 C 
ATOM     19  O   UNL     1      49.585   4.789  16.878  0.00  0.00    +0.000 OA
ATOM     20  N   UNL     1      47.797   5.593  15.749  0.00  0.00    +0.000 N 
ATOM     21  H   UNL     1      47.202   6.382  15.534  0.00  0.00    +0.000 HD
BRANCH  18  29
ATOM     22  C   UNL     1      47.810   7.667  19.217  0.00  0.00    +0.000 A 
ATOM     23  N   UNL     1      47.511   8.647  20.094  0.00  0.00    +0.000 NA
ATOM     24  C   UNL     1      48.101   9.835  19.938  0.00  0.00    +0.000 A 
ATOM     25  N   UNL     1      48.980  10.175  19.002  0.00  0.00    +0.000 NA
ATOM     26  C   UNL     1      49.244   9.176  18.142  0.00  0.00    +0.000 A 
ATOM     27  S   UNL     1      50.358   9.429  16.886  0.00  0.00    +0.000 S 
ATOM     28  C   UNL     1      50.124   7.854  16.296  0.00  0.00    +0.000 A 
ATOM     29  C   UNL     1      49.202   7.110  17.023  0.00  0.00    +0.000 A 
ATOM     30  C   UNL     1      48.699   7.895  18.150  0.00  0.00    +0.000 A 
BRANCH  22  32
ATOM     31  C   UNL     1      47.992   5.568  20.261  0.00  0.00    +0.000 C 
ATOM     32  O   UNL     1      47.239   6.424  19.403  0.00  0.00    +0.000 OA
ENDBRANCH  22  32
ENDBRANCH  18  29
ENDBRANCH   1  20
TORSDOF 8
ENDMDL
MODEL 5
REMARK VINA RESULT:    -6.674      4.257      8.363
REMARK INTER + INTRA:         -11.119
REMARK INTER:                  -9.210
REMARK INTRA:                  -1.910
REMARK UNBOUND:                -1.323
REMARK  Name = 
REMARK  9 active torsions:
REMARK  status: ('A' for Active; 'I' for Inactive)
REMARK    1  A    between atoms: C_1  and  O_2
REMARK    2  A    between atoms: O_2  and  C_3
REMARK    3  A    between atoms: C_10  and  C_11
REMARK    4  A    between atoms: N_13  and  C_14
REMARK    5  A    between atoms: C_14  and  C_15
REMARK    6  A    between atoms: C_18  and  C_19
REMARK    7  A    between atoms: C_19  and  O_20
REMARK    8  A    between atoms: O_20  and  C_21
REMARK    9  A    between atoms: C_21  and  C_22
REMARK                            x       y       z     vdW  Elec       q    Type
REMARK                         _______ _______ _______ _____ _____    ______ ____
ROOT
ATOM      1  C   UNL     1      48.271   8.001  11.949  0.00  0.00    +0.000 C 
ENDROOT
BRANCH   1   2
ATOM      2  C   UNL     1      48.472   7.881  13.437  0.00  0.00    +0.000 A 
ATOM      3  C   UNL     1      49.128   6.769  13.985  0.00  0.00    +0.000 A 
ATOM      4  C   UNL     1      49.334   6.675  15.365  0.00  0.00    +0.000 A 
ATOM      5  C   UNL     1      48.880   7.683  16.227  0.00  0.00    +0.000 A 
ATOM      6  C   UNL     1      48.192   8.775  15.681  0.00  0.00    +0.000 A 
ATOM      7  C   UNL     1      47.987   8.870  14.301  0.00  0.00    +0.000 A 
BRANCH   5   8
ATOM      8  C   UNL     1      49.129   7.591  17.713  0.00  0.00    +0.000 C 
BRANCH   8   9
ATOM      9  O   UNL     1      48.064   6.861  18.317  0.00  0.00    +0.000 OA
BRANCH   9  10
ATOM     10  C   UNL     1      48.550   5.796  19.136  0.00  0.00    +0.000 C 
BRANCH  10  11
ATOM     11  C   UNL     1      48.878   4.593  18.291  0.00  0.00    +0.000 A 
ATOM     12  C   UNL     1      50.160   4.027  18.269  0.00  0.00    +0.000 A 
ATOM     13  C   UNL     1      50.423   2.886  17.508  0.00  0.00    +0.000 A 
ATOM     14  C   UNL     1      49.404   2.286  16.766  0.00  0.00    +0.000 A 
ATOM     15  C   UNL     1      48.122   2.828  16.793  0.00  0.00    +0.000 A 
ATOM     16  C   UNL     1      47.867   3.967  17.555  0.00  0.00    +0.000 A 
ATOM     17  F   UNL     1      46.621   4.461  17.578  0.00  0.00    +0.000 F 
ENDBRANCH  10  11
ENDBRANCH   9  10
ENDBRANCH   8   9
ENDBRANCH   5   8
ENDBRANCH   1   2
BRANCH   1  20
ATOM     18  C   UNL     1      46.193   6.887  11.268  0.00  0.00    +0.000 C 
ATOM     19  O   UNL     1      45.529   7.869  11.589  0.00  0.00    +0.000 OA
ATOM     20  N   UNL     1      47.550   6.867  11.425  0.00  0.00    +0.000 N 
ATOM     21  H   UNL     1      48.081   6.035  11.203  0.00  0.00    +0.000 HD
BRANCH  18  29
ATOM     22  C   UNL     1      44.390   4.257  12.584  0.00  0.00    +0.000 A 
ATOM     23  N   UNL     1      43.746   3.098  12.829  0.00  0.00    +0.000 NA
ATOM     24  C   UNL     1      43.505   2.281  11.802  0.00  0.00    +0.000 A 
ATOM     25  N   UNL     1      43.822   2.483  10.527  0.00  0.00    +0.000 NA
ATOM     26  C   UNL     1      44.471   3.642  10.325  0.00  0.00    +0.000 A 
ATOM     27  S   UNL     1      44.942   4.071   8.752  0.00  0.00    +0.000 S 
ATOM     28  C   UNL     1      45.654   5.510   9.304  0.00  0.00    +0.000 A 
ATOM     29  C   UNL     1      45.558   5.694  10.680  0.00  0.00    +0.000 A 
ATOM     30  C   UNL     1      44.820   4.588  11.285  0.00  0.00    +0.000 A 
BRANCH  22  32
ATOM     31  C   UNL     1      45.887   5.002  14.238  0.00  0.00    +0.000 C 
ATOM     32  O   UNL     1      44.599   5.126  13.636  0.00  0.00    +0.000 OA
ENDBRANCH  22  32
ENDBRANCH  18  29
ENDBRANCH   1  20
TORSDOF 8
ENDMDL
MODEL 6
REMARK VINA RESULT:    -6.343      3.040      4.489
REMARK INTER + INTRA:         -10.632
REMARK INTER:                  -9.894
REMARK INTRA:                  -0.738
REMARK UNBOUND:                -1.323
REMARK  Name = 
REMARK  9 active torsions:
REMARK  status: ('A' for Active; 'I' for Inactive)
REMARK    1  A    between atoms: C_1  and  O_2
REMARK    2  A    between atoms: O_2  and  C_3
REMARK    3  A    between atoms: C_10  and  C_11
REMARK    4  A    between atoms: N_13  and  C_14
REMARK    5  A    between atoms: C_14  and  C_15
REMARK    6  A    between atoms: C_18  and  C_19
REMARK    7  A    between atoms: C_19  and  O_20
REMARK    8  A    between atoms: O_20  and  C_21
REMARK    9  A    between atoms: C_21  and  C_22
REMARK                            x       y       z     vdW  Elec       q    Type
REMARK                         _______ _______ _______ _____ _____    ______ ____
ROOT
ATOM      1  C   UNL     1      47.591   3.297  16.583  0.00  0.00    +0.000 C 
ENDROOT
BRANCH   1   2
ATOM      2  C   UNL     1      47.455   4.269  15.438  0.00  0.00    +0.000 A 
ATOM      3  C   UNL     1      46.710   3.934  14.299  0.00  0.00    +0.000 A 
ATOM      4  C   UNL     1      46.566   4.848  13.251  0.00  0.00    +0.000 A 
ATOM      5  C   UNL     1      47.173   6.111  13.313  0.00  0.00    +0.000 A 
ATOM      6  C   UNL     1      47.948   6.429  14.436  0.00  0.00    +0.000 A 
ATOM      7  C   UNL     1      48.091   5.515  15.485  0.00  0.00    +0.000 A 
BRANCH   5   8
ATOM      8  C   UNL     1      46.992   7.105  12.192  0.00  0.00    +0.000 C 
BRANCH   8   9
ATOM      9  O   UNL     1      46.850   6.397  10.963  0.00  0.00    +0.000 OA
BRANCH   9  10
ATOM     10  C   UNL     1      45.484   6.083  10.688  0.00  0.00    +0.000 C 
BRANCH  10  11
ATOM     11  C   UNL     1      45.395   4.900   9.759  0.00  0.00    +0.000 A 
ATOM     12  C   UNL     1      46.082   4.860   8.539  0.00  0.00    +0.000 A 
ATOM     13  C   UNL     1      46.013   3.731   7.718  0.00  0.00    +0.000 A 
ATOM     14  C   UNL     1      45.265   2.621   8.112  0.00  0.00    +0.000 A 
ATOM     15  C   UNL     1      44.591   2.642   9.331  0.00  0.00    +0.000 A 
ATOM     16  C   UNL     1      44.665   3.771  10.144  0.00  0.00    +0.000 A 
ATOM     17  F   UNL     1      44.021   3.760  11.319  0.00  0.00    +0.000 F 
ENDBRANCH  10  11
ENDBRANCH   9  10
ENDBRANCH   8   9
ENDBRANCH   5   8
ENDBRANCH   1   2
BRANCH   1  20
ATOM     18  C   UNL     1      49.869   2.473  16.977  0.00  0.00    +0.000 C 
ATOM     19  O   UNL     1      49.673   1.502  16.250  0.00  0.00    +0.000 OA
ATOM     20  N   UNL     1      48.889   3.398  17.202  0.00  0.00    +0.000 N 
ATOM     21  H   UNL     1      49.047   4.167  17.841  0.00  0.00    +0.000 HD
BRANCH  18  29
ATOM     22  C   UNL     1      51.269   5.134  18.666  0.00  0.00    +0.000 A 
ATOM     23  N   UNL     1      52.078   6.024  19.277  0.00  0.00    +0.000 NA
ATOM     24  C   UNL     1      53.329   5.650  19.557  0.00  0.00    +0.000 A 
ATOM     25  N   UNL     1      53.886   4.469  19.310  0.00  0.00    +0.000 NA
ATOM     26  C   UNL     1      53.053   3.615  18.691  0.00  0.00    +0.000 A 
ATOM     27  S   UNL     1      53.594   2.053  18.308  0.00  0.00    +0.000 S 
ATOM     28  C   UNL     1      52.105   1.659  17.593  0.00  0.00    +0.000 A 
ATOM     29  C   UNL     1      51.175   2.694  17.621  0.00  0.00    +0.000 A 
ATOM     30  C   UNL     1      51.736   3.855  18.309  0.00  0.00    +0.000 A 
BRANCH  22  32
ATOM     31  C   UNL     1      49.657   6.841  18.800  0.00  0.00    +0.000 C 
ATOM     32  O   UNL     1      49.962   5.500  18.418  0.00  0.00    +0.000 OA
ENDBRANCH  22  32
ENDBRANCH  18  29
ENDBRANCH   1  20
TORSDOF 8
ENDMDL
MODEL 7
REMARK VINA RESULT:    -6.305      2.081      3.690
REMARK INTER + INTRA:         -10.577
REMARK INTER:                  -9.997
REMARK INTRA:                  -0.580
REMARK UNBOUND:                -1.323
REMARK  Name = 
REMARK  9 active torsions:
REMARK  status: ('A' for Active; 'I' for Inactive)
REMARK    1  A    between atoms: C_1  and  O_2
REMARK    2  A    between atoms: O_2  and  C_3
REMARK    3  A    between atoms: C_10  and  C_11
REMARK    4  A    between atoms: N_13  and  C_14
REMARK    5  A    between atoms: C_14  and  C_15
REMARK    6  A    between atoms: C_18  and  C_19
REMARK    7  A    between atoms: C_19  and  O_20
REMARK    8  A    between atoms: O_20  and  C_21
REMARK    9  A    between atoms: C_21  and  C_22
REMARK                            x       y       z     vdW  Elec       q    Type
REMARK                         _______ _______ _______ _____ _____    ______ ____
ROOT
ATOM      1  C   UNL     1      47.489   4.773  14.560  0.00  0.00    +0.000 C 
ENDROOT
BRANCH   1   2
ATOM      2  C   UNL     1      46.450   4.877  13.473  0.00  0.00    +0.000 A 
ATOM      3  C   UNL     1      46.603   5.792  12.421  0.00  0.00    +0.000 A 
ATOM      4  C   UNL     1      45.649   5.867  11.401  0.00  0.00    +0.000 A 
ATOM      5  C   UNL     1      44.517   5.038  11.417  0.00  0.00    +0.000 A 
ATOM      6  C   UNL     1      44.349   4.151  12.488  0.00  0.00    +0.000 A 
ATOM      7  C   UNL     1      45.303   4.076  13.508  0.00  0.00    +0.000 A 
BRANCH   5   8
ATOM      8  C   UNL     1      43.504   5.103  10.301  0.00  0.00    +0.000 C 
BRANCH   8   9
ATOM      9  O   UNL     1      43.920   4.238   9.246  0.00  0.00    +0.000 OA
BRANCH   9  10
ATOM     10  C   UNL     1      44.710   3.152   9.733  0.00  0.00    +0.000 C 
BRANCH  10  11
ATOM     11  C   UNL     1      45.691   2.704   8.681  0.00  0.00    +0.000 A 
ATOM     12  C   UNL     1      45.876   1.351   8.365  0.00  0.00    +0.000 A 
ATOM     13  C   UNL     1      46.763   0.970   7.355  0.00  0.00    +0.000 A 
ATOM     14  C   UNL     1      47.469   1.937   6.637  0.00  0.00    +0.000 A 
ATOM     15  C   UNL     1      47.281   3.286   6.930  0.00  0.00    +0.000 A 
ATOM     16  C   UNL     1      46.394   3.658   7.939  0.00  0.00    +0.000 A 
ATOM     17  F   UNL     1      46.218   4.963   8.191  0.00  0.00    +0.000 F 
ENDBRANCH  10  11
ENDBRANCH   9  10
ENDBRANCH   8   9
ENDBRANCH   5   8
ENDBRANCH   1   2
BRANCH   1  20
ATOM     18  C   UNL     1      48.679   6.224  16.142  0.00  0.00    +0.000 C 
ATOM     19  O   UNL     1      49.398   5.292  16.497  0.00  0.00    +0.000 OA
ATOM     20  N   UNL     1      47.705   6.047  15.201  0.00  0.00    +0.000 N 
ATOM     21  H   UNL     1      47.087   6.808  14.952  0.00  0.00    +0.000 HD
BRANCH  18  29
ATOM     22  C   UNL     1      48.796   9.376  14.748  0.00  0.00    +0.000 A 
ATOM     23  N   UNL     1      48.961  10.686  14.474  0.00  0.00    +0.000 NA
ATOM     24  C   UNL     1      49.218  11.516  15.488  0.00  0.00    +0.000 A 
ATOM     25  N   UNL     1      49.322  11.199  16.774  0.00  0.00    +0.000 NA
ATOM     26  C   UNL     1      49.162   9.884  17.006  0.00  0.00    +0.000 A 
ATOM     27  S   UNL     1      49.250   9.301  18.597  0.00  0.00    +0.000 S 
ATOM     28  C   UNL     1      48.998   7.704  18.078  0.00  0.00    +0.000 A 
ATOM     29  C   UNL     1      48.849   7.576  16.701  0.00  0.00    +0.000 A 
ATOM     30  C   UNL     1      48.916   8.890  16.063  0.00  0.00    +0.000 A 
BRANCH  22  32
ATOM     31  C   UNL     1      49.167   8.824  12.492  0.00  0.00    +0.000 C 
ATOM     32  O   UNL     1      48.484   8.523  13.708  0.00  0.00    +0.000 OA
ENDBRANCH  22  32
ENDBRANCH  18  29
ENDBRANCH   1  20
TORSDOF 8
ENDMDL
