MODEL 1
REMARK VINA RESULT:    -7.989      0.000      0.000
REMARK INTER + INTRA:         -12.739
REMARK INTER:                 -11.726
REMARK INTRA:                  -1.013
REMARK UNBOUND:                -1.013
REMARK  Name = 
REMARK  8 active torsions:
REMARK  status: ('A' for Active; 'I' for Inactive)
REMARK    1  A    between atoms: C_2  and  C_3
REMARK    2  A    between atoms: C_7  and  C_8
REMARK    3  A    between atoms: C_8  and  N_9
REMARK    4  A    between atoms: N_9  and  C_10
REMARK    5  A    between atoms: C_10  and  C_11
REMARK    6  A    between atoms: C_14  and  C_15
REMARK    7  A    between atoms: C_15  and  N_16
REMARK    8  A    between atoms: C_17  and  C_19
REMARK                            x       y       z     vdW  Elec       q    Type
REMARK                         _______ _______ _______ _____ _____    ______ ____
ROOT
ATOM      1  C   UNL     1      44.633   5.930  12.043  0.00  0.00    +0.000 A 
ATOM      2  C   UNL     1      45.132   5.012  12.979  0.00  0.00    +0.000 A 
ATOM      3  C   UNL     1      46.330   5.261  13.653  0.00  0.00    +0.000 A 
ATOM      4  C   UNL     1      47.052   6.436  13.406  0.00  0.00    +0.000 A 
ATOM      5  C   UNL     1      46.576   7.330  12.438  0.00  0.00    +0.000 A 
ATOM      6  C   UNL     1      45.375   7.084  11.767  0.00  0.00    +0.000 A 
ENDROOT
BRANCH   1   7
ATOM      7  C   UNL     1      43.299   5.688  11.374  0.00  0.00    +0.000 C 
BRANCH   7   8
ATOM      8  N   UNL     1      43.426   5.043  10.063  0.00  0.00    +0.000 NA
ATOM      9  H   UNL     1      42.502   4.989   9.634  0.00  0.00    +0.000 HD
BRANCH   8  10
ATOM     10  C   UNL     1      43.933   3.668  10.180  0.00  0.00    +0.000 C 
BRANCH  10  15
ATOM     11  C   UNL     1      46.279   1.837   7.987  0.00  0.00    +0.000 A 
ATOM     12  C   UNL     1      46.920   2.826   7.254  0.00  0.00    +0.000 A 
ATOM     13  C   UNL     1      46.565   4.150   7.486  0.00  0.00    +0.000 A 
ATOM     14  C   UNL     1      45.593   4.438   8.440  0.00  0.00    +0.000 A 
ATOM     15  C   UNL     1      45.006   3.387   9.146  0.00  0.00    +0.000 A 
ATOM     16  N   UNL     1      45.330   2.088   8.921  0.00  0.00    +0.000 NA
BRANCH  11  18
ATOM     17  N   UNL     1      46.888  -0.658   7.594  0.00  0.00    +0.000 NA
ATOM     18  C   UNL     1      46.605   0.451   7.786  0.00  0.00    +0.000 C 
ENDBRANCH  11  18
ENDBRANCH  10  15
ENDBRANCH   8  10
ENDBRANCH   7   8
ENDBRANCH   1   7
BRANCH   4  19
ATOM     19  C   UNL     1      48.337   6.725  14.136  0.00  0.00    +0.000 C 
BRANCH  19  20
ATOM     20  N   UNL     1      48.194   6.488  15.548  0.00  0.00    +0.000 N 
ATOM     21  C   UNL     1      49.281   6.276  16.353  0.00  0.00    +0.000 C 
ATOM     22  O   UNL     1      50.431   6.307  15.922  0.00  0.00    +0.000 OA
ATOM     23  H   UNL     1      47.274   6.206  15.871  0.00  0.00    +0.000 HD
BRANCH  21  24
ATOM     24  C   UNL     1      48.999   6.072  17.778  0.00  0.00    +0.000 A 
ATOM     25  C   UNL     1      49.316   4.862  18.381  0.00  0.00    +0.000 A 
ATOM     26  S   UNL     1      48.965   4.818  20.049  0.00  0.00    +0.000 S 
ATOM     27  C   UNL     1      48.332   6.396  20.014  0.00  0.00    +0.000 A 
ATOM     28  N   UNL     1      47.821   6.972  21.136  0.00  0.00    +0.000 NA
ATOM     29  C   UNL     1      47.357   8.164  20.961  0.00  0.00    +0.000 A 
ATOM     30  N   UNL     1      47.361   8.836  19.765  0.00  0.00    +0.000 N 
ATOM     31  C   UNL     1      47.891   8.305  18.614  0.00  0.00    +0.000 A 
ATOM     32  O   UNL     1      47.920   8.953  17.572  0.00  0.00    +0.000 OA
ATOM     33  C   UNL     1      48.412   6.959  18.753  0.00  0.00    +0.000 A 
ATOM     34  H   UNL     1      46.994   9.773  19.695  0.00  0.00    +0.000 HD
ENDBRANCH  21  24
ENDBRANCH  19  20
ENDBRANCH   4  19
TORSDOF 8
ENDMDL
MODEL 2
REMARK VINA RESULT:    -7.914      2.429      2.839
REMARK INTER + INTRA:         -12.629
REMARK INTER:                 -11.274
REMARK INTRA:                  -1.354
REMARK UNBOUND:                -1.013
REMARK  Name = 
REMARK  8 active torsions:
REMARK  status: ('A' for Active; 'I' for Inactive)
REMARK    1  A    between atoms: C_2  and  C_3
REMARK    2  A    between atoms: C_7  and  C_8
REMARK    3  A    between atoms: C_8  and  N_9
REMARK    4  A    between atoms: N_9  and  C_10
REMARK    5  A    between atoms: C_10  and  C_11
REMARK    6  A    between atoms: C_14  and  C_15
REMARK    7  A    between atoms: C_15  and  N_16
REMARK    8  A    between atoms: C_17  and  C_19
REMARK                            x       y       z     vdW  Elec       q    Type
REMARK                         _______ _______ _______ _____ _____    ______ ____
ROOT
ATOM      1  C   UNL     1      44.672   5.385  12.810  0.00  0.00    +0.000 A 
ATOM      2  C   UNL     1      45.867   4.796  13.251  0.00  0.00    +0.000 A 
ATOM      3  C   UNL     1      47.076   5.490  13.173  0.00  0.00    +0.000 A 
ATOM      4  C   UNL     1      47.115   6.791  12.655  0.00  0.00    +0.000 A 
ATOM      5  C   UNL     1      45.929   7.362  12.173  0.00  0.00    +0.000 A 
ATOM      6  C   UNL     1      44.718   6.670  12.255  0.00  0.00    +0.000 A 
ENDROOT
BRANCH   1   7
ATOM      7  C   UNL     1      43.358   4.655  12.967  0.00  0.00    +0.000 C 
BRANCH   7   8
ATOM      8  N   UNL     1      42.813   4.180  11.691  0.00  0.00    +0.000 NA
ATOM      9  H   UNL     1      41.809   4.029  11.800  0.00  0.00    +0.000 HD
BRANCH   8  10
ATOM     10  C   UNL     1      43.406   2.896  11.289  0.00  0.00    +0.000 C 
BRANCH  10  15
ATOM     11  C   UNL     1      45.701   2.090   8.507  0.00  0.00    +0.000 A 
ATOM     12  C   UNL     1      45.939   3.306   7.882  0.00  0.00    +0.000 A 
ATOM     13  C   UNL     1      45.317   4.440   8.394  0.00  0.00    +0.000 A 
ATOM     14  C   UNL     1      44.489   4.319   9.507  0.00  0.00    +0.000 A 
ATOM     15  C   UNL     1      44.313   3.062  10.087  0.00  0.00    +0.000 A 
ATOM     16  N   UNL     1      44.901   1.943   9.590  0.00  0.00    +0.000 NA
BRANCH  11  18
ATOM     17  N   UNL     1      46.798  -0.105   7.650  0.00  0.00    +0.000 NA
ATOM     18  C   UNL     1      46.316   0.885   8.018  0.00  0.00    +0.000 C 
ENDBRANCH  11  18
ENDBRANCH  10  15
ENDBRANCH   8  10
ENDBRANCH   7   8
ENDBRANCH   1   7
BRANCH   4  19
ATOM     19  C   UNL     1      48.408   7.558  12.579  0.00  0.00    +0.000 C 
BRANCH  19  20
ATOM     20  N   UNL     1      49.363   7.057  13.532  0.00  0.00    +0.000 N 
ATOM     21  C   UNL     1      49.501   7.622  14.772  0.00  0.00    +0.000 C 
ATOM     22  O   UNL     1      48.802   8.560  15.147  0.00  0.00    +0.000 OA
ATOM     23  H   UNL     1      50.108   6.474  13.166  0.00  0.00    +0.000 HD
BRANCH  21  24
ATOM     24  C   UNL     1      50.492   7.000  15.658  0.00  0.00    +0.000 A 
ATOM     25  C   UNL     1      51.812   7.429  15.628  0.00  0.00    +0.000 A 
ATOM     26  S   UNL     1      52.814   6.632  16.756  0.00  0.00    +0.000 S 
ATOM     27  C   UNL     1      51.529   5.652  17.287  0.00  0.00    +0.000 A 
ATOM     28  N   UNL     1      51.718   4.706  18.247  0.00  0.00    +0.000 NA
ATOM     29  C   UNL     1      50.663   4.022  18.539  0.00  0.00    +0.000 A 
ATOM     30  N   UNL     1      49.433   4.200  17.961  0.00  0.00    +0.000 N 
ATOM     31  C   UNL     1      49.188   5.160  17.009  0.00  0.00    +0.000 A 
ATOM     32  O   UNL     1      48.063   5.323  16.547  0.00  0.00    +0.000 OA
ATOM     33  C   UNL     1      50.347   5.947  16.633  0.00  0.00    +0.000 A 
ATOM     34  H   UNL     1      48.641   3.641  18.242  0.00  0.00    +0.000 HD
ENDBRANCH  21  24
ENDBRANCH  19  20
ENDBRANCH   4  19
TORSDOF 8
ENDMDL
MODEL 3
REMARK VINA RESULT:    -7.753      2.788      4.059
REMARK INTER + INTRA:         -12.393
REMARK INTER:                 -11.626
REMARK INTRA:                  -0.766
REMARK UNBOUND:                -1.013
REMARK  Name = 
REMARK  8 active torsions:
REMARK  status: ('A' for Active; 'I' for Inactive)
REMARK    1  A    between atoms: C_2  and  C_3
REMARK    2  A    between atoms: C_7  and  C_8
REMARK    3  A    between atoms: C_8  and  N_9
REMARK    4  A    between atoms: N_9  and  C_10
REMARK    5  A    between atoms: C_10  and  C_11
REMARK    6  A    between atoms: C_14  and  C_15
REMARK    7  A    between atoms: C_15  and  N_16
REMARK    8  A    between atoms: C_17  and  C_19
REMARK                            x       y       z     vdW  Elec       q    Type
REMARK                         _______ _______ _______ _____ _____    ______ ____
ROOT
ATOM      1  C   UNL     1      46.376   4.427  13.270  0.00  0.00    +0.000 A 
ATOM      2  C   UNL     1      46.837   5.679  12.836  0.00  0.00    +0.000 A 
ATOM      3  C   UNL     1      47.640   6.469  13.663  0.00  0.00    +0.000 A 
ATOM      4  C   UNL     1      48.001   6.020  14.940  0.00  0.00    +0.000 A 
ATOM      5  C   UNL     1      47.502   4.789  15.389  0.00  0.00    +0.000 A 
ATOM      6  C   UNL     1      46.703   3.997  14.561  0.00  0.00    +0.000 A 
ENDROOT
BRANCH   1   7
ATOM      7  C   UNL     1      45.570   3.547  12.341  0.00  0.00    +0.000 C 
BRANCH   7   8
ATOM      8  N   UNL     1      44.454   4.258  11.707  0.00  0.00    +0.000 NA
ATOM      9  H   UNL     1      43.717   4.391  12.399  0.00  0.00    +0.000 HD
BRANCH   8  10
ATOM     10  C   UNL     1      43.877   3.485  10.598  0.00  0.00    +0.000 C 
BRANCH  10  15
ATOM     11  C   UNL     1      46.136   1.895   8.143  0.00  0.00    +0.000 A 
ATOM     12  C   UNL     1      46.652   2.950   7.403  0.00  0.00    +0.000 A 
ATOM     13  C   UNL     1      46.237   4.239   7.721  0.00  0.00    +0.000 A 
ATOM     14  C   UNL     1      45.333   4.426   8.763  0.00  0.00    +0.000 A 
ATOM     15  C   UNL     1      44.873   3.314   9.469  0.00  0.00    +0.000 A 
ATOM     16  N   UNL     1      45.256   2.048   9.161  0.00  0.00    +0.000 NA
BRANCH  11  18
ATOM     17  N   UNL     1      46.812  -0.557   7.609  0.00  0.00    +0.000 NA
ATOM     18  C   UNL     1      46.528   0.541   7.855  0.00  0.00    +0.000 C 
ENDBRANCH  11  18
ENDBRANCH  10  15
ENDBRANCH   8  10
ENDBRANCH   7   8
ENDBRANCH   1   7
BRANCH   4  19
ATOM     19  C   UNL     1      48.878   6.853  15.837  0.00  0.00    +0.000 C 
BRANCH  19  20
ATOM     20  N   UNL     1      49.983   6.081  16.339  0.00  0.00    +0.000 N 
ATOM     21  C   UNL     1      49.931   5.468  17.563  0.00  0.00    +0.000 C 
ATOM     22  O   UNL     1      48.935   5.518  18.280  0.00  0.00    +0.000 OA
ATOM     23  H   UNL     1      50.884   6.237  15.900  0.00  0.00    +0.000 HD
BRANCH  21  24
ATOM     24  C   UNL     1      51.115   4.690  17.946  0.00  0.00    +0.000 A 
ATOM     25  C   UNL     1      52.194   5.324  18.549  0.00  0.00    +0.000 A 
ATOM     26  S   UNL     1      53.460   4.261  18.970  0.00  0.00    +0.000 S 
ATOM     27  C   UNL     1      52.631   2.926  18.317  0.00  0.00    +0.000 A 
ATOM     28  N   UNL     1      53.185   1.683  18.327  0.00  0.00    +0.000 NA
ATOM     29  C   UNL     1      52.455   0.769  17.781  0.00  0.00    +0.000 A 
ATOM     30  N   UNL     1      51.218   0.983  17.230  0.00  0.00    +0.000 N 
ATOM     31  C   UNL     1      50.609   2.214  17.222  0.00  0.00    +0.000 A 
ATOM     32  O   UNL     1      49.481   2.360  16.761  0.00  0.00    +0.000 OA
ATOM     33  C   UNL     1      51.395   3.281  17.809  0.00  0.00    +0.000 A 
ATOM     34  H   UNL     1      50.690   0.222  16.829  0.00  0.00    +0.000 HD
ENDBRANCH  21  24
ENDBRANCH  19  20
ENDBRANCH   4  19
TORSDOF 8
ENDMDL
MODEL 4
REMARK VINA RESULT:    -7.498      3.426      9.032
REMARK INTER + INTRA:         -12.018
REMARK INTER:                 -10.433
REMARK INTRA:                  -1.585
REMARK UNBOUND:                -1.013
REMARK  Name = 
REMARK  8 active torsions:
REMARK  status: ('A' for Active; 'I' for Inactive)
REMARK    1  A    between atoms: C_2  and  C_3
REMARK    2  A    between atoms: C_7  and  C_8
REMARK    3  A    between atoms: C_8  and  N_9
REMARK    4  A    between atoms: N_9  and  C_10
REMARK    5  A    between atoms: C_10  and  C_11
REMARK    6  A    between atoms: C_14  and  C_15
REMARK    7  A    between atoms: C_15  and  N_16
REMARK    8  A    between atoms: C_17  and  C_19
REMARK                            x       y       z     vdW  Elec       q    Type
REMARK                         _______ _______ _______ _____ _____    ______ ____
ROOT
ATOM      1  C   UNL     1      49.018   7.756  16.106  0.00  0.00    +0.000 A 
ATOM      2  C   UNL     1      48.329   8.884  15.636  0.00  0.00    +0.000 A 
ATOM      3  C   UNL     1      47.775   8.899  14.354  0.00  0.00    +0.000 A 
ATOM      4  C   UNL     1      47.897   7.783  13.516  0.00  0.00    +0.000 A 
ATOM      5  C   UNL     1      48.626   6.674  13.969  0.00  0.00    +0.000 A 
ATOM      6  C   UNL     1      49.175   6.657  15.253  0.00  0.00    +0.000 A 
ENDROOT
BRANCH   1   7
ATOM      7  C   UNL     1      49.548   7.721  17.521  0.00  0.00    +0.000 C 
BRANCH   7   8
ATOM      8  N   UNL     1      48.509   7.422  18.513  0.00  0.00    +0.000 NA
ATOM      9  H   UNL     1      48.486   8.177  19.199  0.00  0.00    +0.000 HD
BRANCH   8  10
ATOM     10  C   UNL     1      48.795   6.179  19.242  0.00  0.00    +0.000 C 
BRANCH  10  15
ATOM     11  C   UNL     1      49.343   2.997  17.443  0.00  0.00    +0.000 A 
ATOM     12  C   UNL     1      48.125   2.720  16.838  0.00  0.00    +0.000 A 
ATOM     13  C   UNL     1      47.077   3.613  17.033  0.00  0.00    +0.000 A 
ATOM     14  C   UNL     1      47.284   4.747  17.814  0.00  0.00    +0.000 A 
ATOM     15  C   UNL     1      48.544   4.962  18.375  0.00  0.00    +0.000 A 
ATOM     16  N   UNL     1      49.572   4.092  18.207  0.00  0.00    +0.000 NA
BRANCH  11  18
ATOM     17  N   UNL     1      51.340   1.360  17.155  0.00  0.00    +0.000 NA
ATOM     18  C   UNL     1      50.460   2.106  17.277  0.00  0.00    +0.000 C 
ENDBRANCH  11  18
ENDBRANCH  10  15
ENDBRANCH   8  10
ENDBRANCH   7   8
ENDBRANCH   1   7
BRANCH   4  19
ATOM     19  C   UNL     1      47.294   7.778  12.136  0.00  0.00    +0.000 C 
BRANCH  19  20
ATOM     20  N   UNL     1      46.647   6.522  11.861  0.00  0.00    +0.000 N 
ATOM     21  C   UNL     1      45.288   6.432  11.720  0.00  0.00    +0.000 C 
ATOM     22  O   UNL     1      44.555   7.415  11.789  0.00  0.00    +0.000 OA
ATOM     23  H   UNL     1      47.184   5.682  12.054  0.00  0.00    +0.000 HD
BRANCH  21  24
ATOM     24  C   UNL     1      44.758   5.097  11.415  0.00  0.00    +0.000 A 
ATOM     25  C   UNL     1      43.999   4.421  12.362  0.00  0.00    +0.000 A 
ATOM     26  S   UNL     1      43.425   2.909  11.822  0.00  0.00    +0.000 S 
ATOM     27  C   UNL     1      44.212   3.083  10.323  0.00  0.00    +0.000 A 
ATOM     28  N   UNL     1      44.149   2.104   9.380  0.00  0.00    +0.000 NA
ATOM     29  C   UNL     1      44.808   2.360   8.300  0.00  0.00    +0.000 A 
ATOM     30  N   UNL     1      45.523   3.509   8.075  0.00  0.00    +0.000 N 
ATOM     31  C   UNL     1      45.593   4.533   8.986  0.00  0.00    +0.000 A 
ATOM     32  O   UNL     1      46.203   5.567   8.733  0.00  0.00    +0.000 OA
ATOM     33  C   UNL     1      44.881   4.289  10.226  0.00  0.00    +0.000 A 
ATOM     34  H   UNL     1      46.008   3.656   7.202  0.00  0.00    +0.000 HD
ENDBRANCH  21  24
ENDBRANCH  19  20
ENDBRANCH   4  19
TORSDOF 8
ENDMDL
MODEL 5
REMARK VINA RESULT:    -7.372      3.222      8.713
REMARK INTER + INTRA:         -11.833
REMARK INTER:                 -10.227
REMARK INTRA:                  -1.606
REMARK UNBOUND:                -1.013
REMARK  Name = 
REMARK  8 active torsions:
REMARK  status: ('A' for Active; 'I' for Inactive)
REMARK    1  A    between atoms: C_2  and  C_3
REMARK    2  A    between atoms: C_7  and  C_8
REMARK    3  A    between atoms: C_8  and  N_9
REMARK    4  A    between atoms: N_9  and  C_10
REMARK    5  A    between atoms: C_10  and  C_11
REMARK    6  A    between atoms: C_14  and  C_15
REMARK    7  A    between atoms: C_15  and  N_16
REMARK    8  A    between atoms: C_17  and  C_19
REMARK                            x       y       z     vdW  Elec       q    Type
REMARK                         _______ _______ _______ _____ _____    ______ ____
ROOT
ATOM      1  C   UNL     1      49.623   8.451  15.570  0.00  0.00    +0.000 A 
ATOM      2  C   UNL     1      48.510   9.236  15.235  0.00  0.00    +0.000 A 
ATOM      3  C   UNL     1      47.895   9.107  13.987  0.00  0.00    +0.000 A 
ATOM      4  C   UNL     1      48.380   8.186  13.050  0.00  0.00    +0.000 A 
ATOM      5  C   UNL     1      49.519   7.434  13.368  0.00  0.00    +0.000 A 
ATOM      6  C   UNL     1      50.132   7.559  14.617  0.00  0.00    +0.000 A 
ENDROOT
BRANCH   1   7
ATOM      7  C   UNL     1      50.236   8.544  16.948  0.00  0.00    +0.000 C 
BRANCH   7   8
ATOM      8  N   UNL     1      50.134   7.291  17.704  0.00  0.00    +0.000 NA
ATOM      9  H   UNL     1      50.478   6.528  17.120  0.00  0.00    +0.000 HD
BRANCH   8  10
ATOM     10  C   UNL     1      48.742   6.978  18.055  0.00  0.00    +0.000 C 
BRANCH  10  15
ATOM     11  C   UNL     1      47.791   3.878  16.282  0.00  0.00    +0.000 A 
ATOM     12  C   UNL     1      47.866   2.883  17.247  0.00  0.00    +0.000 A 
ATOM     13  C   UNL     1      48.248   3.244  18.534  0.00  0.00    +0.000 A 
ATOM     14  C   UNL     1      48.535   4.578  18.811  0.00  0.00    +0.000 A 
ATOM     15  C   UNL     1      48.421   5.521  17.788  0.00  0.00    +0.000 A 
ATOM     16  N   UNL     1      48.064   5.182  16.523  0.00  0.00    +0.000 NA
BRANCH  11  18
ATOM     17  N   UNL     1      47.117   3.279  13.845  0.00  0.00    +0.000 NA
ATOM     18  C   UNL     1      47.403   3.559  14.934  0.00  0.00    +0.000 C 
ENDBRANCH  11  18
ENDBRANCH  10  15
ENDBRANCH   8  10
ENDBRANCH   7   8
ENDBRANCH   1   7
BRANCH   4  19
ATOM     19  C   UNL     1      47.719   8.024  11.706  0.00  0.00    +0.000 C 
BRANCH  19  20
ATOM     20  N   UNL     1      46.974   6.794  11.643  0.00  0.00    +0.000 N 
ATOM     21  C   UNL     1      45.606   6.781  11.704  0.00  0.00    +0.000 C 
ATOM     22  O   UNL     1      44.943   7.812  11.784  0.00  0.00    +0.000 OA
ATOM     23  H   UNL     1      47.488   5.940  11.835  0.00  0.00    +0.000 HD
BRANCH  21  24
ATOM     24  C   UNL     1      44.967   5.463  11.602  0.00  0.00    +0.000 A 
ATOM     25  C   UNL     1      44.262   4.951  12.683  0.00  0.00    +0.000 A 
ATOM     26  S   UNL     1      43.547   3.434  12.373  0.00  0.00    +0.000 S 
ATOM     27  C   UNL     1      44.196   3.387  10.801  0.00  0.00    +0.000 A 
ATOM     28  N   UNL     1      43.982   2.319   9.985  0.00  0.00    +0.000 NA
ATOM     29  C   UNL     1      44.550   2.408   8.829  0.00  0.00    +0.000 A 
ATOM     30  N   UNL     1      45.309   3.470   8.412  0.00  0.00    +0.000 N 
ATOM     31  C   UNL     1      45.529   4.581   9.190  0.00  0.00    +0.000 A 
ATOM     32  O   UNL     1      46.176   5.534   8.767  0.00  0.00    +0.000 OA
ATOM     33  C   UNL     1      44.926   4.524  10.508  0.00  0.00    +0.000 A 
ATOM     34  H   UNL     1      45.716   3.487   7.489  0.00  0.00    +0.000 HD
ENDBRANCH  21  24
ENDBRANCH  19  20
ENDBRANCH   4  19
TORSDOF 8
ENDMDL
MODEL 6
REMARK VINA RESULT:    -7.079      5.408      9.952
REMARK INTER + INTRA:         -11.404
REMARK INTER:                 -10.440
REMARK INTRA:                  -0.964
REMARK UNBOUND:                -1.013
REMARK  Name = 
REMARK  8 active torsions:
REMARK  status: ('A' for Active; 'I' for Inactive)
REMARK    1  A    between atoms: C_2  and  C_3
REMARK    2  A    between atoms: C_7  and  C_8
REMARK    3  A    between atoms: C_8  and  N_9
REMARK    4  A    between atoms: N_9  and  C_10
REMARK    5  A    between atoms: C_10  and  C_11
REMARK    6  A    between atoms: C_14  and  C_15
REMARK    7  A    between atoms: C_15  and  N_16
REMARK    8  A    between atoms: C_17  and  C_19
REMARK                            x       y       z     vdW  Elec       q    Type
REMARK                         _______ _______ _______ _____ _____    ______ ____
ROOT
ATOM      1  C   UNL     1      51.408   3.669  17.784  0.00  0.00    +0.000 A 
ATOM      2  C   UNL     1      50.571   4.794  17.811  0.00  0.00    +0.000 A 
ATOM      3  C   UNL     1      49.217   4.685  17.487  0.00  0.00    +0.000 A 
ATOM      4  C   UNL     1      48.671   3.444  17.133  0.00  0.00    +0.000 A 
ATOM      5  C   UNL     1      49.517   2.328  17.062  0.00  0.00    +0.000 A 
ATOM      6  C   UNL     1      50.870   2.437  17.391  0.00  0.00    +0.000 A 
ENDROOT
BRANCH   1   7
ATOM      7  C   UNL     1      52.854   3.783  18.209  0.00  0.00    +0.000 C 
BRANCH   7   8
ATOM      8  N   UNL     1      53.201   2.872  19.305  0.00  0.00    +0.000 NA
ATOM      9  H   UNL     1      53.124   3.378  20.187  0.00  0.00    +0.000 HD
BRANCH   8  10
ATOM     10  C   UNL     1      54.587   2.392  19.196  0.00  0.00    +0.000 C 
BRANCH  10  15
ATOM     11  C   UNL     1      54.361  -1.205  18.379  0.00  0.00    +0.000 A 
ATOM     12  C   UNL     1      54.741  -1.288  17.047  0.00  0.00    +0.000 A 
ATOM     13  C   UNL     1      55.084  -0.113  16.387  0.00  0.00    +0.000 A 
ATOM     14  C   UNL     1      55.039   1.095  17.078  0.00  0.00    +0.000 A 
ATOM     15  C   UNL     1      54.660   1.092  18.422  0.00  0.00    +0.000 A 
ATOM     16  N   UNL     1      54.308  -0.044  19.076  0.00  0.00    +0.000 NA
BRANCH  11  18
ATOM     17  N   UNL     1      53.672  -3.325  19.714  0.00  0.00    +0.000 NA
ATOM     18  C   UNL     1      53.994  -2.389  19.109  0.00  0.00    +0.000 C 
ENDBRANCH  11  18
ENDBRANCH  10  15
ENDBRANCH   8  10
ENDBRANCH   7   8
ENDBRANCH   1   7
BRANCH   4  19
ATOM     19  C   UNL     1      47.210   3.306  16.795  0.00  0.00    +0.000 C 
BRANCH  19  20
ATOM     20  N   UNL     1      46.798   4.321  15.862  0.00  0.00    +0.000 N 
ATOM     21  C   UNL     1      46.841   4.111  14.509  0.00  0.00    +0.000 C 
ATOM     22  O   UNL     1      47.202   3.042  14.023  0.00  0.00    +0.000 OA
ATOM     23  H   UNL     1      46.748   5.271  16.215  0.00  0.00    +0.000 HD
BRANCH  21  24
ATOM     24  C   UNL     1      46.370   5.217  13.668  0.00  0.00    +0.000 A 
ATOM     25  C   UNL     1      47.154   6.353  13.515  0.00  0.00    +0.000 A 
ATOM     26  S   UNL     1      46.474   7.514  12.466  0.00  0.00    +0.000 S 
ATOM     27  C   UNL     1      45.086   6.561  12.221  0.00  0.00    +0.000 A 
ATOM     28  N   UNL     1      44.068   6.995  11.429  0.00  0.00    +0.000 NA
ATOM     29  C   UNL     1      43.070   6.181  11.348  0.00  0.00    +0.000 A 
ATOM     30  N   UNL     1      42.998   4.968  11.983  0.00  0.00    +0.000 N 
ATOM     31  C   UNL     1      44.012   4.478  12.770  0.00  0.00    +0.000 A 
ATOM     32  O   UNL     1      43.933   3.367  13.286  0.00  0.00    +0.000 OA
ATOM     33  C   UNL     1      45.152   5.363  12.907  0.00  0.00    +0.000 A 
ATOM     34  H   UNL     1      42.194   4.369  11.870  0.00  0.00    +0.000 HD
ENDBRANCH  21  24
ENDBRANCH  19  20
ENDBRANCH   4  19
TORSDOF 8
ENDMDL
MODEL 7
REMARK VINA RESULT:    -6.629      3.731      9.382
REMARK INTER + INTRA:         -10.742
REMARK INTER:                  -9.680
REMARK INTRA:                  -1.062
REMARK UNBOUND:                -1.013
REMARK  Name = 
REMARK  8 active torsions:
REMARK  status: ('A' for Active; 'I' for Inactive)
REMARK    1  A    between atoms: C_2  and  C_3
REMARK    2  A    between atoms: C_7  and  C_8
REMARK    3  A    between atoms: C_8  and  N_9
REMARK    4  A    between atoms: N_9  and  C_10
REMARK    5  A    between atoms: C_10  and  C_11
REMARK    6  A    between atoms: C_14  and  C_15
REMARK    7  A    between atoms: C_15  and  N_16
REMARK    8  A    between atoms: C_17  and  C_19
REMARK                            x       y       z     vdW  Elec       q    Type
REMARK                         _______ _______ _______ _____ _____    ______ ____
ROOT
ATOM      1  C   UNL     1      49.772   7.852  15.600  0.00  0.00    +0.000 A 
ATOM      2  C   UNL     1      49.069   6.705  15.198  0.00  0.00    +0.000 A 
ATOM      3  C   UNL     1      48.264   6.725  14.057  0.00  0.00    +0.000 A 
ATOM      4  C   UNL     1      48.147   7.893  13.292  0.00  0.00    +0.000 A 
ATOM      5  C   UNL     1      48.813   9.050  13.719  0.00  0.00    +0.000 A 
ATOM      6  C   UNL     1      49.622   9.029  14.857  0.00  0.00    +0.000 A 
ENDROOT
BRANCH   1   7
ATOM      7  C   UNL     1      50.699   7.799  16.792  0.00  0.00    +0.000 C 
BRANCH   7   8
ATOM      8  N   UNL     1      51.739   6.773  16.662  0.00  0.00    +0.000 NA
ATOM      9  H   UNL     1      51.368   6.001  16.107  0.00  0.00    +0.000 HD
BRANCH   8  10
ATOM     10  C   UNL     1      52.128   6.223  17.968  0.00  0.00    +0.000 C 
BRANCH  10  15
ATOM     11  C   UNL     1      51.076   2.741  17.313  0.00  0.00    +0.000 A 
ATOM     12  C   UNL     1      52.081   1.959  17.865  0.00  0.00    +0.000 A 
ATOM     13  C   UNL     1      53.153   2.603  18.476  0.00  0.00    +0.000 A 
ATOM     14  C   UNL     1      53.179   3.994  18.517  0.00  0.00    +0.000 A 
ATOM     15  C   UNL     1      52.121   4.708  17.952  0.00  0.00    +0.000 A 
ATOM     16  N   UNL     1      51.076   4.095  17.339  0.00  0.00    +0.000 NA
BRANCH  11  18
ATOM     17  N   UNL     1      49.029   1.665  16.129  0.00  0.00    +0.000 NA
ATOM     18  C   UNL     1      49.947   2.128  16.667  0.00  0.00    +0.000 C 
ENDBRANCH  11  18
ENDBRANCH  10  15
ENDBRANCH   8  10
ENDBRANCH   7   8
ENDBRANCH   1   7
BRANCH   4  19
ATOM     19  C   UNL     1      47.294   7.926  12.051  0.00  0.00    +0.000 C 
BRANCH  19  20
ATOM     20  N   UNL     1      46.650   6.658  11.833  0.00  0.00    +0.000 N 
ATOM     21  C   UNL     1      45.292   6.559  11.693  0.00  0.00    +0.000 C 
ATOM     22  O   UNL     1      44.557   7.543  11.714  0.00  0.00    +0.000 OA
ATOM     23  H   UNL     1      47.187   5.829  12.067  0.00  0.00    +0.000 HD
BRANCH  21  24
ATOM     24  C   UNL     1      44.764   5.211  11.450  0.00  0.00    +0.000 A 
ATOM     25  C   UNL     1      44.013   4.575  12.430  0.00  0.00    +0.000 A 
ATOM     26  S   UNL     1      43.441   3.038  11.959  0.00  0.00    +0.000 S 
ATOM     27  C   UNL     1      44.219   3.149  10.450  0.00  0.00    +0.000 A 
ATOM     28  N   UNL     1      44.153   2.131   9.551  0.00  0.00    +0.000 NA
ATOM     29  C   UNL     1      44.806   2.341   8.456  0.00  0.00    +0.000 A 
ATOM     30  N   UNL     1      45.515   3.481   8.178  0.00  0.00    +0.000 N 
ATOM     31  C   UNL     1      45.587   4.545   9.043  0.00  0.00    +0.000 A 
ATOM     32  O   UNL     1      46.193   5.568   8.742  0.00  0.00    +0.000 OA
ATOM     33  C   UNL     1      44.883   4.352  10.297  0.00  0.00    +0.000 A 
ATOM     34  H   UNL     1      45.995   3.592   7.296  0.00  0.00    +0.000 HD
ENDBRANCH  21  24
ENDBRANCH  19  20
ENDBRANCH   4  19
TORSDOF 8
ENDMDL
MODEL 8
REMARK VINA RESULT:    -6.570      4.352      9.222
REMARK INTER + INTRA:         -10.656
REMARK INTER:                  -9.163
REMARK INTRA:                  -1.493
REMARK UNBOUND:                -1.013
REMARK  Name = 
REMARK  8 active torsions:
REMARK  status: ('A' for Active; 'I' for Inactive)
REMARK    1  A    between atoms: C_2  and  C_3
REMARK    2  A    between atoms: C_7  and  C_8
REMARK    3  A    between atoms: C_8  and  N_9
REMARK    4  A    between atoms: N_9  and  C_10
REMARK    5  A    between atoms: C_10  and  C_11
REMARK    6  A    between atoms: C_14  and  C_15
REMARK    7  A    between atoms: C_15  and  N_16
REMARK    8  A    between atoms: C_17  and  C_19
REMARK                            x       y       z     vdW  Elec       q    Type
REMARK                         _______ _______ _______ _____ _____    ______ ____
ROOT
ATOM      1  C   UNL     1      51.311   4.323  17.746  0.00  0.00    +0.000 A 
ATOM      2  C   UNL     1      50.395   5.364  17.530  0.00  0.00    +0.000 A 
ATOM      3  C   UNL     1      49.074   5.089  17.172  0.00  0.00    +0.000 A 
ATOM      4  C   UNL     1      48.639   3.765  17.026  0.00  0.00    +0.000 A 
ATOM      5  C   UNL     1      49.566   2.727  17.198  0.00  0.00    +0.000 A 
ATOM      6  C   UNL     1      50.886   3.002  17.561  0.00  0.00    +0.000 A 
ENDROOT
BRANCH   1   7
ATOM      7  C   UNL     1      52.718   4.628  18.206  0.00  0.00    +0.000 C 
BRANCH   7   8
ATOM      8  N   UNL     1      53.587   5.088  17.118  0.00  0.00    +0.000 NA
ATOM      9  H   UNL     1      54.397   4.469  17.063  0.00  0.00    +0.000 HD
BRANCH   8  10
ATOM     10  C   UNL     1      54.092   6.447  17.361  0.00  0.00    +0.000 C 
BRANCH  10  15
ATOM     11  C   UNL     1      51.781   8.409  15.249  0.00  0.00    +0.000 A 
ATOM     12  C   UNL     1      51.230   9.350  16.108  0.00  0.00    +0.000 A 
ATOM     13  C   UNL     1      51.633   9.338  17.439  0.00  0.00    +0.000 A 
ATOM     14  C   UNL     1      52.568   8.396  17.860  0.00  0.00    +0.000 A 
ATOM     15  C   UNL     1      53.085   7.493  16.930  0.00  0.00    +0.000 A 
ATOM     16  N   UNL     1      52.691   7.482  15.630  0.00  0.00    +0.000 NA
BRANCH  11  18
ATOM     17  N   UNL     1      51.072   8.379  12.749  0.00  0.00    +0.000 NA
ATOM     18  C   UNL     1      51.398   8.375  13.863  0.00  0.00    +0.000 C 
ENDBRANCH  11  18
ENDBRANCH  10  15
ENDBRANCH   8  10
ENDBRANCH   7   8
ENDBRANCH   1   7
BRANCH   4  19
ATOM     19  C   UNL     1      47.214   3.452  16.655  0.00  0.00    +0.000 C 
BRANCH  19  20
ATOM     20  N   UNL     1      46.702   4.414  15.715  0.00  0.00    +0.000 N 
ATOM     21  C   UNL     1      46.757   4.195  14.364  0.00  0.00    +0.000 C 
ATOM     22  O   UNL     1      47.214   3.160  13.886  0.00  0.00    +0.000 OA
ATOM     23  H   UNL     1      46.564   5.358  16.060  0.00  0.00    +0.000 HD
BRANCH  21  24
ATOM     24  C   UNL     1      46.178   5.243  13.516  0.00  0.00    +0.000 A 
ATOM     25  C   UNL     1      46.887   6.413  13.279  0.00  0.00    +0.000 A 
ATOM     26  S   UNL     1      46.085   7.497  12.234  0.00  0.00    +0.000 S 
ATOM     27  C   UNL     1      44.741   6.462  12.102  0.00  0.00    +0.000 A 
ATOM     28  N   UNL     1      43.657   6.812  11.358  0.00  0.00    +0.000 NA
ATOM     29  C   UNL     1      42.703   5.942  11.362  0.00  0.00    +0.000 A 
ATOM     30  N   UNL     1      42.735   4.752  12.040  0.00  0.00    +0.000 N 
ATOM     31  C   UNL     1      43.818   4.345  12.782  0.00  0.00    +0.000 A 
ATOM     32  O   UNL     1      43.831   3.251  13.338  0.00  0.00    +0.000 OA
ATOM     33  C   UNL     1      44.913   5.295  12.823  0.00  0.00    +0.000 A 
ATOM     34  H   UNL     1      41.961   4.106  11.994  0.00  0.00    +0.000 HD
ENDBRANCH  21  24
ENDBRANCH  19  20
ENDBRANCH   4  19
TORSDOF 8
ENDMDL
MODEL 9
REMARK VINA RESULT:    -6.418      4.590      9.317
REMARK INTER + INTRA:         -10.433
REMARK INTER:                  -8.233
REMARK INTRA:                  -2.201
REMARK UNBOUND:                -1.013
REMARK  Name = 
REMARK  8 active torsions:
REMARK  status: ('A' for Active; 'I' for Inactive)
REMARK    1  A    between atoms: C_2  and  C_3
REMARK    2  A    between atoms: C_7  and  C_8
REMARK    3  A    between atoms: C_8  and  N_9
REMARK    4  A    between atoms: N_9  and  C_10
REMARK    5  A    between atoms: C_10  and  C_11
REMARK    6  A    between atoms: C_14  and  C_15
REMARK    7  A    between atoms: C_15  and  N_16
REMARK    8  A    between atoms: C_17  and  C_19
REMARK                            x       y       z     vdW  Elec       q    Type
REMARK                         _______ _______ _______ _____ _____    ______ ____
ROOT
ATOM      1  C   UNL     1      51.374   2.790  17.800  0.00  0.00    +0.000 A 
ATOM      2  C   UNL     1      50.809   4.022  18.164  0.00  0.00    +0.000 A 
ATOM      3  C   UNL     1      49.478   4.315  17.858  0.00  0.00    +0.000 A 
ATOM      4  C   UNL     1      48.683   3.378  17.186  0.00  0.00    +0.000 A 
ATOM      5  C   UNL     1      49.261   2.165  16.783  0.00  0.00    +0.000 A 
ATOM      6  C   UNL     1      50.590   1.871  17.093  0.00  0.00    +0.000 A 
ENDROOT
BRANCH   1   7
ATOM      7  C   UNL     1      52.792   2.453  18.201  0.00  0.00    +0.000 C 
BRANCH   7   8
ATOM      8  N   UNL     1      53.795   3.168  17.404  0.00  0.00    +0.000 NA
ATOM      9  H   UNL     1      54.471   2.492  17.047  0.00  0.00    +0.000 HD
BRANCH   8  10
ATOM     10  C   UNL     1      54.540   4.143  18.214  0.00  0.00    +0.000 C 
BRANCH  10  15
ATOM     11  C   UNL     1      53.095   7.222  16.768  0.00  0.00    +0.000 A 
ATOM     12  C   UNL     1      52.793   8.018  17.864  0.00  0.00    +0.000 A 
ATOM     13  C   UNL     1      53.073   7.522  19.133  0.00  0.00    +0.000 A 
ATOM     14  C   UNL     1      53.645   6.259  19.260  0.00  0.00    +0.000 A 
ATOM     15  C   UNL     1      53.932   5.527  18.107  0.00  0.00    +0.000 A 
ATOM     16  N   UNL     1      53.651   5.990  16.862  0.00  0.00    +0.000 NA
BRANCH  11  18
ATOM     17  N   UNL     1      52.581   8.080  14.370  0.00  0.00    +0.000 NA
ATOM     18  C   UNL     1      52.824   7.684  15.434  0.00  0.00    +0.000 C 
ENDBRANCH  11  18
ENDBRANCH  10  15
ENDBRANCH   8  10
ENDBRANCH   7   8
ENDBRANCH   1   7
BRANCH   4  19
ATOM     19  C   UNL     1      47.242   3.672  16.862  0.00  0.00    +0.000 C 
BRANCH  19  20
ATOM     20  N   UNL     1      47.138   4.659  15.820  0.00  0.00    +0.000 N 
ATOM     21  C   UNL     1      47.138   4.306  14.497  0.00  0.00    +0.000 C 
ATOM     22  O   UNL     1      47.196   3.135  14.131  0.00  0.00    +0.000 OA
ATOM     23  H   UNL     1      47.347   5.618  16.079  0.00  0.00    +0.000 HD
BRANCH  21  24
ATOM     24  C   UNL     1      47.001   5.406  13.535  0.00  0.00    +0.000 A 
ATOM     25  C   UNL     1      45.961   5.396  12.615  0.00  0.00    +0.000 A 
ATOM     26  S   UNL     1      45.926   6.773  11.610  0.00  0.00    +0.000 S 
ATOM     27  C   UNL     1      47.328   7.407  12.336  0.00  0.00    +0.000 A 
ATOM     28  N   UNL     1      47.867   8.583  11.914  0.00  0.00    +0.000 NA
ATOM     29  C   UNL     1      48.940   8.934  12.540  0.00  0.00    +0.000 A 
ATOM     30  N   UNL     1      49.523   8.218  13.553  0.00  0.00    +0.000 N 
ATOM     31  C   UNL     1      49.001   7.041  14.030  0.00  0.00    +0.000 A 
ATOM     32  O   UNL     1      49.523   6.449  14.970  0.00  0.00    +0.000 OA
ATOM     33  C   UNL     1      47.801   6.592  13.349  0.00  0.00    +0.000 A 
ATOM     34  H   UNL     1      50.357   8.553  14.013  0.00  0.00    +0.000 HD
ENDBRANCH  21  24
ENDBRANCH  19  20
ENDBRANCH   4  19
TORSDOF 8
ENDMDL
