MODEL 1
REMARK VINA RESULT:    -8.481      0.000      0.000
REMARK INTER + INTRA:         -10.642
REMARK INTER:                  -9.969
REMARK INTRA:                  -0.673
REMARK UNBOUND:                -0.673
REMARK  Name = 
REMARK  4 active torsions:
REMARK  status: ('A' for Active; 'I' for Inactive)
REMARK    1  A    between atoms: C_1  and  C_2
REMARK    2  A    between atoms: N_6  and  C_7
REMARK    3  A    between atoms: C_7  and  C_8
REMARK    4  A    between atoms: C_12  and  C_13
REMARK                            x       y       z     vdW  Elec       q    Type
REMARK                         _______ _______ _______ _____ _____    ______ ____
ROOT
ATOM      1  C   UNL     1      44.829   4.016  11.556  0.00  0.00    +0.000 A 
ATOM      2  C   UNL     1      45.570   3.332  12.526  0.00  0.00    +0.000 A 
ATOM      3  C   UNL     1      46.444   4.028  13.357  0.00  0.00    +0.000 A 
ATOM      4  C   UNL     1      46.581   5.415  13.231  0.00  0.00    +0.000 A 
ATOM      5  C   UNL     1      45.846   6.140  12.277  0.00  0.00    +0.000 A 
ATOM      6  C   UNL     1      44.957   5.414  11.461  0.00  0.00    +0.000 A 
ENDROOT
BRANCH   5   7
ATOM      7  C   UNL     1      46.028   7.598  12.100  0.00  0.00    +0.000 A 
ATOM      8  C   UNL     1      47.267   8.230  12.280  0.00  0.00    +0.000 A 
ATOM      9  C   UNL     1      47.388   9.614  12.147  0.00  0.00    +0.000 A 
ATOM     10  C   UNL     1      46.260  10.344  11.822  0.00  0.00    +0.000 A 
ATOM     11  N   UNL     1      45.047   9.792  11.630  0.00  0.00    +0.000 NA
ATOM     12  C   UNL     1      44.963   8.445  11.777  0.00  0.00    +0.000 A 
ENDBRANCH   5   7
BRANCH   1  13
ATOM     13  C   UNL     1      43.945   3.268  10.589  0.00  0.00    +0.000 C 
BRANCH  13  19
ATOM     14  C   UNL     1      47.891   2.368   5.359  0.00  0.00    +0.000 C 
ATOM     15  C   UNL     1      47.030   2.384   6.581  0.00  0.00    +0.000 A 
ATOM     16  C   UNL     1      46.390   3.539   7.014  0.00  0.00    +0.000 A 
ATOM     17  C   UNL     1      45.590   3.496   8.156  0.00  0.00    +0.000 A 
ATOM     18  C   UNL     1      45.434   2.301   8.853  0.00  0.00    +0.000 A 
ATOM     19  N   UNL     1      44.645   2.176   9.966  0.00  0.00    +0.000 N 
ATOM     20  N   UNL     1      46.055   1.178   8.449  0.00  0.00    +0.000 NA
ATOM     21  C   UNL     1      46.829   1.237   7.337  0.00  0.00    +0.000 A 
ATOM     22  H   UNL     1      44.667   1.262  10.400  0.00  0.00    +0.000 HD
ENDBRANCH  13  19
ENDBRANCH   1  13
TORSDOF 3
ENDMDL
MODEL 2
REMARK VINA RESULT:    -8.035      2.029      3.442
REMARK INTER + INTRA:         -10.117
REMARK INTER:                  -9.660
REMARK INTRA:                  -0.457
REMARK UNBOUND:                -0.673
REMARK  Name = 
REMARK  4 active torsions:
REMARK  status: ('A' for Active; 'I' for Inactive)
REMARK    1  A    between atoms: C_1  and  C_2
REMARK    2  A    between atoms: N_6  and  C_7
REMARK    3  A    between atoms: C_7  and  C_8
REMARK    4  A    between atoms: C_12  and  C_13
REMARK                            x       y       z     vdW  Elec       q    Type
REMARK                         _______ _______ _______ _____ _____    ______ ____
ROOT
ATOM      1  C   UNL     1      44.655   4.583  11.342  0.00  0.00    +0.000 A 
ATOM      2  C   UNL     1      44.597   5.868  10.794  0.00  0.00    +0.000 A 
ATOM      3  C   UNL     1      45.339   6.903  11.358  0.00  0.00    +0.000 A 
ATOM      4  C   UNL     1      46.149   6.661  12.472  0.00  0.00    +0.000 A 
ATOM      5  C   UNL     1      46.243   5.381  13.047  0.00  0.00    +0.000 A 
ATOM      6  C   UNL     1      45.496   4.350  12.446  0.00  0.00    +0.000 A 
ENDROOT
BRANCH   5   7
ATOM      7  C   UNL     1      47.054   5.130  14.259  0.00  0.00    +0.000 A 
ATOM      8  C   UNL     1      46.853   4.012  15.082  0.00  0.00    +0.000 A 
ATOM      9  C   UNL     1      47.608   3.834  16.241  0.00  0.00    +0.000 A 
ATOM     10  C   UNL     1      48.568   4.779  16.552  0.00  0.00    +0.000 A 
ATOM     11  N   UNL     1      48.812   5.867  15.797  0.00  0.00    +0.000 NA
ATOM     12  C   UNL     1      48.051   6.015  14.682  0.00  0.00    +0.000 A 
ENDBRANCH   5   7
BRANCH   1  13
ATOM     13  C   UNL     1      43.791   3.471  10.799  0.00  0.00    +0.000 C 
BRANCH  13  19
ATOM     14  C   UNL     1      47.569   2.449   5.469  0.00  0.00    +0.000 C 
ATOM     15  C   UNL     1      46.770   2.502   6.730  0.00  0.00    +0.000 A 
ATOM     16  C   UNL     1      46.021   3.620   7.079  0.00  0.00    +0.000 A 
ATOM     17  C   UNL     1      45.284   3.613   8.264  0.00  0.00    +0.000 A 
ATOM     18  C   UNL     1      45.300   2.492   9.088  0.00  0.00    +0.000 A 
ATOM     19  N   UNL     1      44.582   2.402  10.252  0.00  0.00    +0.000 N 
ATOM     20  N   UNL     1      46.027   1.406   8.766  0.00  0.00    +0.000 NA
ATOM     21  C   UNL     1      46.737   1.429   7.611  0.00  0.00    +0.000 A 
ATOM     22  H   UNL     1      44.730   1.548  10.776  0.00  0.00    +0.000 HD
ENDBRANCH  13  19
ENDBRANCH   1  13
TORSDOF 3
ENDMDL
MODEL 3
REMARK VINA RESULT:    -7.425      2.182      2.730
REMARK INTER + INTRA:          -9.400
REMARK INTER:                  -8.715
REMARK INTRA:                  -0.685
REMARK UNBOUND:                -0.673
REMARK  Name = 
REMARK  4 active torsions:
REMARK  status: ('A' for Active; 'I' for Inactive)
REMARK    1  A    between atoms: C_1  and  C_2
REMARK    2  A    between atoms: N_6  and  C_7
REMARK    3  A    between atoms: C_7  and  C_8
REMARK    4  A    between atoms: C_12  and  C_13
REMARK                            x       y       z     vdW  Elec       q    Type
REMARK                         _______ _______ _______ _____ _____    ______ ____
ROOT
ATOM      1  C   UNL     1      45.191   5.249  11.832  0.00  0.00    +0.000 A 
ATOM      2  C   UNL     1      45.047   4.375  12.914  0.00  0.00    +0.000 A 
ATOM      3  C   UNL     1      45.985   4.376  13.943  0.00  0.00    +0.000 A 
ATOM      4  C   UNL     1      47.073   5.255  13.902  0.00  0.00    +0.000 A 
ATOM      5  C   UNL     1      47.248   6.156  12.838  0.00  0.00    +0.000 A 
ATOM      6  C   UNL     1      46.276   6.146  11.819  0.00  0.00    +0.000 A 
ENDROOT
BRANCH   5   7
ATOM      7  C   UNL     1      48.426   7.048  12.761  0.00  0.00    +0.000 A 
ATOM      8  C   UNL     1      48.774   7.736  11.589  0.00  0.00    +0.000 A 
ATOM      9  C   UNL     1      49.918   8.534  11.542  0.00  0.00    +0.000 A 
ATOM     10  C   UNL     1      50.692   8.640  12.682  0.00  0.00    +0.000 A 
ATOM     11  N   UNL     1      50.404   8.010  13.837  0.00  0.00    +0.000 NA
ATOM     12  C   UNL     1      49.290   7.234  13.844  0.00  0.00    +0.000 A 
ENDBRANCH   5   7
BRANCH   1  13
ATOM     13  C   UNL     1      44.235   5.200  10.666  0.00  0.00    +0.000 C 
BRANCH  13  19
ATOM     14  C   UNL     1      47.152   0.894   6.582  0.00  0.00    +0.000 C 
ATOM     15  C   UNL     1      46.533   2.002   7.371  0.00  0.00    +0.000 A 
ATOM     16  C   UNL     1      45.936   1.780   8.606  0.00  0.00    +0.000 A 
ATOM     17  C   UNL     1      45.381   2.852   9.306  0.00  0.00    +0.000 A 
ATOM     18  C   UNL     1      45.429   4.135   8.768  0.00  0.00    +0.000 A 
ATOM     19  N   UNL     1      44.929   5.239   9.407  0.00  0.00    +0.000 N 
ATOM     20  N   UNL     1      45.997   4.362   7.569  0.00  0.00    +0.000 NA
ATOM     21  C   UNL     1      46.532   3.309   6.903  0.00  0.00    +0.000 A 
ATOM     22  H   UNL     1      44.987   6.098   8.875  0.00  0.00    +0.000 HD
ENDBRANCH  13  19
ENDBRANCH   1  13
TORSDOF 3
ENDMDL
MODEL 4
REMARK VINA RESULT:    -7.306      1.948      6.768
REMARK INTER + INTRA:          -9.260
REMARK INTER:                  -8.565
REMARK INTRA:                  -0.695
REMARK UNBOUND:                -0.673
REMARK  Name = 
REMARK  4 active torsions:
REMARK  status: ('A' for Active; 'I' for Inactive)
REMARK    1  A    between atoms: C_1  and  C_2
REMARK    2  A    between atoms: N_6  and  C_7
REMARK    3  A    between atoms: C_7  and  C_8
REMARK    4  A    between atoms: C_12  and  C_13
REMARK                            x       y       z     vdW  Elec       q    Type
REMARK                         _______ _______ _______ _____ _____    ______ ____
ROOT
ATOM      1  C   UNL     1      44.515   4.974  11.212  0.00  0.00    +0.000 A 
ATOM      2  C   UNL     1      43.580   4.110  11.793  0.00  0.00    +0.000 A 
ATOM      3  C   UNL     1      43.391   2.833  11.272  0.00  0.00    +0.000 A 
ATOM      4  C   UNL     1      44.136   2.406  10.168  0.00  0.00    +0.000 A 
ATOM      5  C   UNL     1      45.092   3.239   9.562  0.00  0.00    +0.000 A 
ATOM      6  C   UNL     1      45.276   4.519  10.119  0.00  0.00    +0.000 A 
ENDROOT
BRANCH   5   7
ATOM      7  C   UNL     1      45.843   2.814   8.360  0.00  0.00    +0.000 A 
ATOM      8  C   UNL     1      46.111   3.683   7.292  0.00  0.00    +0.000 A 
ATOM      9  C   UNL     1      46.784   3.233   6.156  0.00  0.00    +0.000 A 
ATOM     10  C   UNL     1      47.192   1.913   6.114  0.00  0.00    +0.000 A 
ATOM     11  N   UNL     1      46.971   1.034   7.111  0.00  0.00    +0.000 NA
ATOM     12  C   UNL     1      46.304   1.503   8.197  0.00  0.00    +0.000 A 
ENDBRANCH   5   7
BRANCH   1  13
ATOM     13  C   UNL     1      44.670   6.391  11.707  0.00  0.00    +0.000 C 
BRANCH  13  19
ATOM     14  C   UNL     1      50.955   8.192  12.701  0.00  0.00    +0.000 C 
ATOM     15  C   UNL     1      49.525   7.758  12.668  0.00  0.00    +0.000 A 
ATOM     16  C   UNL     1      48.801   7.703  11.483  0.00  0.00    +0.000 A 
ATOM     17  C   UNL     1      47.471   7.281  11.508  0.00  0.00    +0.000 A 
ATOM     18  C   UNL     1      46.877   6.917  12.713  0.00  0.00    +0.000 A 
ATOM     19  N   UNL     1      45.586   6.469  12.812  0.00  0.00    +0.000 N 
ATOM     20  N   UNL     1      47.565   6.974  13.869  0.00  0.00    +0.000 NA
ATOM     21  C   UNL     1      48.857   7.385  13.827  0.00  0.00    +0.000 A 
ATOM     22  H   UNL     1      45.272   6.291  13.758  0.00  0.00    +0.000 HD
ENDBRANCH  13  19
ENDBRANCH   1  13
TORSDOF 3
ENDMDL
MODEL 5
REMARK VINA RESULT:    -7.247      2.784      4.312
REMARK INTER + INTRA:          -9.191
REMARK INTER:                  -8.584
REMARK INTRA:                  -0.607
REMARK UNBOUND:                -0.673
REMARK  Name = 
REMARK  4 active torsions:
REMARK  status: ('A' for Active; 'I' for Inactive)
REMARK    1  A    between atoms: C_1  and  C_2
REMARK    2  A    between atoms: N_6  and  C_7
REMARK    3  A    between atoms: C_7  and  C_8
REMARK    4  A    between atoms: C_12  and  C_13
REMARK                            x       y       z     vdW  Elec       q    Type
REMARK                         _______ _______ _______ _____ _____    ______ ____
ROOT
ATOM      1  C   UNL     1      45.800   5.738  12.290  0.00  0.00    +0.000 A 
ATOM      2  C   UNL     1      46.597   6.749  11.743  0.00  0.00    +0.000 A 
ATOM      3  C   UNL     1      47.738   7.181  12.415  0.00  0.00    +0.000 A 
ATOM      4  C   UNL     1      48.095   6.602  13.637  0.00  0.00    +0.000 A 
ATOM      5  C   UNL     1      47.328   5.576  14.215  0.00  0.00    +0.000 A 
ATOM      6  C   UNL     1      46.189   5.146  13.506  0.00  0.00    +0.000 A 
ENDROOT
BRANCH   5   7
ATOM      7  C   UNL     1      47.669   4.998  15.534  0.00  0.00    +0.000 A 
ATOM      8  C   UNL     1      47.103   3.803  16.002  0.00  0.00    +0.000 A 
ATOM      9  C   UNL     1      47.416   3.314  17.271  0.00  0.00    +0.000 A 
ATOM     10  C   UNL     1      48.308   4.027  18.049  0.00  0.00    +0.000 A 
ATOM     11  N   UNL     1      48.889   5.175  17.650  0.00  0.00    +0.000 NA
ATOM     12  C   UNL     1      48.553   5.628  16.415  0.00  0.00    +0.000 A 
ENDBRANCH   5   7
BRANCH   1  13
ATOM     13  C   UNL     1      44.514   5.320  11.621  0.00  0.00    +0.000 C 
BRANCH  13  19
ATOM     14  C   UNL     1      46.763   2.344   6.160  0.00  0.00    +0.000 C 
ATOM     15  C   UNL     1      46.214   2.838   7.460  0.00  0.00    +0.000 A 
ATOM     16  C   UNL     1      46.177   4.192   7.774  0.00  0.00    +0.000 A 
ATOM     17  C   UNL     1      45.646   4.600   8.998  0.00  0.00    +0.000 A 
ATOM     18  C   UNL     1      45.155   3.655   9.895  0.00  0.00    +0.000 A 
ATOM     19  N   UNL     1      44.595   3.981  11.103  0.00  0.00    +0.000 N 
ATOM     20  N   UNL     1      45.193   2.341   9.606  0.00  0.00    +0.000 NA
ATOM     21  C   UNL     1      45.712   1.962   8.412  0.00  0.00    +0.000 A 
ATOM     22  H   UNL     1      44.329   3.189  11.673  0.00  0.00    +0.000 HD
ENDBRANCH  13  19
ENDBRANCH   1  13
TORSDOF 3
ENDMDL
MODEL 6
REMARK VINA RESULT:    -6.888      3.141      7.407
REMARK INTER + INTRA:          -8.770
REMARK INTER:                  -8.327
REMARK INTRA:                  -0.442
REMARK UNBOUND:                -0.673
REMARK  Name = 
REMARK  4 active torsions:
REMARK  status: ('A' for Active; 'I' for Inactive)
REMARK    1  A    between atoms: C_1  and  C_2
REMARK    2  A    between atoms: N_6  and  C_7
REMARK    3  A    between atoms: C_7  and  C_8
REMARK    4  A    between atoms: C_12  and  C_13
REMARK                            x       y       z     vdW  Elec       q    Type
REMARK                         _______ _______ _______ _____ _____    ______ ____
ROOT
ATOM      1  C   UNL     1      45.062   5.189  12.546  0.00  0.00    +0.000 A 
ATOM      2  C   UNL     1      43.720   5.580  12.496  0.00  0.00    +0.000 A 
ATOM      3  C   UNL     1      42.952   5.302  11.369  0.00  0.00    +0.000 A 
ATOM      4  C   UNL     1      43.517   4.626  10.282  0.00  0.00    +0.000 A 
ATOM      5  C   UNL     1      44.858   4.206  10.297  0.00  0.00    +0.000 A 
ATOM      6  C   UNL     1      45.608   4.484  11.456  0.00  0.00    +0.000 A 
ENDROOT
BRANCH   5   7
ATOM      7  C   UNL     1      45.477   3.540   9.129  0.00  0.00    +0.000 A 
ATOM      8  C   UNL     1      45.941   4.253   8.014  0.00  0.00    +0.000 A 
ATOM      9  C   UNL     1      46.479   3.586   6.913  0.00  0.00    +0.000 A 
ATOM     10  C   UNL     1      46.555   2.206   6.953  0.00  0.00    +0.000 A 
ATOM     11  N   UNL     1      46.133   1.469   7.999  0.00  0.00    +0.000 NA
ATOM     12  C   UNL     1      45.606   2.150   9.048  0.00  0.00    +0.000 A 
ENDBRANCH   5   7
BRANCH   1  13
ATOM     13  C   UNL     1      45.933   5.559  13.721  0.00  0.00    +0.000 C 
BRANCH  13  19
ATOM     14  C   UNL     1      50.226   4.076  18.527  0.00  0.00    +0.000 C 
ATOM     15  C   UNL     1      49.190   4.230  17.461  0.00  0.00    +0.000 A 
ATOM     16  C   UNL     1      49.016   5.425  16.773  0.00  0.00    +0.000 A 
ATOM     17  C   UNL     1      48.040   5.511  15.780  0.00  0.00    +0.000 A 
ATOM     18  C   UNL     1      47.248   4.405  15.481  0.00  0.00    +0.000 A 
ATOM     19  N   UNL     1      46.289   4.406  14.503  0.00  0.00    +0.000 N 
ATOM     20  N   UNL     1      47.402   3.244  16.146  0.00  0.00    +0.000 NA
ATOM     21  C   UNL     1      48.356   3.178  17.108  0.00  0.00    +0.000 A 
ATOM     22  H   UNL     1      45.756   3.548  14.432  0.00  0.00    +0.000 HD
ENDBRANCH  13  19
ENDBRANCH   1  13
TORSDOF 3
ENDMDL
MODEL 7
REMARK VINA RESULT:    -6.399      4.898      7.862
REMARK INTER + INTRA:          -8.194
REMARK INTER:                  -7.543
REMARK INTRA:                  -0.652
REMARK UNBOUND:                -0.673
REMARK  Name = 
REMARK  4 active torsions:
REMARK  status: ('A' for Active; 'I' for Inactive)
REMARK    1  A    between atoms: C_1  and  C_2
REMARK    2  A    between atoms: N_6  and  C_7
REMARK    3  A    between atoms: C_7  and  C_8
REMARK    4  A    between atoms: C_12  and  C_13
REMARK                            x       y       z     vdW  Elec       q    Type
REMARK                         _______ _______ _______ _____ _____    ______ ____
ROOT
ATOM      1  C   UNL     1      47.516   4.754  15.752  0.00  0.00    +0.000 A 
ATOM      2  C   UNL     1      48.351   5.864  15.590  0.00  0.00    +0.000 A 
ATOM      3  C   UNL     1      48.304   6.610  14.415  0.00  0.00    +0.000 A 
ATOM      4  C   UNL     1      47.418   6.255  13.392  0.00  0.00    +0.000 A 
ATOM      5  C   UNL     1      46.555   5.153  13.519  0.00  0.00    +0.000 A 
ATOM      6  C   UNL     1      46.610   4.428  14.725  0.00  0.00    +0.000 A 
ENDROOT
BRANCH   5   7
ATOM      7  C   UNL     1      45.655   4.739  12.420  0.00  0.00    +0.000 A 
ATOM      8  C   UNL     1      44.804   3.629  12.521  0.00  0.00    +0.000 A 
ATOM      9  C   UNL     1      44.003   3.244  11.445  0.00  0.00    +0.000 A 
ATOM     10  C   UNL     1      44.059   3.990  10.283  0.00  0.00    +0.000 A 
ATOM     11  N   UNL     1      44.851   5.069  10.131  0.00  0.00    +0.000 NA
ATOM     12  C   UNL     1      45.625   5.410  11.193  0.00  0.00    +0.000 A 
ENDBRANCH   5   7
BRANCH   1  13
ATOM     13  C   UNL     1      47.616   3.883  16.980  0.00  0.00    +0.000 C 
BRANCH  13  19
ATOM     14  C   UNL     1      53.854   2.130  18.298  0.00  0.00    +0.000 C 
ATOM     15  C   UNL     1      52.423   2.348  17.927  0.00  0.00    +0.000 A 
ATOM     16  C   UNL     1      51.770   3.547  18.188  0.00  0.00    +0.000 A 
ATOM     17  C   UNL     1      50.435   3.701  17.811  0.00  0.00    +0.000 A 
ATOM     18  C   UNL     1      49.765   2.658  17.177  0.00  0.00    +0.000 A 
ATOM     19  N   UNL     1      48.464   2.744  16.756  0.00  0.00    +0.000 N 
ATOM     20  N   UNL     1      50.383   1.489  16.926  0.00  0.00    +0.000 NA
ATOM     21  C   UNL     1      51.681   1.357  17.298  0.00  0.00    +0.000 A 
ATOM     22  H   UNL     1      48.091   1.892  16.357  0.00  0.00    +0.000 HD
ENDBRANCH  13  19
ENDBRANCH   1  13
TORSDOF 3
ENDMDL
MODEL 8
REMARK VINA RESULT:    -6.194      3.931      7.998
REMARK INTER + INTRA:          -7.954
REMARK INTER:                  -7.493
REMARK INTRA:                  -0.460
REMARK UNBOUND:                -0.673
REMARK  Name = 
REMARK  4 active torsions:
REMARK  status: ('A' for Active; 'I' for Inactive)
REMARK    1  A    between atoms: C_1  and  C_2
REMARK    2  A    between atoms: N_6  and  C_7
REMARK    3  A    between atoms: C_7  and  C_8
REMARK    4  A    between atoms: C_12  and  C_13
REMARK                            x       y       z     vdW  Elec       q    Type
REMARK                         _______ _______ _______ _____ _____    ______ ____
ROOT
ATOM      1  C   UNL     1      46.960   6.973  13.298  0.00  0.00    +0.000 A 
ATOM      2  C   UNL     1      46.308   8.203  13.166  0.00  0.00    +0.000 A 
ATOM      3  C   UNL     1      45.320   8.371  12.200  0.00  0.00    +0.000 A 
ATOM      4  C   UNL     1      44.971   7.309  11.359  0.00  0.00    +0.000 A 
ATOM      5  C   UNL     1      45.594   6.054  11.465  0.00  0.00    +0.000 A 
ATOM      6  C   UNL     1      46.578   5.907  12.462  0.00  0.00    +0.000 A 
ENDROOT
BRANCH   5   7
ATOM      7  C   UNL     1      45.270   4.944  10.542  0.00  0.00    +0.000 A 
ATOM      8  C   UNL     1      45.614   4.969   9.183  0.00  0.00    +0.000 A 
ATOM      9  C   UNL     1      45.251   3.922   8.335  0.00  0.00    +0.000 A 
ATOM     10  C   UNL     1      44.556   2.854   8.870  0.00  0.00    +0.000 A 
ATOM     11  N   UNL     1      44.205   2.771  10.167  0.00  0.00    +0.000 NA
ATOM     12  C   UNL     1      44.564   3.812  10.961  0.00  0.00    +0.000 A 
ENDBRANCH   5   7
BRANCH   1  13
ATOM     13  C   UNL     1      48.094   6.799  14.278  0.00  0.00    +0.000 C 
BRANCH  13  19
ATOM     14  C   UNL     1      49.622   4.932  20.435  0.00  0.00    +0.000 C 
ATOM     15  C   UNL     1      49.183   5.185  19.029  0.00  0.00    +0.000 A 
ATOM     16  C   UNL     1      49.502   6.360  18.359  0.00  0.00    +0.000 A 
ATOM     17  C   UNL     1      49.074   6.541  17.044  0.00  0.00    +0.000 A 
ATOM     18  C   UNL     1      48.334   5.548  16.408  0.00  0.00    +0.000 A 
ATOM     19  N   UNL     1      47.903   5.643  15.111  0.00  0.00    +0.000 N 
ATOM     20  N   UNL     1      48.012   4.408  17.048  0.00  0.00    +0.000 NA
ATOM     21  C   UNL     1      48.436   4.248  18.326  0.00  0.00    +0.000 A 
ATOM     22  H   UNL     1      47.332   4.868  14.797  0.00  0.00    +0.000 HD
ENDBRANCH  13  19
ENDBRANCH   1  13
TORSDOF 3
ENDMDL
MODEL 9
REMARK VINA RESULT:    -6.010      3.182      6.872
REMARK INTER + INTRA:          -7.738
REMARK INTER:                  -7.069
REMARK INTRA:                  -0.668
REMARK UNBOUND:                -0.673
REMARK  Name = 
REMARK  4 active torsions:
REMARK  status: ('A' for Active; 'I' for Inactive)
REMARK    1  A    between atoms: C_1  and  C_2
REMARK    2  A    between atoms: N_6  and  C_7
REMARK    3  A    between atoms: C_7  and  C_8
REMARK    4  A    between atoms: C_12  and  C_13
REMARK                            x       y       z     vdW  Elec       q    Type
REMARK                         _______ _______ _______ _____ _____    ______ ____
ROOT
ATOM      1  C   UNL     1      47.349   7.353  12.834  0.00  0.00    +0.000 A 
ATOM      2  C   UNL     1      46.497   8.457  12.940  0.00  0.00    +0.000 A 
ATOM      3  C   UNL     1      45.273   8.463  12.277  0.00  0.00    +0.000 A 
ATOM      4  C   UNL     1      44.886   7.362  11.505  0.00  0.00    +0.000 A 
ATOM      5  C   UNL     1      45.708   6.228  11.381  0.00  0.00    +0.000 A 
ATOM      6  C   UNL     1      46.932   6.242  12.077  0.00  0.00    +0.000 A 
ENDROOT
BRANCH   5   7
ATOM      7  C   UNL     1      45.330   5.084  10.522  0.00  0.00    +0.000 A 
ATOM      8  C   UNL     1      45.653   5.028   9.158  0.00  0.00    +0.000 A 
ATOM      9  C   UNL     1      45.240   3.952   8.371  0.00  0.00    +0.000 A 
ATOM     10  C   UNL     1      44.517   2.938   8.970  0.00  0.00    +0.000 A 
ATOM     11  N   UNL     1      44.185   2.934  10.276  0.00  0.00    +0.000 NA
ATOM     12  C   UNL     1      44.593   4.001  11.010  0.00  0.00    +0.000 A 
ENDBRANCH   5   7
BRANCH   1  13
ATOM     13  C   UNL     1      48.716   7.366  13.473  0.00  0.00    +0.000 C 
BRANCH  13  19
ATOM     14  C   UNL     1      52.661  10.760   9.393  0.00  0.00    +0.000 C 
ATOM     15  C   UNL     1      51.865   9.835  10.256  0.00  0.00    +0.000 A 
ATOM     16  C   UNL     1      50.861  10.297  11.098  0.00  0.00    +0.000 A 
ATOM     17  C   UNL     1      50.142   9.388  11.875  0.00  0.00    +0.000 A 
ATOM     18  C   UNL     1      50.430   8.028  11.805  0.00  0.00    +0.000 A 
ATOM     19  N   UNL     1      49.751   7.076  12.517  0.00  0.00    +0.000 N 
ATOM     20  N   UNL     1      51.406   7.569  11.000  0.00  0.00    +0.000 NA
ATOM     21  C   UNL     1      52.095   8.465  10.250  0.00  0.00    +0.000 A 
ATOM     22  H   UNL     1      50.103   6.133  12.406  0.00  0.00    +0.000 HD
ENDBRANCH  13  19
ENDBRANCH   1  13
TORSDOF 3
ENDMDL
