MODEL 1
REMARK VINA RESULT:    -7.777      0.000      0.000
REMARK INTER + INTRA:         -10.496
REMARK INTER:                  -9.823
REMARK INTRA:                  -0.673
REMARK UNBOUND:                -0.673
REMARK  Name = 
REMARK  5 active torsions:
REMARK  status: ('A' for Active; 'I' for Inactive)
REMARK    1  A    between atoms: N_1  and  C_2
REMARK    2  A    between atoms: C_2  and  C_3
REMARK    3  A    between atoms: C_3  and  C_4
REMARK    4  A    between atoms: C_7  and  C_8
REMARK    5  A    between atoms: C_8  and  N_9
REMARK                            x       y       z     vdW  Elec       q    Type
REMARK                         _______ _______ _______ _____ _____    ______ ____
ROOT
ATOM      1  C   UNL     1      45.897   2.544   8.236  0.00  0.00    +0.000 A 
ATOM      2  C   UNL     1      45.009   1.964   9.138  0.00  0.00    +0.000 A 
ATOM      3  C   UNL     1      44.238   2.766   9.983  0.00  0.00    +0.000 A 
ATOM      4  C   UNL     1      44.335   4.166   9.931  0.00  0.00    +0.000 A 
ATOM      5  C   UNL     1      45.234   4.740   9.020  0.00  0.00    +0.000 A 
ATOM      6  C   UNL     1      45.998   3.936   8.175  0.00  0.00    +0.000 A 
ENDROOT
BRANCH   1   7
ATOM      7  C   UNL     1      46.752   1.678   7.332  0.00  0.00    +0.000 C 
BRANCH   7   8
ATOM      8  C   UNL     1      47.984   2.400   6.784  0.00  0.00    +0.000 C 
BRANCH   8   9
ATOM      9  N   UNL     1      48.417   1.803   5.517  0.00  0.00    +0.000 NA
ATOM     10  H   UNL     1      48.391   0.784   5.596  0.00  0.00    +0.000 HD
ATOM     11  H   UNL     1      49.389   2.056   5.345  0.00  0.00    +0.000 HD
ENDBRANCH   8   9
ENDBRANCH   7   8
ENDBRANCH   1   7
BRANCH   4  12
ATOM     12  C   UNL     1      43.470   5.030  10.808  0.00  0.00    +0.000 C 
BRANCH  12  13
ATOM     13  N   UNL     1      44.219   6.003  11.599  0.00  0.00    +0.000 N 
ATOM     14  C   UNL     1      44.334   7.333  11.268  0.00  0.00    +0.000 A 
ATOM     15  C   UNL     1      45.168   7.927  12.182  0.00  0.00    +0.000 A 
ATOM     16  C   UNL     1      45.898   6.867  12.782  0.00  0.00    +0.000 A 
ATOM     17  C   UNL     1      47.119   6.760  13.471  0.00  0.00    +0.000 A 
ATOM     18 CL   UNL     1      48.138   8.137  13.430  0.00  0.00    +0.000 Cl
ATOM     19  C   UNL     1      47.537   5.546  13.994  0.00  0.00    +0.000 A 
ATOM     20  C   UNL     1      46.697   4.437  13.925  0.00  0.00    +0.000 A 
ATOM     21  C   UNL     1      45.483   4.492  13.221  0.00  0.00    +0.000 A 
ATOM     22  C   UNL     1      45.158   5.695  12.572  0.00  0.00    +0.000 A 
ENDBRANCH  12  13
ENDBRANCH   4  12
TORSDOF 5
ENDMDL
MODEL 2
REMARK VINA RESULT:    -6.952      1.361      2.266
REMARK INTER + INTRA:          -9.454
REMARK INTER:                  -8.953
REMARK INTRA:                  -0.501
REMARK UNBOUND:                -0.673
REMARK  Name = 
REMARK  5 active torsions:
REMARK  status: ('A' for Active; 'I' for Inactive)
REMARK    1  A    between atoms: N_1  and  C_2
REMARK    2  A    between atoms: C_2  and  C_3
REMARK    3  A    between atoms: C_3  and  C_4
REMARK    4  A    between atoms: C_7  and  C_8
REMARK    5  A    between atoms: C_8  and  N_9
REMARK                            x       y       z     vdW  Elec       q    Type
REMARK                         _______ _______ _______ _____ _____    ______ ____
ROOT
ATOM      1  C   UNL     1      45.843   3.180   7.718  0.00  0.00    +0.000 A 
ATOM      2  C   UNL     1      45.184   2.495   8.736  0.00  0.00    +0.000 A 
ATOM      3  C   UNL     1      44.870   3.143   9.933  0.00  0.00    +0.000 A 
ATOM      4  C   UNL     1      45.201   4.493  10.128  0.00  0.00    +0.000 A 
ATOM      5  C   UNL     1      45.866   5.173   9.098  0.00  0.00    +0.000 A 
ATOM      6  C   UNL     1      46.174   4.525   7.902  0.00  0.00    +0.000 A 
ENDROOT
BRANCH   1   7
ATOM      7  C   UNL     1      46.206   2.476   6.426  0.00  0.00    +0.000 C 
BRANCH   7   8
ATOM      8  C   UNL     1      47.361   1.484   6.576  0.00  0.00    +0.000 C 
BRANCH   8   9
ATOM      9  N   UNL     1      48.501   1.883   5.744  0.00  0.00    +0.000 NA
ATOM     10  H   UNL     1      48.996   1.047   5.426  0.00  0.00    +0.000 HD
ATOM     11  H   UNL     1      49.160   2.411   6.315  0.00  0.00    +0.000 HD
ENDBRANCH   8   9
ENDBRANCH   7   8
ENDBRANCH   1   7
BRANCH   4  12
ATOM     12  C   UNL     1      44.820   5.203  11.400  0.00  0.00    +0.000 C 
BRANCH  12  13
ATOM     13  N   UNL     1      45.863   5.179  12.422  0.00  0.00    +0.000 N 
ATOM     14  C   UNL     1      45.752   4.497  13.612  0.00  0.00    +0.000 A 
ATOM     15  C   UNL     1      46.875   4.761  14.357  0.00  0.00    +0.000 A 
ATOM     16  C   UNL     1      47.434   5.943  13.806  0.00  0.00    +0.000 A 
ATOM     17  C   UNL     1      48.304   6.946  14.268  0.00  0.00    +0.000 A 
ATOM     18 CL   UNL     1      48.641   6.945  15.947  0.00  0.00    +0.000 Cl
ATOM     19  C   UNL     1      48.711   7.975  13.433  0.00  0.00    +0.000 A 
ATOM     20  C   UNL     1      48.336   7.967  12.091  0.00  0.00    +0.000 A 
ATOM     21  C   UNL     1      47.446   7.001  11.595  0.00  0.00    +0.000 A 
ATOM     22  C   UNL     1      46.931   6.061  12.503  0.00  0.00    +0.000 A 
ENDBRANCH  12  13
ENDBRANCH   4  12
TORSDOF 5
ENDMDL
MODEL 3
REMARK VINA RESULT:    -6.803      2.942      6.494
REMARK INTER + INTRA:          -9.266
REMARK INTER:                  -9.084
REMARK INTRA:                  -0.182
REMARK UNBOUND:                -0.673
REMARK  Name = 
REMARK  5 active torsions:
REMARK  status: ('A' for Active; 'I' for Inactive)
REMARK    1  A    between atoms: N_1  and  C_2
REMARK    2  A    between atoms: C_2  and  C_3
REMARK    3  A    between atoms: C_3  and  C_4
REMARK    4  A    between atoms: C_7  and  C_8
REMARK    5  A    between atoms: C_8  and  N_9
REMARK                            x       y       z     vdW  Elec       q    Type
REMARK                         _______ _______ _______ _____ _____    ______ ____
ROOT
ATOM      1  C   UNL     1      47.026   5.215  13.827  0.00  0.00    +0.000 A 
ATOM      2  C   UNL     1      46.064   4.226  13.639  0.00  0.00    +0.000 A 
ATOM      3  C   UNL     1      45.281   4.215  12.482  0.00  0.00    +0.000 A 
ATOM      4  C   UNL     1      45.456   5.190  11.486  0.00  0.00    +0.000 A 
ATOM      5  C   UNL     1      46.426   6.182  11.687  0.00  0.00    +0.000 A 
ATOM      6  C   UNL     1      47.210   6.187  12.840  0.00  0.00    +0.000 A 
ENDROOT
BRANCH   1   7
ATOM      7  C   UNL     1      47.863   5.243  15.089  0.00  0.00    +0.000 C 
BRANCH   7   8
ATOM      8  C   UNL     1      47.499   4.142  16.087  0.00  0.00    +0.000 C 
BRANCH   8   9
ATOM      9  N   UNL     1      48.292   2.933  15.842  0.00  0.00    +0.000 NA
ATOM     10  H   UNL     1      48.958   3.113  15.088  0.00  0.00    +0.000 HD
ATOM     11  H   UNL     1      47.674   2.193  15.513  0.00  0.00    +0.000 HD
ENDBRANCH   8   9
ENDBRANCH   7   8
ENDBRANCH   1   7
BRANCH   4  12
ATOM     12  C   UNL     1      44.644   5.150  10.220  0.00  0.00    +0.000 C 
BRANCH  12  13
ATOM     13  N   UNL     1      44.706   3.870   9.520  0.00  0.00    +0.000 N 
ATOM     14  C   UNL     1      44.175   2.701  10.013  0.00  0.00    +0.000 A 
ATOM     15  C   UNL     1      44.487   1.691   9.137  0.00  0.00    +0.000 A 
ATOM     16  C   UNL     1      45.575   2.174   8.364  0.00  0.00    +0.000 A 
ATOM     17  C   UNL     1      46.597   1.583   7.599  0.00  0.00    +0.000 A 
ATOM     18 CL   UNL     1      46.784  -0.112   7.759  0.00  0.00    +0.000 Cl
ATOM     19  C   UNL     1      47.504   2.364   6.900  0.00  0.00    +0.000 A 
ATOM     20  C   UNL     1      47.349   3.749   6.873  0.00  0.00    +0.000 A 
ATOM     21  C   UNL     1      46.362   4.381   7.646  0.00  0.00    +0.000 A 
ATOM     22  C   UNL     1      45.554   3.572   8.463  0.00  0.00    +0.000 A 
ENDBRANCH  12  13
ENDBRANCH   4  12
TORSDOF 5
ENDMDL
MODEL 4
REMARK VINA RESULT:    -6.064      2.007      2.863
REMARK INTER + INTRA:          -8.332
REMARK INTER:                  -7.951
REMARK INTRA:                  -0.381
REMARK UNBOUND:                -0.673
REMARK  Name = 
REMARK  5 active torsions:
REMARK  status: ('A' for Active; 'I' for Inactive)
REMARK    1  A    between atoms: N_1  and  C_2
REMARK    2  A    between atoms: C_2  and  C_3
REMARK    3  A    between atoms: C_3  and  C_4
REMARK    4  A    between atoms: C_7  and  C_8
REMARK    5  A    between atoms: C_8  and  N_9
REMARK                            x       y       z     vdW  Elec       q    Type
REMARK                         _______ _______ _______ _____ _____    ______ ____
ROOT
ATOM      1  C   UNL     1      45.274   3.852   9.106  0.00  0.00    +0.000 A 
ATOM      2  C   UNL     1      45.746   5.160   9.179  0.00  0.00    +0.000 A 
ATOM      3  C   UNL     1      45.696   5.861  10.387  0.00  0.00    +0.000 A 
ATOM      4  C   UNL     1      45.182   5.259  11.547  0.00  0.00    +0.000 A 
ATOM      5  C   UNL     1      44.707   3.942  11.461  0.00  0.00    +0.000 A 
ATOM      6  C   UNL     1      44.764   3.244  10.255  0.00  0.00    +0.000 A 
ENDROOT
BRANCH   1   7
ATOM      7  C   UNL     1      45.307   3.095   7.793  0.00  0.00    +0.000 C 
BRANCH   7   8
ATOM      8  C   UNL     1      46.706   2.990   7.185  0.00  0.00    +0.000 C 
BRANCH   8   9
ATOM      9  N   UNL     1      46.870   3.945   6.084  0.00  0.00    +0.000 NA
ATOM     10  H   UNL     1      47.513   4.686   6.372  0.00  0.00    +0.000 HD
ATOM     11  H   UNL     1      45.975   4.393   5.898  0.00  0.00    +0.000 HD
ENDBRANCH   8   9
ENDBRANCH   7   8
ENDBRANCH   1   7
BRANCH   4  12
ATOM     12  C   UNL     1      45.171   5.998  12.857  0.00  0.00    +0.000 C 
BRANCH  12  13
ATOM     13  N   UNL     1      45.807   7.312  12.798  0.00  0.00    +0.000 N 
ATOM     14  C   UNL     1      45.133   8.477  12.514  0.00  0.00    +0.000 A 
ATOM     15  C   UNL     1      46.052   9.496  12.463  0.00  0.00    +0.000 A 
ATOM     16  C   UNL     1      47.311   8.869  12.273  0.00  0.00    +0.000 A 
ATOM     17  C   UNL     1      48.562   9.273  11.772  0.00  0.00    +0.000 A 
ATOM     18 CL   UNL     1      48.609  10.790  10.979  0.00  0.00    +0.000 Cl
ATOM     19  C   UNL     1      49.642   8.404  11.770  0.00  0.00    +0.000 A 
ATOM     20  C   UNL     1      49.520   7.147  12.359  0.00  0.00    +0.000 A 
ATOM     21  C   UNL     1      48.282   6.693  12.844  0.00  0.00    +0.000 A 
ATOM     22  C   UNL     1      47.172   7.540  12.693  0.00  0.00    +0.000 A 
ENDBRANCH  12  13
ENDBRANCH   4  12
TORSDOF 5
ENDMDL
MODEL 5
REMARK VINA RESULT:    -5.463      2.881      6.160
REMARK INTER + INTRA:          -7.573
REMARK INTER:                  -7.185
REMARK INTRA:                  -0.388
REMARK UNBOUND:                -0.673
REMARK  Name = 
REMARK  5 active torsions:
REMARK  status: ('A' for Active; 'I' for Inactive)
REMARK    1  A    between atoms: N_1  and  C_2
REMARK    2  A    between atoms: C_2  and  C_3
REMARK    3  A    between atoms: C_3  and  C_4
REMARK    4  A    between atoms: C_7  and  C_8
REMARK    5  A    between atoms: C_8  and  N_9
REMARK                            x       y       z     vdW  Elec       q    Type
REMARK                         _______ _______ _______ _____ _____    ______ ____
ROOT
ATOM      1  C   UNL     1      46.906   7.176  12.235  0.00  0.00    +0.000 A 
ATOM      2  C   UNL     1      45.747   7.681  11.650  0.00  0.00    +0.000 A 
ATOM      3  C   UNL     1      44.704   6.821  11.295  0.00  0.00    +0.000 A 
ATOM      4  C   UNL     1      44.799   5.440  11.530  0.00  0.00    +0.000 A 
ATOM      5  C   UNL     1      45.971   4.942  12.118  0.00  0.00    +0.000 A 
ATOM      6  C   UNL     1      47.008   5.803  12.475  0.00  0.00    +0.000 A 
ENDROOT
BRANCH   1   7
ATOM      7  C   UNL     1      48.048   8.101  12.602  0.00  0.00    +0.000 C 
BRANCH   7   8
ATOM      8  C   UNL     1      49.429   7.476  12.392  0.00  0.00    +0.000 C 
BRANCH   8   9
ATOM      9  N   UNL     1      50.183   7.443  13.650  0.00  0.00    +0.000 NA
ATOM     10  H   UNL     1      49.534   7.317  14.430  0.00  0.00    +0.000 HD
ATOM     11  H   UNL     1      50.634   8.346  13.790  0.00  0.00    +0.000 HD
ENDBRANCH   8   9
ENDBRANCH   7   8
ENDBRANCH   1   7
BRANCH   4  12
ATOM     12  C   UNL     1      43.657   4.522  11.190  0.00  0.00    +0.000 C 
BRANCH  12  13
ATOM     13  N   UNL     1      44.006   3.477  10.231  0.00  0.00    +0.000 N 
ATOM     14  C   UNL     1      43.793   2.135  10.449  0.00  0.00    +0.000 A 
ATOM     15  C   UNL     1      44.312   1.445   9.382  0.00  0.00    +0.000 A 
ATOM     16  C   UNL     1      45.223   2.335   8.755  0.00  0.00    +0.000 A 
ATOM     17  C   UNL     1      46.331   2.191   7.901  0.00  0.00    +0.000 A 
ATOM     18 CL   UNL     1      46.931   0.600   7.694  0.00  0.00    +0.000 Cl
ATOM     19  C   UNL     1      46.997   3.302   7.406  0.00  0.00    +0.000 A 
ATOM     20  C   UNL     1      46.508   4.579   7.676  0.00  0.00    +0.000 A 
ATOM     21  C   UNL     1      45.423   4.768   8.547  0.00  0.00    +0.000 A 
ATOM     22  C   UNL     1      44.865   3.630   9.153  0.00  0.00    +0.000 A 
ENDBRANCH  12  13
ENDBRANCH   4  12
TORSDOF 5
ENDMDL
MODEL 6
REMARK VINA RESULT:    -5.240      4.253      6.267
REMARK INTER + INTRA:          -7.292
REMARK INTER:                  -6.807
REMARK INTRA:                  -0.485
REMARK UNBOUND:                -0.673
REMARK  Name = 
REMARK  5 active torsions:
REMARK  status: ('A' for Active; 'I' for Inactive)
REMARK    1  A    between atoms: N_1  and  C_2
REMARK    2  A    between atoms: C_2  and  C_3
REMARK    3  A    between atoms: C_3  and  C_4
REMARK    4  A    between atoms: C_7  and  C_8
REMARK    5  A    between atoms: C_8  and  N_9
REMARK                            x       y       z     vdW  Elec       q    Type
REMARK                         _______ _______ _______ _____ _____    ______ ____
ROOT
ATOM      1  C   UNL     1      45.170   6.323  12.192  0.00  0.00    +0.000 A 
ATOM      2  C   UNL     1      45.885   5.161  12.470  0.00  0.00    +0.000 A 
ATOM      3  C   UNL     1      47.058   5.219  13.226  0.00  0.00    +0.000 A 
ATOM      4  C   UNL     1      47.531   6.442  13.727  0.00  0.00    +0.000 A 
ATOM      5  C   UNL     1      46.804   7.607  13.439  0.00  0.00    +0.000 A 
ATOM      6  C   UNL     1      45.631   7.545  12.688  0.00  0.00    +0.000 A 
ENDROOT
BRANCH   1   7
ATOM      7  C   UNL     1      43.909   6.269  11.354  0.00  0.00    +0.000 C 
BRANCH   7   8
ATOM      8  C   UNL     1      42.892   5.239  11.849  0.00  0.00    +0.000 C 
BRANCH   8   9
ATOM      9  N   UNL     1      42.564   5.467  13.260  0.00  0.00    +0.000 NA
ATOM     10  H   UNL     1      42.463   4.567  13.734  0.00  0.00    +0.000 HD
ATOM     11  H   UNL     1      41.658   5.929  13.320  0.00  0.00    +0.000 HD
ENDBRANCH   8   9
ENDBRANCH   7   8
ENDBRANCH   1   7
BRANCH   4  12
ATOM     12  C   UNL     1      48.769   6.497  14.580  0.00  0.00    +0.000 C 
BRANCH  12  13
ATOM     13  N   UNL     1      48.501   6.418  16.014  0.00  0.00    +0.000 N 
ATOM     14  C   UNL     1      48.801   7.421  16.906  0.00  0.00    +0.000 A 
ATOM     15  C   UNL     1      48.490   6.975  18.166  0.00  0.00    +0.000 A 
ATOM     16  C   UNL     1      48.429   5.560  18.070  0.00  0.00    +0.000 A 
ATOM     17  C   UNL     1      48.540   4.492  18.977  0.00  0.00    +0.000 A 
ATOM     18 CL   UNL     1      49.102   4.883  20.547  0.00  0.00    +0.000 Cl
ATOM     19  C   UNL     1      48.375   3.181  18.556  0.00  0.00    +0.000 A 
ATOM     20  C   UNL     1      47.997   2.919  17.241  0.00  0.00    +0.000 A 
ATOM     21  C   UNL     1      47.903   3.953  16.296  0.00  0.00    +0.000 A 
ATOM     22  C   UNL     1      48.226   5.254  16.717  0.00  0.00    +0.000 A 
ENDBRANCH  12  13
ENDBRANCH   4  12
TORSDOF 5
ENDMDL
MODEL 7
REMARK VINA RESULT:    -5.217      5.002      7.833
REMARK INTER + INTRA:          -7.263
REMARK INTER:                  -6.828
REMARK INTRA:                  -0.435
REMARK UNBOUND:                -0.673
REMARK  Name = 
REMARK  5 active torsions:
REMARK  status: ('A' for Active; 'I' for Inactive)
REMARK    1  A    between atoms: N_1  and  C_2
REMARK    2  A    between atoms: C_2  and  C_3
REMARK    3  A    between atoms: C_3  and  C_4
REMARK    4  A    between atoms: C_7  and  C_8
REMARK    5  A    between atoms: C_8  and  N_9
REMARK                            x       y       z     vdW  Elec       q    Type
REMARK                         _______ _______ _______ _____ _____    ______ ____
ROOT
ATOM      1  C   UNL     1      51.501   2.553  17.704  0.00  0.00    +0.000 A 
ATOM      2  C   UNL     1      50.571   1.784  17.009  0.00  0.00    +0.000 A 
ATOM      3  C   UNL     1      49.334   2.326  16.652  0.00  0.00    +0.000 A 
ATOM      4  C   UNL     1      49.010   3.653  16.977  0.00  0.00    +0.000 A 
ATOM      5  C   UNL     1      49.953   4.418  17.679  0.00  0.00    +0.000 A 
ATOM      6  C   UNL     1      51.189   3.875  18.029  0.00  0.00    +0.000 A 
ENDROOT
BRANCH   1   7
ATOM      7  C   UNL     1      52.836   1.963  18.112  0.00  0.00    +0.000 C 
BRANCH   7   8
ATOM      8  C   UNL     1      53.133   0.615  17.453  0.00  0.00    +0.000 C 
BRANCH   8   9
ATOM      9  N   UNL     1      53.069  -0.472  18.436  0.00  0.00    +0.000 NA
ATOM     10  H   UNL     1      52.092  -0.669  18.659  0.00  0.00    +0.000 HD
ATOM     11  H   UNL     1      53.508  -0.162  19.302  0.00  0.00    +0.000 HD
ENDBRANCH   8   9
ENDBRANCH   7   8
ENDBRANCH   1   7
BRANCH   4  12
ATOM     12  C   UNL     1      47.696   4.251  16.552  0.00  0.00    +0.000 C 
BRANCH  12  13
ATOM     13  N   UNL     1      47.783   5.070  15.346  0.00  0.00    +0.000 N 
ATOM     14  C   UNL     1      48.273   6.355  15.326  0.00  0.00    +0.000 A 
ATOM     15  C   UNL     1      48.131   6.844  14.052  0.00  0.00    +0.000 A 
ATOM     16  C   UNL     1      47.156   6.020  13.430  0.00  0.00    +0.000 A 
ATOM     17  C   UNL     1      46.283   6.159  12.337  0.00  0.00    +0.000 A 
ATOM     18 CL   UNL     1      46.131   7.733  11.679  0.00  0.00    +0.000 Cl
ATOM     19  C   UNL     1      45.464   5.111  11.943  0.00  0.00    +0.000 A 
ATOM     20  C   UNL     1      45.574   3.872  12.572  0.00  0.00    +0.000 A 
ATOM     21  C   UNL     1      46.412   3.700  13.686  0.00  0.00    +0.000 A 
ATOM     22  C   UNL     1      47.114   4.822  14.156  0.00  0.00    +0.000 A 
ENDBRANCH  12  13
ENDBRANCH   4  12
TORSDOF 5
ENDMDL
MODEL 8
REMARK VINA RESULT:    -5.099      3.373      5.302
REMARK INTER + INTRA:          -7.114
REMARK INTER:                  -6.532
REMARK INTRA:                  -0.582
REMARK UNBOUND:                -0.673
REMARK  Name = 
REMARK  5 active torsions:
REMARK  status: ('A' for Active; 'I' for Inactive)
REMARK    1  A    between atoms: N_1  and  C_2
REMARK    2  A    between atoms: C_2  and  C_3
REMARK    3  A    between atoms: C_3  and  C_4
REMARK    4  A    between atoms: C_7  and  C_8
REMARK    5  A    between atoms: C_8  and  N_9
REMARK                            x       y       z     vdW  Elec       q    Type
REMARK                         _______ _______ _______ _____ _____    ______ ____
ROOT
ATOM      1  C   UNL     1      44.966   5.077  11.890  0.00  0.00    +0.000 A 
ATOM      2  C   UNL     1      45.575   4.500  13.001  0.00  0.00    +0.000 A 
ATOM      3  C   UNL     1      46.782   5.009  13.487  0.00  0.00    +0.000 A 
ATOM      4  C   UNL     1      47.395   6.113  12.875  0.00  0.00    +0.000 A 
ATOM      5  C   UNL     1      46.774   6.685  11.755  0.00  0.00    +0.000 A 
ATOM      6  C   UNL     1      45.567   6.179  11.275  0.00  0.00    +0.000 A 
ENDROOT
BRANCH   1   7
ATOM      7  C   UNL     1      43.668   4.517  11.345  0.00  0.00    +0.000 C 
BRANCH   7   8
ATOM      8  C   UNL     1      43.792   3.081  10.832  0.00  0.00    +0.000 C 
BRANCH   8   9
ATOM      9  N   UNL     1      43.019   2.159  11.671  0.00  0.00    +0.000 NA
ATOM     10  H   UNL     1      42.420   1.582  11.077  0.00  0.00    +0.000 HD
ATOM     11  H   UNL     1      42.399   2.698  12.273  0.00  0.00    +0.000 HD
ENDBRANCH   8   9
ENDBRANCH   7   8
ENDBRANCH   1   7
BRANCH   4  12
ATOM     12  C   UNL     1      48.671   6.689  13.427  0.00  0.00    +0.000 C 
BRANCH  12  13
ATOM     13  N   UNL     1      48.487   7.462  14.653  0.00  0.00    +0.000 N 
ATOM     14  C   UNL     1      48.341   8.829  14.681  0.00  0.00    +0.000 A 
ATOM     15  C   UNL     1      48.272   9.221  15.995  0.00  0.00    +0.000 A 
ATOM     16  C   UNL     1      48.824   8.150  16.745  0.00  0.00    +0.000 A 
ATOM     17  C   UNL     1      49.398   8.017  18.022  0.00  0.00    +0.000 A 
ATOM     18 CL   UNL     1      49.762   9.473  18.847  0.00  0.00    +0.000 Cl
ATOM     19  C   UNL     1      49.804   6.778  18.494  0.00  0.00    +0.000 A 
ATOM     20  C   UNL     1      49.554   5.634  17.739  0.00  0.00    +0.000 A 
ATOM     21  C   UNL     1      49.010   5.725  16.448  0.00  0.00    +0.000 A 
ATOM     22  C   UNL     1      48.749   7.007  15.937  0.00  0.00    +0.000 A 
ENDBRANCH  12  13
ENDBRANCH   4  12
TORSDOF 5
ENDMDL
MODEL 9
REMARK VINA RESULT:    -5.092      3.270      7.411
REMARK INTER + INTRA:          -7.105
REMARK INTER:                  -6.777
REMARK INTRA:                  -0.328
REMARK UNBOUND:                -0.673
REMARK  Name = 
REMARK  5 active torsions:
REMARK  status: ('A' for Active; 'I' for Inactive)
REMARK    1  A    between atoms: N_1  and  C_2
REMARK    2  A    between atoms: C_2  and  C_3
REMARK    3  A    between atoms: C_3  and  C_4
REMARK    4  A    between atoms: C_7  and  C_8
REMARK    5  A    between atoms: C_8  and  N_9
REMARK                            x       y       z     vdW  Elec       q    Type
REMARK                         _______ _______ _______ _____ _____    ______ ____
ROOT
ATOM      1  C   UNL     1      48.852   8.444  15.386  0.00  0.00    +0.000 A 
ATOM      2  C   UNL     1      49.318   7.260  14.819  0.00  0.00    +0.000 A 
ATOM      3  C   UNL     1      48.776   6.791  13.620  0.00  0.00    +0.000 A 
ATOM      4  C   UNL     1      47.764   7.507  12.961  0.00  0.00    +0.000 A 
ATOM      5  C   UNL     1      47.300   8.696  13.542  0.00  0.00    +0.000 A 
ATOM      6  C   UNL     1      47.847   9.164  14.736  0.00  0.00    +0.000 A 
ENDROOT
BRANCH   1   7
ATOM      7  C   UNL     1      49.422   8.946  16.698  0.00  0.00    +0.000 C 
BRANCH   7   8
ATOM      8  C   UNL     1      48.361   9.168  17.777  0.00  0.00    +0.000 C 
BRANCH   8   9
ATOM      9  N   UNL     1      47.724   7.901  18.151  0.00  0.00    +0.000 NA
ATOM     10  H   UNL     1      46.802   7.845  17.715  0.00  0.00    +0.000 HD
ATOM     11  H   UNL     1      47.570   7.892  19.159  0.00  0.00    +0.000 HD
ENDBRANCH   8   9
ENDBRANCH   7   8
ENDBRANCH   1   7
BRANCH   4  12
ATOM     12  C   UNL     1      47.213   7.025  11.646  0.00  0.00    +0.000 C 
BRANCH  12  13
ATOM     13  N   UNL     1      45.978   6.255  11.770  0.00  0.00    +0.000 N 
ATOM     14  C   UNL     1      45.362   5.985  12.970  0.00  0.00    +0.000 A 
ATOM     15  C   UNL     1      44.281   5.177  12.719  0.00  0.00    +0.000 A 
ATOM     16  C   UNL     1      44.516   4.606  11.441  0.00  0.00    +0.000 A 
ATOM     17  C   UNL     1      44.062   3.463  10.759  0.00  0.00    +0.000 A 
ATOM     18 CL   UNL     1      43.195   2.317  11.690  0.00  0.00    +0.000 Cl
ATOM     19  C   UNL     1      44.456   3.210   9.454  0.00  0.00    +0.000 A 
ATOM     20  C   UNL     1      45.233   4.144   8.772  0.00  0.00    +0.000 A 
ATOM     21  C   UNL     1      45.732   5.283   9.424  0.00  0.00    +0.000 A 
ATOM     22  C   UNL     1      45.440   5.435  10.790  0.00  0.00    +0.000 A 
ENDBRANCH  12  13
ENDBRANCH   4  12
TORSDOF 5
ENDMDL
