MODEL 1
REMARK VINA RESULT:    -8.831      0.000      0.000
REMARK INTER + INTRA:         -14.851
REMARK INTER:                 -13.735
REMARK INTRA:                  -1.116
REMARK UNBOUND:                -1.116
REMARK  Name = 
REMARK  10 active torsions:
REMARK  status: ('A' for Active; 'I' for Inactive)
REMARK    1  A    between atoms: N_1  and  C_2
REMARK    2  A    between atoms: C_2  and  C_3
REMARK    3  A    between atoms: C_3  and  N_4
REMARK    4  A    between atoms: C_3  and  C_21
REMARK    5  A    between atoms: N_4  and  C_5
REMARK    6  A    between atoms: C_5  and  C_6
REMARK    7  A    between atoms: C_9  and  C_10
REMARK    8  A    between atoms: C_10  and  N_11
REMARK    9  A    between atoms: N_11  and  C_12
REMARK   10  A    between atoms: C_12  and  C_13
REMARK                            x       y       z     vdW  Elec       q    Type
REMARK                         _______ _______ _______ _____ _____    ______ ____
ROOT
ATOM      1  N   UNL     1      48.178   4.588  15.572  0.00  0.00    +0.000 NA
ATOM      2  H   UNL     1      49.080   4.189  15.309  0.00  0.00    +0.000 HD
ENDROOT
BRANCH   1   3
ATOM      3  C   UNL     1      48.273   5.047  16.979  0.00  0.00    +0.000 C 
BRANCH   3   4
ATOM      4  C   UNL     1      49.710   4.784  17.424  0.00  0.00    +0.000 A 
ATOM      5  C   UNL     1      50.542   5.749  17.975  0.00  0.00    +0.000 A 
ATOM      6  S   UNL     1      52.086   5.158  18.399  0.00  0.00    +0.000 S 
ATOM      7  C   UNL     1      51.695   3.587  17.872  0.00  0.00    +0.000 A 
ATOM      8  N   UNL     1      52.583   2.560  18.003  0.00  0.00    +0.000 NA
ATOM      9  C   UNL     1      52.143   1.425  17.566  0.00  0.00    +0.000 A 
ATOM     10  N   UNL     1      50.907   1.229  17.000  0.00  0.00    +0.000 N 
ATOM     11  C   UNL     1      49.998   2.247  16.799  0.00  0.00    +0.000 A 
ATOM     12  O   UNL     1      48.938   2.044  16.214  0.00  0.00    +0.000 OA
ATOM     13  C   UNL     1      50.421   3.527  17.336  0.00  0.00    +0.000 A 
ATOM     14  H   UNL     1      50.638   0.318  16.659  0.00  0.00    +0.000 HD
ENDBRANCH   3   4
BRANCH   3  15
ATOM     15  C   UNL     1      47.248   4.344  17.929  0.00  0.00    +0.000 C 
BRANCH  15  16
ATOM     16  N   UNL     1      46.573   3.175  17.350  0.00  0.00    +0.000 NA
ATOM     17  H   UNL     1      46.719   2.374  17.963  0.00  0.00    +0.000 HD
ATOM     18  H   UNL     1      47.011   2.939  16.459  0.00  0.00    +0.000 HD
ENDBRANCH  15  16
ENDBRANCH   3  15
ENDBRANCH   1   3
BRANCH   1  19
ATOM     19  C   UNL     1      47.868   5.667  14.632  0.00  0.00    +0.000 C 
BRANCH  19  20
ATOM     20  C   UNL     1      46.778   5.287  13.651  0.00  0.00    +0.000 A 
ATOM     21  C   UNL     1      46.137   6.265  12.876  0.00  0.00    +0.000 A 
ATOM     22  C   UNL     1      45.178   5.908  11.922  0.00  0.00    +0.000 A 
ATOM     23  C   UNL     1      44.841   4.563  11.712  0.00  0.00    +0.000 A 
ATOM     24  C   UNL     1      45.485   3.586  12.482  0.00  0.00    +0.000 A 
ATOM     25  C   UNL     1      46.443   3.943  13.438  0.00  0.00    +0.000 A 
BRANCH  23  26
ATOM     26  C   UNL     1      43.782   4.180  10.701  0.00  0.00    +0.000 C 
BRANCH  26  27
ATOM     27  N   UNL     1      44.284   3.201   9.736  0.00  0.00    +0.000 NA
ATOM     28  H   UNL     1      43.500   2.649   9.388  0.00  0.00    +0.000 HD
BRANCH  27  29
ATOM     29  C   UNL     1      44.949   3.856   8.612  0.00  0.00    +0.000 C 
BRANCH  29  30
ATOM     30  C   UNL     1      45.952   2.933   7.964  0.00  0.00    +0.000 A 
ATOM     31  C   UNL     1      46.882   3.409   7.036  0.00  0.00    +0.000 A 
ATOM     32  C   UNL     1      47.780   2.513   6.473  0.00  0.00    +0.000 A 
ATOM     33  N   UNL     1      47.816   1.197   6.767  0.00  0.00    +0.000 NA
ATOM     34  C   UNL     1      46.911   0.755   7.667  0.00  0.00    +0.000 A 
ATOM     35  C   UNL     1      45.977   1.570   8.285  0.00  0.00    +0.000 A 
ENDBRANCH  29  30
ENDBRANCH  27  29
ENDBRANCH  26  27
ENDBRANCH  23  26
ENDBRANCH  19  20
ENDBRANCH   1  19
TORSDOF 10
ENDMDL
MODEL 2
REMARK VINA RESULT:    -7.240      2.112      2.743
REMARK INTER + INTRA:         -12.376
REMARK INTER:                 -11.262
REMARK INTRA:                  -1.114
REMARK UNBOUND:                -1.116
REMARK  Name = 
REMARK  10 active torsions:
REMARK  status: ('A' for Active; 'I' for Inactive)
REMARK    1  A    between atoms: N_1  and  C_2
REMARK    2  A    between atoms: C_2  and  C_3
REMARK    3  A    between atoms: C_3  and  N_4
REMARK    4  A    between atoms: C_3  and  C_21
REMARK    5  A    between atoms: N_4  and  C_5
REMARK    6  A    between atoms: C_5  and  C_6
REMARK    7  A    between atoms: C_9  and  C_10
REMARK    8  A    between atoms: C_10  and  N_11
REMARK    9  A    between atoms: N_11  and  C_12
REMARK   10  A    between atoms: C_12  and  C_13
REMARK                            x       y       z     vdW  Elec       q    Type
REMARK                         _______ _______ _______ _____ _____    ______ ____
ROOT
ATOM      1  N   UNL     1      49.253   6.624  13.815  0.00  0.00    +0.000 NA
ATOM      2  H   UNL     1      50.146   6.603  13.323  0.00  0.00    +0.000 HD
ENDROOT
BRANCH   1   3
ATOM      3  C   UNL     1      49.451   7.350  15.093  0.00  0.00    +0.000 C 
BRANCH   3   4
ATOM      4  C   UNL     1      49.462   6.292  16.194  0.00  0.00    +0.000 A 
ATOM      5  C   UNL     1      48.318   5.711  16.725  0.00  0.00    +0.000 A 
ATOM      6  S   UNL     1      48.641   4.541  17.925  0.00  0.00    +0.000 S 
ATOM      7  C   UNL     1      50.322   4.761  17.772  0.00  0.00    +0.000 A 
ATOM      8  N   UNL     1      51.199   4.011  18.499  0.00  0.00    +0.000 NA
ATOM      9  C   UNL     1      52.442   4.285  18.270  0.00  0.00    +0.000 A 
ATOM     10  N   UNL     1      52.885   5.247  17.395  0.00  0.00    +0.000 N 
ATOM     11  C   UNL     1      52.035   6.064  16.679  0.00  0.00    +0.000 A 
ATOM     12  O   UNL     1      52.472   6.967  15.971  0.00  0.00    +0.000 OA
ATOM     13  C   UNL     1      50.630   5.748  16.852  0.00  0.00    +0.000 A 
ATOM     14  H   UNL     1      53.872   5.424  17.283  0.00  0.00    +0.000 HD
ENDBRANCH   3   4
BRANCH   3  15
ATOM     15  C   UNL     1      48.359   8.438  15.363  0.00  0.00    +0.000 C 
BRANCH  15  16
ATOM     16  N   UNL     1      48.707   9.414  16.403  0.00  0.00    +0.000 NA
ATOM     17  H   UNL     1      49.580   9.129  16.844  0.00  0.00    +0.000 HD
ATOM     18  H   UNL     1      47.995   9.396  17.134  0.00  0.00    +0.000 HD
ENDBRANCH  15  16
ENDBRANCH   3  15
ENDBRANCH   1   3
BRANCH   1  19
ATOM     19  C   UNL     1      48.265   7.256  12.938  0.00  0.00    +0.000 C 
BRANCH  19  20
ATOM     20  C   UNL     1      47.153   6.310  12.538  0.00  0.00    +0.000 A 
ATOM     21  C   UNL     1      46.416   6.523  11.364  0.00  0.00    +0.000 A 
ATOM     22  C   UNL     1      45.434   5.613  10.959  0.00  0.00    +0.000 A 
ATOM     23  C   UNL     1      45.167   4.462  11.714  0.00  0.00    +0.000 A 
ATOM     24  C   UNL     1      45.907   4.246  12.885  0.00  0.00    +0.000 A 
ATOM     25  C   UNL     1      46.888   5.158  13.291  0.00  0.00    +0.000 A 
BRANCH  23  26
ATOM     26  C   UNL     1      44.084   3.494  11.292  0.00  0.00    +0.000 C 
BRANCH  26  27
ATOM     27  N   UNL     1      44.586   2.500  10.343  0.00  0.00    +0.000 NA
ATOM     28  H   UNL     1      44.002   1.665  10.400  0.00  0.00    +0.000 HD
BRANCH  27  29
ATOM     29  C   UNL     1      44.562   3.012   8.975  0.00  0.00    +0.000 C 
BRANCH  29  30
ATOM     30  C   UNL     1      45.733   2.486   8.180  0.00  0.00    +0.000 A 
ATOM     31  C   UNL     1      46.527   3.338   7.408  0.00  0.00    +0.000 A 
ATOM     32  C   UNL     1      47.589   2.797   6.698  0.00  0.00    +0.000 A 
ATOM     33  N   UNL     1      47.913   1.487   6.706  0.00  0.00    +0.000 NA
ATOM     34  C   UNL     1      47.136   0.679   7.459  0.00  0.00    +0.000 A 
ATOM     35  C   UNL     1      46.056   1.123   8.204  0.00  0.00    +0.000 A 
ENDBRANCH  29  30
ENDBRANCH  27  29
ENDBRANCH  26  27
ENDBRANCH  23  26
ENDBRANCH  19  20
ENDBRANCH   1  19
TORSDOF 10
ENDMDL
MODEL 3
REMARK VINA RESULT:    -7.046      2.763      4.095
REMARK INTER + INTRA:         -12.074
REMARK INTER:                 -11.007
REMARK INTRA:                  -1.067
REMARK UNBOUND:                -1.116
REMARK  Name = 
REMARK  10 active torsions:
REMARK  status: ('A' for Active; 'I' for Inactive)
REMARK    1  A    between atoms: N_1  and  C_2
REMARK    2  A    between atoms: C_2  and  C_3
REMARK    3  A    between atoms: C_3  and  N_4
REMARK    4  A    between atoms: C_3  and  C_21
REMARK    5  A    between atoms: N_4  and  C_5
REMARK    6  A    between atoms: C_5  and  C_6
REMARK    7  A    between atoms: C_9  and  C_10
REMARK    8  A    between atoms: C_10  and  N_11
REMARK    9  A    between atoms: N_11  and  C_12
REMARK   10  A    between atoms: C_12  and  C_13
REMARK                            x       y       z     vdW  Elec       q    Type
REMARK                         _______ _______ _______ _____ _____    ______ ____
ROOT
ATOM      1  N   UNL     1      47.207   4.952  16.306  0.00  0.00    +0.000 NA
ATOM      2  H   UNL     1      46.481   4.512  16.871  0.00  0.00    +0.000 HD
ENDROOT
BRANCH   1   3
ATOM      3  C   UNL     1      48.354   5.260  17.194  0.00  0.00    +0.000 C 
BRANCH   3   4
ATOM      4  C   UNL     1      48.936   6.584  16.705  0.00  0.00    +0.000 A 
ATOM      5  C   UNL     1      49.830   6.698  15.649  0.00  0.00    +0.000 A 
ATOM      6  S   UNL     1      50.290   8.307  15.313  0.00  0.00    +0.000 S 
ATOM      7  C   UNL     1      49.303   8.912  16.561  0.00  0.00    +0.000 A 
ATOM      8  N   UNL     1      49.194  10.253  16.784  0.00  0.00    +0.000 NA
ATOM      9  C   UNL     1      48.402  10.563  17.759  0.00  0.00    +0.000 A 
ATOM     10  N   UNL     1      47.723   9.655  18.536  0.00  0.00    +0.000 N 
ATOM     11  C   UNL     1      47.842   8.290  18.380  0.00  0.00    +0.000 A 
ATOM     12  O   UNL     1      47.283   7.513  19.148  0.00  0.00    +0.000 OA
ATOM     13  C   UNL     1      48.669   7.896  17.254  0.00  0.00    +0.000 A 
ATOM     14  H   UNL     1      47.138   9.967  19.297  0.00  0.00    +0.000 HD
ENDBRANCH   3   4
BRANCH   3  15
ATOM     15  C   UNL     1      49.441   4.136  17.214  0.00  0.00    +0.000 C 
BRANCH  15  16
ATOM     16  N   UNL     1      49.126   2.989  18.076  0.00  0.00    +0.000 NA
ATOM     17  H   UNL     1      49.893   2.321  18.028  0.00  0.00    +0.000 HD
ATOM     18  H   UNL     1      48.303   2.510  17.711  0.00  0.00    +0.000 HD
ENDBRANCH  15  16
ENDBRANCH   3  15
ENDBRANCH   1   3
BRANCH   1  19
ATOM     19  C   UNL     1      47.550   4.038  15.214  0.00  0.00    +0.000 C 
BRANCH  19  20
ATOM     20  C   UNL     1      46.896   4.425  13.905  0.00  0.00    +0.000 A 
ATOM     21  C   UNL     1      46.051   3.531  13.232  0.00  0.00    +0.000 A 
ATOM     22  C   UNL     1      45.392   3.911  12.058  0.00  0.00    +0.000 A 
ATOM     23  C   UNL     1      45.556   5.200  11.529  0.00  0.00    +0.000 A 
ATOM     24  C   UNL     1      46.396   6.096  12.204  0.00  0.00    +0.000 A 
ATOM     25  C   UNL     1      47.057   5.714  13.378  0.00  0.00    +0.000 A 
BRANCH  23  26
ATOM     26  C   UNL     1      44.868   5.601  10.243  0.00  0.00    +0.000 C 
BRANCH  26  27
ATOM     27  N   UNL     1      45.614   5.151   9.067  0.00  0.00    +0.000 NA
ATOM     28  H   UNL     1      46.560   4.900   9.352  0.00  0.00    +0.000 HD
BRANCH  27  29
ATOM     29  C   UNL     1      44.975   3.993   8.444  0.00  0.00    +0.000 C 
BRANCH  29  30
ATOM     30  C   UNL     1      46.006   3.037   7.895  0.00  0.00    +0.000 A 
ATOM     31  C   UNL     1      46.015   1.689   8.264  0.00  0.00    +0.000 A 
ATOM     32  C   UNL     1      46.987   0.858   7.727  0.00  0.00    +0.000 A 
ATOM     33  N   UNL     1      47.935   1.268   6.859  0.00  0.00    +0.000 NA
ATOM     34  C   UNL     1      47.910   2.573   6.512  0.00  0.00    +0.000 A 
ATOM     35  C   UNL     1      46.980   3.481   6.992  0.00  0.00    +0.000 A 
ENDBRANCH  29  30
ENDBRANCH  27  29
ENDBRANCH  26  27
ENDBRANCH  23  26
ENDBRANCH  19  20
ENDBRANCH   1  19
TORSDOF 10
ENDMDL
MODEL 4
REMARK VINA RESULT:    -6.661      3.084      4.328
REMARK INTER + INTRA:         -11.476
REMARK INTER:                 -10.459
REMARK INTRA:                  -1.018
REMARK UNBOUND:                -1.116
REMARK  Name = 
REMARK  10 active torsions:
REMARK  status: ('A' for Active; 'I' for Inactive)
REMARK    1  A    between atoms: N_1  and  C_2
REMARK    2  A    between atoms: C_2  and  C_3
REMARK    3  A    between atoms: C_3  and  N_4
REMARK    4  A    between atoms: C_3  and  C_21
REMARK    5  A    between atoms: N_4  and  C_5
REMARK    6  A    between atoms: C_5  and  C_6
REMARK    7  A    between atoms: C_9  and  C_10
REMARK    8  A    between atoms: C_10  and  N_11
REMARK    9  A    between atoms: N_11  and  C_12
REMARK   10  A    between atoms: C_12  and  C_13
REMARK                            x       y       z     vdW  Elec       q    Type
REMARK                         _______ _______ _______ _____ _____    ______ ____
ROOT
ATOM      1  N   UNL     1      48.721   8.140  13.663  0.00  0.00    +0.000 NA
ATOM      2  H   UNL     1      49.083   8.057  12.713  0.00  0.00    +0.000 HD
ENDROOT
BRANCH   1   3
ATOM      3  C   UNL     1      49.603   9.069  14.410  0.00  0.00    +0.000 C 
BRANCH   3   4
ATOM      4  C   UNL     1      49.037   9.157  15.826  0.00  0.00    +0.000 A 
ATOM      5  C   UNL     1      48.705  10.348  16.457  0.00  0.00    +0.000 A 
ATOM      6  S   UNL     1      48.072  10.135  18.028  0.00  0.00    +0.000 S 
ATOM      7  C   UNL     1      48.207   8.442  17.917  0.00  0.00    +0.000 A 
ATOM      8  N   UNL     1      47.780   7.635  18.930  0.00  0.00    +0.000 NA
ATOM      9  C   UNL     1      47.940   6.372  18.700  0.00  0.00    +0.000 A 
ATOM     10  N   UNL     1      48.499   5.847  17.559  0.00  0.00    +0.000 N 
ATOM     11  C   UNL     1      48.991   6.626  16.533  0.00  0.00    +0.000 A 
ATOM     12  O   UNL     1      49.558   6.120  15.570  0.00  0.00    +0.000 OA
ATOM     13  C   UNL     1      48.772   8.049  16.717  0.00  0.00    +0.000 A 
ATOM     14  H   UNL     1      48.614   4.850  17.457  0.00  0.00    +0.000 HD
ENDBRANCH   3   4
BRANCH   3  15
ATOM     15  C   UNL     1      49.709  10.484  13.753  0.00  0.00    +0.000 C 
BRANCH  15  16
ATOM     16  N   UNL     1      51.012  10.783  13.144  0.00  0.00    +0.000 NA
ATOM     17  H   UNL     1      50.991  10.498  12.166  0.00  0.00    +0.000 HD
ATOM     18  H   UNL     1      51.733  10.219  13.594  0.00  0.00    +0.000 HD
ENDBRANCH  15  16
ENDBRANCH   3  15
ENDBRANCH   1   3
BRANCH   1  19
ATOM     19  C   UNL     1      47.333   8.599  13.582  0.00  0.00    +0.000 C 
BRANCH  19  20
ATOM     20  C   UNL     1      46.438   7.619  12.853  0.00  0.00    +0.000 A 
ATOM     21  C   UNL     1      45.344   8.069  12.098  0.00  0.00    +0.000 A 
ATOM     22  C   UNL     1      44.558   7.170  11.370  0.00  0.00    +0.000 A 
ATOM     23  C   UNL     1      44.848   5.798  11.372  0.00  0.00    +0.000 A 
ATOM     24  C   UNL     1      45.943   5.349  12.121  0.00  0.00    +0.000 A 
ATOM     25  C   UNL     1      46.729   6.248  12.852  0.00  0.00    +0.000 A 
BRANCH  23  26
ATOM     26  C   UNL     1      43.979   4.822  10.609  0.00  0.00    +0.000 C 
BRANCH  26  27
ATOM     27  N   UNL     1      44.772   3.762   9.987  0.00  0.00    +0.000 NA
ATOM     28  H   UNL     1      44.341   2.862  10.196  0.00  0.00    +0.000 HD
BRANCH  27  29
ATOM     29  C   UNL     1      44.848   3.935   8.538  0.00  0.00    +0.000 C 
BRANCH  29  30
ATOM     30  C   UNL     1      45.870   3.003   7.934  0.00  0.00    +0.000 A 
ATOM     31  C   UNL     1      45.919   1.652   8.290  0.00  0.00    +0.000 A 
ATOM     32  C   UNL     1      46.881   0.843   7.701  0.00  0.00    +0.000 A 
ATOM     33  N   UNL     1      47.781   1.279   6.796  0.00  0.00    +0.000 NA
ATOM     34  C   UNL     1      47.718   2.586   6.464  0.00  0.00    +0.000 A 
ATOM     35  C   UNL     1      46.794   3.472   6.993  0.00  0.00    +0.000 A 
ENDBRANCH  29  30
ENDBRANCH  27  29
ENDBRANCH  26  27
ENDBRANCH  23  26
ENDBRANCH  19  20
ENDBRANCH   1  19
TORSDOF 10
ENDMDL
