MODEL 1
REMARK VINA RESULT:    -8.007      0.000      0.000
REMARK INTER + INTRA:         -13.368
REMARK INTER:                 -12.220
REMARK INTRA:                  -1.148
REMARK UNBOUND:                -1.148
REMARK  Name = 
REMARK  11 active torsions:
REMARK  status: ('A' for Active; 'I' for Inactive)
REMARK    1  A    between atoms: C_1  and  N_2
REMARK    2  A    between atoms: N_2  and  C_3
REMARK    3  A    between atoms: N_2  and  C_4
REMARK    4  A    between atoms: C_4  and  C_5
REMARK    5  A    between atoms: C_5  and  C_6
REMARK    6  A    between atoms: C_6  and  C_7
REMARK    7  A    between atoms: C_6  and  C_18
REMARK    8  A    between atoms: C_7  and  N_8
REMARK    9  A    between atoms: N_8  and  C_9
REMARK   10  A    between atoms: C_12  and  C_13
REMARK   11  A    between atoms: C_22  and  C_23
REMARK                            x       y       z     vdW  Elec       q    Type
REMARK                         _______ _______ _______ _____ _____    ______ ____
ROOT
ATOM      1  C   UNL     1      45.643   5.273  11.614  0.00  0.00    +0.000 C 
ENDROOT
BRANCH   1   2
ATOM      2  C   UNL     1      46.157   6.685  11.908  0.00  0.00    +0.000 A 
ATOM      3  C   UNL     1      45.324   7.676  12.450  0.00  0.00    +0.000 A 
ATOM      4  C   UNL     1      45.814   8.946  12.749  0.00  0.00    +0.000 A 
ATOM      5  C   UNL     1      47.154   9.248  12.523  0.00  0.00    +0.000 A 
ATOM      6  C   UNL     1      48.015   8.280  11.989  0.00  0.00    +0.000 A 
ATOM      7  C   UNL     1      47.504   7.008  11.674  0.00  0.00    +0.000 A 
BRANCH   6   8
ATOM      8  C   UNL     1      49.476   8.588  11.767  0.00  0.00    +0.000 C 
ATOM      9  F   UNL     1      50.241   8.444  12.887  0.00  0.00    +0.000 F 
ATOM     10  F   UNL     1      50.040   7.775  10.829  0.00  0.00    +0.000 F 
ATOM     11  F   UNL     1      49.686   9.861  11.333  0.00  0.00    +0.000 F 
ENDBRANCH   6   8
ENDBRANCH   1   2
BRANCH   1  12
ATOM     12  C   UNL     1      46.127   4.291  12.709  0.00  0.00    +0.000 C 
BRANCH  12  13
ATOM     13  C   UNL     1      46.204   4.879  14.127  0.00  0.00    +0.000 C 
BRANCH  13  15
ATOM     14  C   UNL     1      48.194   6.000  14.970  0.00  0.00    +0.000 C 
ATOM     15  N   UNL     1      47.510   4.716  14.788  0.00  0.00    +0.000 NA
ATOM     16  C   UNL     1      47.328   4.080  16.099  0.00  0.00    +0.000 C 
ENDBRANCH  13  15
ENDBRANCH  12  13
ENDBRANCH   1  12
BRANCH   1  17
ATOM     17  C   UNL     1      44.113   5.224  11.354  0.00  0.00    +0.000 C 
BRANCH  17  18
ATOM     18  N   UNL     1      43.789   4.782   9.996  0.00  0.00    +0.000 N 
ATOM     19  H   UNL     1      42.819   4.517   9.865  0.00  0.00    +0.000 HD
BRANCH  18  20
ATOM     20  C   UNL     1      44.632   3.940   9.276  0.00  0.00    +0.000 A 
ATOM     21  C   UNL     1      44.698   2.557   9.452  0.00  0.00    +0.000 A 
ATOM     22  C   UNL     1      45.585   1.779   8.701  0.00  0.00    +0.000 A 
ATOM     23  C   UNL     1      46.447   2.378   7.779  0.00  0.00    +0.000 A 
ATOM     24  C   UNL     1      46.452   3.769   7.651  0.00  0.00    +0.000 A 
ATOM     25  C   UNL     1      45.557   4.535   8.404  0.00  0.00    +0.000 A 
BRANCH  23  26
ATOM     26  C   UNL     1      47.349   1.510   6.978  0.00  0.00    +0.000 C 
ATOM     27  N   UNL     1      48.409   2.109   6.354  0.00  0.00    +0.000 N 
ATOM     28  O   UNL     1      47.134   0.314   6.833  0.00  0.00    +0.000 OA
ATOM     29  H   UNL     1      48.476   3.109   6.239  0.00  0.00    +0.000 HD
ATOM     30  H   UNL     1      48.933   1.526   5.715  0.00  0.00    +0.000 HD
ENDBRANCH  23  26
ENDBRANCH  18  20
ENDBRANCH  17  18
ENDBRANCH   1  17
TORSDOF 9
ENDMDL
MODEL 2
REMARK VINA RESULT:    -7.777      2.467      2.972
REMARK INTER + INTRA:         -13.017
REMARK INTER:                 -12.014
REMARK INTRA:                  -1.004
REMARK UNBOUND:                -1.148
REMARK  Name = 
REMARK  11 active torsions:
REMARK  status: ('A' for Active; 'I' for Inactive)
REMARK    1  A    between atoms: C_1  and  N_2
REMARK    2  A    between atoms: N_2  and  C_3
REMARK    3  A    between atoms: N_2  and  C_4
REMARK    4  A    between atoms: C_4  and  C_5
REMARK    5  A    between atoms: C_5  and  C_6
REMARK    6  A    between atoms: C_6  and  C_7
REMARK    7  A    between atoms: C_6  and  C_18
REMARK    8  A    between atoms: C_7  and  N_8
REMARK    9  A    between atoms: N_8  and  C_9
REMARK   10  A    between atoms: C_12  and  C_13
REMARK   11  A    between atoms: C_22  and  C_23
REMARK                            x       y       z     vdW  Elec       q    Type
REMARK                         _______ _______ _______ _____ _____    ______ ____
ROOT
ATOM      1  C   UNL     1      45.291   5.284  12.050  0.00  0.00    +0.000 C 
ENDROOT
BRANCH   1   2
ATOM      2  C   UNL     1      45.463   6.801  11.937  0.00  0.00    +0.000 A 
ATOM      3  C   UNL     1      46.692   7.426  12.199  0.00  0.00    +0.000 A 
ATOM      4  C   UNL     1      46.845   8.804  12.054  0.00  0.00    +0.000 A 
ATOM      5  C   UNL     1      45.773   9.585  11.632  0.00  0.00    +0.000 A 
ATOM      6  C   UNL     1      44.533   8.992  11.356  0.00  0.00    +0.000 A 
ATOM      7  C   UNL     1      44.386   7.603  11.524  0.00  0.00    +0.000 A 
BRANCH   6   8
ATOM      8  C   UNL     1      43.373   9.825  10.871  0.00  0.00    +0.000 C 
ATOM      9  F   UNL     1      42.982  10.787  11.755  0.00  0.00    +0.000 F 
ATOM     10  F   UNL     1      43.657  10.485   9.711  0.00  0.00    +0.000 F 
ATOM     11  F   UNL     1      42.261   9.082  10.614  0.00  0.00    +0.000 F 
ENDBRANCH   6   8
ENDBRANCH   1   2
BRANCH   1  12
ATOM     12  C   UNL     1      45.610   4.817  13.493  0.00  0.00    +0.000 C 
BRANCH  12  13
ATOM     13  C   UNL     1      46.898   3.991  13.643  0.00  0.00    +0.000 C 
BRANCH  13  15
ATOM     14  C   UNL     1      47.914   5.838  14.859  0.00  0.00    +0.000 C 
ATOM     15  N   UNL     1      47.750   4.383  14.778  0.00  0.00    +0.000 NA
ATOM     16  C   UNL     1      47.161   3.897  16.033  0.00  0.00    +0.000 C 
ENDBRANCH  13  15
ENDBRANCH  12  13
ENDBRANCH   1  12
BRANCH   1  17
ATOM     17  C   UNL     1      43.922   4.785  11.515  0.00  0.00    +0.000 C 
BRANCH  17  18
ATOM     18  N   UNL     1      43.864   4.772  10.052  0.00  0.00    +0.000 N 
ATOM     19  H   UNL     1      42.924   4.757   9.673  0.00  0.00    +0.000 HD
BRANCH  18  20
ATOM     20  C   UNL     1      44.715   3.976   9.290  0.00  0.00    +0.000 A 
ATOM     21  C   UNL     1      44.816   2.589   9.415  0.00  0.00    +0.000 A 
ATOM     22  C   UNL     1      45.709   1.860   8.623  0.00  0.00    +0.000 A 
ATOM     23  C   UNL     1      46.541   2.511   7.710  0.00  0.00    +0.000 A 
ATOM     24  C   UNL     1      46.510   3.907   7.631  0.00  0.00    +0.000 A 
ATOM     25  C   UNL     1      45.610   4.623   8.424  0.00  0.00    +0.000 A 
BRANCH  23  26
ATOM     26  C   UNL     1      47.450   1.695   6.864  0.00  0.00    +0.000 C 
ATOM     27  N   UNL     1      48.550   2.316   6.339  0.00  0.00    +0.000 N 
ATOM     28  O   UNL     1      47.208   0.525   6.599  0.00  0.00    +0.000 OA
ATOM     29  H   UNL     1      48.649   3.319   6.321  0.00  0.00    +0.000 HD
ATOM     30  H   UNL     1      49.083   1.779   5.668  0.00  0.00    +0.000 HD
ENDBRANCH  23  26
ENDBRANCH  18  20
ENDBRANCH  17  18
ENDBRANCH   1  17
TORSDOF 9
ENDMDL
MODEL 3
REMARK VINA RESULT:    -7.456      2.223      3.050
REMARK INTER + INTRA:         -12.528
REMARK INTER:                 -11.330
REMARK INTRA:                  -1.198
REMARK UNBOUND:                -1.148
REMARK  Name = 
REMARK  11 active torsions:
REMARK  status: ('A' for Active; 'I' for Inactive)
REMARK    1  A    between atoms: C_1  and  N_2
REMARK    2  A    between atoms: N_2  and  C_3
REMARK    3  A    between atoms: N_2  and  C_4
REMARK    4  A    between atoms: C_4  and  C_5
REMARK    5  A    between atoms: C_5  and  C_6
REMARK    6  A    between atoms: C_6  and  C_7
REMARK    7  A    between atoms: C_6  and  C_18
REMARK    8  A    between atoms: C_7  and  N_8
REMARK    9  A    between atoms: N_8  and  C_9
REMARK   10  A    between atoms: C_12  and  C_13
REMARK   11  A    between atoms: C_22  and  C_23
REMARK                            x       y       z     vdW  Elec       q    Type
REMARK                         _______ _______ _______ _____ _____    ______ ____
ROOT
ATOM      1  C   UNL     1      46.387   5.749  11.773  0.00  0.00    +0.000 C 
ENDROOT
BRANCH   1   2
ATOM      2  C   UNL     1      47.608   6.584  12.172  0.00  0.00    +0.000 A 
ATOM      3  C   UNL     1      48.194   7.503  11.289  0.00  0.00    +0.000 A 
ATOM      4  C   UNL     1      49.280   8.284  11.678  0.00  0.00    +0.000 A 
ATOM      5  C   UNL     1      49.796   8.171  12.966  0.00  0.00    +0.000 A 
ATOM      6  C   UNL     1      49.230   7.268  13.876  0.00  0.00    +0.000 A 
ATOM      7  C   UNL     1      48.146   6.471  13.465  0.00  0.00    +0.000 A 
BRANCH   6   8
ATOM      8  C   UNL     1      49.763   7.157  15.283  0.00  0.00    +0.000 C 
ATOM      9  F   UNL     1      49.321   6.054  15.950  0.00  0.00    +0.000 F 
ATOM     10  F   UNL     1      51.125   7.087  15.318  0.00  0.00    +0.000 F 
ATOM     11  F   UNL     1      49.424   8.223  16.060  0.00  0.00    +0.000 F 
ENDBRANCH   6   8
ENDBRANCH   1   2
BRANCH   1  12
ATOM     12  C   UNL     1      45.635   5.266  13.038  0.00  0.00    +0.000 C 
BRANCH  12  13
ATOM     13  C   UNL     1      45.203   3.791  13.019  0.00  0.00    +0.000 C 
BRANCH  13  15
ATOM     14  C   UNL     1      42.991   4.806  12.987  0.00  0.00    +0.000 C 
ATOM     15  N   UNL     1      43.757   3.573  13.192  0.00  0.00    +0.000 NA
ATOM     16  C   UNL     1      43.290   2.554  12.243  0.00  0.00    +0.000 C 
ENDBRANCH  13  15
ENDBRANCH  12  13
ENDBRANCH   1  12
BRANCH   1  17
ATOM     17  C   UNL     1      45.480   6.458  10.732  0.00  0.00    +0.000 C 
BRANCH  17  18
ATOM     18  N   UNL     1      44.709   5.510   9.924  0.00  0.00    +0.000 N 
ATOM     19  H   UNL     1      43.848   5.198  10.358  0.00  0.00    +0.000 HD
BRANCH  18  20
ATOM     20  C   UNL     1      45.319   4.467   9.233  0.00  0.00    +0.000 A 
ATOM     21  C   UNL     1      46.209   4.642   8.171  0.00  0.00    +0.000 A 
ATOM     22  C   UNL     1      46.768   3.540   7.515  0.00  0.00    +0.000 A 
ATOM     23  C   UNL     1      46.423   2.241   7.891  0.00  0.00    +0.000 A 
ATOM     24  C   UNL     1      45.471   2.050   8.897  0.00  0.00    +0.000 A 
ATOM     25  C   UNL     1      44.923   3.159   9.548  0.00  0.00    +0.000 A 
BRANCH  23  26
ATOM     26  C   UNL     1      47.067   1.100   7.190  0.00  0.00    +0.000 C 
ATOM     27  N   UNL     1      46.768  -0.161   7.630  0.00  0.00    +0.000 N 
ATOM     28  O   UNL     1      47.874   1.270   6.285  0.00  0.00    +0.000 OA
ATOM     29  H   UNL     1      46.319  -0.333   8.517  0.00  0.00    +0.000 HD
ATOM     30  H   UNL     1      47.312  -0.911   7.225  0.00  0.00    +0.000 HD
ENDBRANCH  23  26
ENDBRANCH  18  20
ENDBRANCH  17  18
ENDBRANCH   1  17
TORSDOF 9
ENDMDL
MODEL 4
REMARK VINA RESULT:    -7.181      1.671      3.383
REMARK INTER + INTRA:         -12.107
REMARK INTER:                 -11.036
REMARK INTRA:                  -1.070
REMARK UNBOUND:                -1.148
REMARK  Name = 
REMARK  11 active torsions:
REMARK  status: ('A' for Active; 'I' for Inactive)
REMARK    1  A    between atoms: C_1  and  N_2
REMARK    2  A    between atoms: N_2  and  C_3
REMARK    3  A    between atoms: N_2  and  C_4
REMARK    4  A    between atoms: C_4  and  C_5
REMARK    5  A    between atoms: C_5  and  C_6
REMARK    6  A    between atoms: C_6  and  C_7
REMARK    7  A    between atoms: C_6  and  C_18
REMARK    8  A    between atoms: C_7  and  N_8
REMARK    9  A    between atoms: N_8  and  C_9
REMARK   10  A    between atoms: C_12  and  C_13
REMARK   11  A    between atoms: C_22  and  C_23
REMARK                            x       y       z     vdW  Elec       q    Type
REMARK                         _______ _______ _______ _____ _____    ______ ____
ROOT
ATOM      1  C   UNL     1      44.378   6.364  11.926  0.00  0.00    +0.000 C 
ENDROOT
BRANCH   1   2
ATOM      2  C   UNL     1      45.793   6.327  12.509  0.00  0.00    +0.000 A 
ATOM      3  C   UNL     1      46.153   5.418  13.516  0.00  0.00    +0.000 A 
ATOM      4  C   UNL     1      47.455   5.368  14.011  0.00  0.00    +0.000 A 
ATOM      5  C   UNL     1      48.429   6.220  13.499  0.00  0.00    +0.000 A 
ATOM      6  C   UNL     1      48.106   7.136  12.488  0.00  0.00    +0.000 A 
ATOM      7  C   UNL     1      46.784   7.189  12.010  0.00  0.00    +0.000 A 
BRANCH   6   8
ATOM      8  C   UNL     1      49.161   8.044  11.906  0.00  0.00    +0.000 C 
ATOM      9  F   UNL     1      50.050   8.510  12.828  0.00  0.00    +0.000 F 
ATOM     10  F   UNL     1      49.911   7.422  10.952  0.00  0.00    +0.000 F 
ATOM     11  F   UNL     1      48.634   9.147  11.306  0.00  0.00    +0.000 F 
ENDBRANCH   6   8
ENDBRANCH   1   2
BRANCH   1  12
ATOM     12  C   UNL     1      44.280   7.458  10.833  0.00  0.00    +0.000 C 
BRANCH  12  13
ATOM     13  C   UNL     1      44.019   8.880  11.354  0.00  0.00    +0.000 C 
BRANCH  13  15
ATOM     14  C   UNL     1      42.534  10.360  10.118  0.00  0.00    +0.000 C 
ATOM     15  N   UNL     1      43.916   9.908  10.305  0.00  0.00    +0.000 NA
ATOM     16  C   UNL     1      44.755  11.062  10.655  0.00  0.00    +0.000 C 
ENDBRANCH  13  15
ENDBRANCH  12  13
ENDBRANCH   1  12
BRANCH   1  17
ATOM     17  C   UNL     1      43.872   4.969  11.468  0.00  0.00    +0.000 C 
BRANCH  17  18
ATOM     18  N   UNL     1      43.794   4.852  10.011  0.00  0.00    +0.000 N 
ATOM     19  H   UNL     1      42.848   4.818   9.646  0.00  0.00    +0.000 HD
BRANCH  18  20
ATOM     20  C   UNL     1      44.628   3.998   9.296  0.00  0.00    +0.000 A 
ATOM     21  C   UNL     1      44.667   2.613   9.465  0.00  0.00    +0.000 A 
ATOM     22  C   UNL     1      45.548   1.823   8.719  0.00  0.00    +0.000 A 
ATOM     23  C   UNL     1      46.430   2.410   7.810  0.00  0.00    +0.000 A 
ATOM     24  C   UNL     1      46.462   3.802   7.690  0.00  0.00    +0.000 A 
ATOM     25  C   UNL     1      45.573   4.580   8.437  0.00  0.00    +0.000 A 
BRANCH  23  26
ATOM     26  C   UNL     1      47.325   1.530   7.014  0.00  0.00    +0.000 C 
ATOM     27  N   UNL     1      48.485   2.076   6.537  0.00  0.00    +0.000 N 
ATOM     28  O   UNL     1      47.022   0.375   6.746  0.00  0.00    +0.000 OA
ATOM     29  H   UNL     1      48.647   3.072   6.516  0.00  0.00    +0.000 HD
ATOM     30  H   UNL     1      49.013   1.501   5.895  0.00  0.00    +0.000 HD
ENDBRANCH  23  26
ENDBRANCH  18  20
ENDBRANCH  17  18
ENDBRANCH   1  17
TORSDOF 9
ENDMDL
MODEL 5
REMARK VINA RESULT:    -6.771      4.113      7.249
REMARK INTER + INTRA:         -11.481
REMARK INTER:                 -10.084
REMARK INTRA:                  -1.398
REMARK UNBOUND:                -1.148
REMARK  Name = 
REMARK  11 active torsions:
REMARK  status: ('A' for Active; 'I' for Inactive)
REMARK    1  A    between atoms: C_1  and  N_2
REMARK    2  A    between atoms: N_2  and  C_3
REMARK    3  A    between atoms: N_2  and  C_4
REMARK    4  A    between atoms: C_4  and  C_5
REMARK    5  A    between atoms: C_5  and  C_6
REMARK    6  A    between atoms: C_6  and  C_7
REMARK    7  A    between atoms: C_6  and  C_18
REMARK    8  A    between atoms: C_7  and  N_8
REMARK    9  A    between atoms: N_8  and  C_9
REMARK   10  A    between atoms: C_12  and  C_13
REMARK   11  A    between atoms: C_22  and  C_23
REMARK                            x       y       z     vdW  Elec       q    Type
REMARK                         _______ _______ _______ _____ _____    ______ ____
ROOT
ATOM      1  C   UNL     1      45.985   7.408  11.640  0.00  0.00    +0.000 C 
ENDROOT
BRANCH   1   2
ATOM      2  C   UNL     1      45.074   6.192  11.448  0.00  0.00    +0.000 A 
ATOM      3  C   UNL     1      43.963   5.965  12.273  0.00  0.00    +0.000 A 
ATOM      4  C   UNL     1      43.120   4.875  12.063  0.00  0.00    +0.000 A 
ATOM      5  C   UNL     1      43.365   3.995  11.012  0.00  0.00    +0.000 A 
ATOM      6  C   UNL     1      44.463   4.196  10.165  0.00  0.00    +0.000 A 
ATOM      7  C   UNL     1      45.317   5.289  10.399  0.00  0.00    +0.000 A 
BRANCH   6   8
ATOM      8  C   UNL     1      44.722   3.265   9.006  0.00  0.00    +0.000 C 
ATOM      9  F   UNL     1      44.146   2.038   9.152  0.00  0.00    +0.000 F 
ATOM     10  F   UNL     1      44.243   3.758   7.828  0.00  0.00    +0.000 F 
ATOM     11  F   UNL     1      46.048   3.033   8.802  0.00  0.00    +0.000 F 
ENDBRANCH   6   8
ENDBRANCH   1   2
BRANCH   1  12
ATOM     12  C   UNL     1      45.419   8.328  12.751  0.00  0.00    +0.000 C 
BRANCH  12  13
ATOM     13  C   UNL     1      44.930   9.705  12.274  0.00  0.00    +0.000 C 
BRANCH  13  15
ATOM     14  C   UNL     1      43.003   9.486  10.804  0.00  0.00    +0.000 C 
ATOM     15  N   UNL     1      44.445   9.736  10.884  0.00  0.00    +0.000 NA
ATOM     16  C   UNL     1      44.740  11.043  10.284  0.00  0.00    +0.000 C 
ENDBRANCH  13  15
ENDBRANCH  12  13
ENDBRANCH   1  12
BRANCH   1  17
ATOM     17  C   UNL     1      47.476   7.027  11.837  0.00  0.00    +0.000 C 
BRANCH  17  18
ATOM     18  N   UNL     1      47.967   7.357  13.177  0.00  0.00    +0.000 N 
ATOM     19  H   UNL     1      48.852   7.852  13.185  0.00  0.00    +0.000 HD
BRANCH  18  20
ATOM     20  C   UNL     1      47.901   6.448  14.229  0.00  0.00    +0.000 A 
ATOM     21  C   UNL     1      48.616   6.572  15.421  0.00  0.00    +0.000 A 
ATOM     22  C   UNL     1      48.508   5.605  16.427  0.00  0.00    +0.000 A 
ATOM     23  C   UNL     1      47.705   4.478  16.243  0.00  0.00    +0.000 A 
ATOM     24  C   UNL     1      47.048   4.298  15.022  0.00  0.00    +0.000 A 
ATOM     25  C   UNL     1      47.159   5.273  14.027  0.00  0.00    +0.000 A 
BRANCH  23  26
ATOM     26  C   UNL     1      47.593   3.493  17.350  0.00  0.00    +0.000 C 
ATOM     27  N   UNL     1      48.687   3.321  18.153  0.00  0.00    +0.000 N 
ATOM     28  O   UNL     1      46.585   2.820  17.517  0.00  0.00    +0.000 OA
ATOM     29  H   UNL     1      49.604   3.659  17.901  0.00  0.00    +0.000 HD
ATOM     30  H   UNL     1      48.634   2.560  18.817  0.00  0.00    +0.000 HD
ENDBRANCH  23  26
ENDBRANCH  18  20
ENDBRANCH  17  18
ENDBRANCH   1  17
TORSDOF 9
ENDMDL
MODEL 6
REMARK VINA RESULT:    -6.310      4.007      7.423
REMARK INTER + INTRA:         -10.778
REMARK INTER:                  -9.419
REMARK INTRA:                  -1.359
REMARK UNBOUND:                -1.148
REMARK  Name = 
REMARK  11 active torsions:
REMARK  status: ('A' for Active; 'I' for Inactive)
REMARK    1  A    between atoms: C_1  and  N_2
REMARK    2  A    between atoms: N_2  and  C_3
REMARK    3  A    between atoms: N_2  and  C_4
REMARK    4  A    between atoms: C_4  and  C_5
REMARK    5  A    between atoms: C_5  and  C_6
REMARK    6  A    between atoms: C_6  and  C_7
REMARK    7  A    between atoms: C_6  and  C_18
REMARK    8  A    between atoms: C_7  and  N_8
REMARK    9  A    between atoms: N_8  and  C_9
REMARK   10  A    between atoms: C_12  and  C_13
REMARK   11  A    between atoms: C_22  and  C_23
REMARK                            x       y       z     vdW  Elec       q    Type
REMARK                         _______ _______ _______ _____ _____    ______ ____
ROOT
ATOM      1  C   UNL     1      45.998   4.525  13.497  0.00  0.00    +0.000 C 
ENDROOT
BRANCH   1   2
ATOM      2  C   UNL     1      46.566   5.876  13.054  0.00  0.00    +0.000 A 
ATOM      3  C   UNL     1      47.948   6.105  12.972  0.00  0.00    +0.000 A 
ATOM      4  C   UNL     1      48.452   7.327  12.530  0.00  0.00    +0.000 A 
ATOM      5  C   UNL     1      47.581   8.343  12.148  0.00  0.00    +0.000 A 
ATOM      6  C   UNL     1      46.195   8.147  12.211  0.00  0.00    +0.000 A 
ATOM      7  C   UNL     1      45.699   6.915  12.677  0.00  0.00    +0.000 A 
BRANCH   6   8
ATOM      8  C   UNL     1      45.242   9.232  11.772  0.00  0.00    +0.000 C 
ATOM      9  F   UNL     1      44.566   9.815  12.802  0.00  0.00    +0.000 F 
ATOM     10  F   UNL     1      45.880  10.250  11.126  0.00  0.00    +0.000 F 
ATOM     11  F   UNL     1      44.291   8.780  10.910  0.00  0.00    +0.000 F 
ENDBRANCH   6   8
ENDBRANCH   1   2
BRANCH   1  12
ATOM     12  C   UNL     1      45.287   3.830  12.309  0.00  0.00    +0.000 C 
BRANCH  12  13
ATOM     13  C   UNL     1      43.768   3.655  12.468  0.00  0.00    +0.000 C 
BRANCH  13  15
ATOM     14  C   UNL     1      42.353   5.527  11.819  0.00  0.00    +0.000 C 
ATOM     15  N   UNL     1      42.966   4.264  11.393  0.00  0.00    +0.000 NA
ATOM     16  C   UNL     1      43.812   4.513  10.220  0.00  0.00    +0.000 C 
ENDBRANCH  13  15
ENDBRANCH  12  13
ENDBRANCH   1  12
BRANCH   1  17
ATOM     17  C   UNL     1      47.045   3.631  14.216  0.00  0.00    +0.000 C 
BRANCH  17  18
ATOM     18  N   UNL     1      46.932   3.700  15.674  0.00  0.00    +0.000 N 
ATOM     19  H   UNL     1      46.076   4.129  16.006  0.00  0.00    +0.000 HD
BRANCH  18  20
ATOM     20  C   UNL     1      48.009   4.063  16.478  0.00  0.00    +0.000 A 
ATOM     21  C   UNL     1      48.465   5.373  16.636  0.00  0.00    +0.000 A 
ATOM     22  C   UNL     1      49.567   5.656  17.450  0.00  0.00    +0.000 A 
ATOM     23  C   UNL     1      50.253   4.627  18.098  0.00  0.00    +0.000 A 
ATOM     24  C   UNL     1      49.860   3.303  17.884  0.00  0.00    +0.000 A 
ATOM     25  C   UNL     1      48.754   3.033  17.073  0.00  0.00    +0.000 A 
BRANCH  23  26
ATOM     26  C   UNL     1      51.396   4.976  18.980  0.00  0.00    +0.000 C 
ATOM     27  N   UNL     1      51.483   4.333  20.185  0.00  0.00    +0.000 N 
ATOM     28  O   UNL     1      52.207   5.840  18.674  0.00  0.00    +0.000 OA
ATOM     29  H   UNL     1      50.713   3.814  20.579  0.00  0.00    +0.000 HD
ATOM     30  H   UNL     1      52.192   4.676  20.819  0.00  0.00    +0.000 HD
ENDBRANCH  23  26
ENDBRANCH  18  20
ENDBRANCH  17  18
ENDBRANCH   1  17
TORSDOF 9
ENDMDL
MODEL 7
REMARK VINA RESULT:    -6.286      3.566      7.046
REMARK INTER + INTRA:         -10.742
REMARK INTER:                  -9.516
REMARK INTRA:                  -1.226
REMARK UNBOUND:                -1.148
REMARK  Name = 
REMARK  11 active torsions:
REMARK  status: ('A' for Active; 'I' for Inactive)
REMARK    1  A    between atoms: C_1  and  N_2
REMARK    2  A    between atoms: N_2  and  C_3
REMARK    3  A    between atoms: N_2  and  C_4
REMARK    4  A    between atoms: C_4  and  C_5
REMARK    5  A    between atoms: C_5  and  C_6
REMARK    6  A    between atoms: C_6  and  C_7
REMARK    7  A    between atoms: C_6  and  C_18
REMARK    8  A    between atoms: C_7  and  N_8
REMARK    9  A    between atoms: N_8  and  C_9
REMARK   10  A    between atoms: C_12  and  C_13
REMARK   11  A    between atoms: C_22  and  C_23
REMARK                            x       y       z     vdW  Elec       q    Type
REMARK                         _______ _______ _______ _____ _____    ______ ____
ROOT
ATOM      1  C   UNL     1      45.831   4.510  13.299  0.00  0.00    +0.000 C 
ENDROOT
BRANCH   1   2
ATOM      2  C   UNL     1      46.202   5.943  12.907  0.00  0.00    +0.000 A 
ATOM      3  C   UNL     1      45.236   6.956  12.814  0.00  0.00    +0.000 A 
ATOM      4  C   UNL     1      45.592   8.265  12.494  0.00  0.00    +0.000 A 
ATOM      5  C   UNL     1      46.927   8.591  12.271  0.00  0.00    +0.000 A 
ATOM      6  C   UNL     1      47.919   7.605  12.362  0.00  0.00    +0.000 A 
ATOM      7  C   UNL     1      47.544   6.284  12.668  0.00  0.00    +0.000 A 
BRANCH   6   8
ATOM      8  C   UNL     1      49.371   7.953  12.151  0.00  0.00    +0.000 C 
ATOM      9  F   UNL     1      49.584   9.273  11.886  0.00  0.00    +0.000 F 
ATOM     10  F   UNL     1      50.136   7.669  13.244  0.00  0.00    +0.000 F 
ATOM     11  F   UNL     1      49.932   7.270  11.116  0.00  0.00    +0.000 F 
ENDBRANCH   6   8
ENDBRANCH   1   2
BRANCH   1  12
ATOM     12  C   UNL     1      45.349   3.724  12.055  0.00  0.00    +0.000 C 
BRANCH  12  13
ATOM     13  C   UNL     1      43.866   3.320  12.071  0.00  0.00    +0.000 C 
BRANCH  13  15
ATOM     14  C   UNL     1      42.406   5.244  11.770  0.00  0.00    +0.000 C 
ATOM     15  N   UNL     1      43.015   4.071  11.133  0.00  0.00    +0.000 NA
ATOM     16  C   UNL     1      43.812   4.511   9.981  0.00  0.00    +0.000 C 
ENDBRANCH  13  15
ENDBRANCH  12  13
ENDBRANCH   1  12
BRANCH   1  17
ATOM     17  C   UNL     1      46.948   3.793  14.105  0.00  0.00    +0.000 C 
BRANCH  17  18
ATOM     18  N   UNL     1      46.822   4.005  15.548  0.00  0.00    +0.000 N 
ATOM     19  H   UNL     1      46.089   4.656  15.811  0.00  0.00    +0.000 HD
BRANCH  18  20
ATOM     20  C   UNL     1      47.936   4.161  16.368  0.00  0.00    +0.000 A 
ATOM     21  C   UNL     1      48.576   5.379  16.602  0.00  0.00    +0.000 A 
ATOM     22  C   UNL     1      49.703   5.451  17.427  0.00  0.00    +0.000 A 
ATOM     23  C   UNL     1      50.229   4.296  18.011  0.00  0.00    +0.000 A 
ATOM     24  C   UNL     1      49.650   3.058  17.720  0.00  0.00    +0.000 A 
ATOM     25  C   UNL     1      48.520   3.000  16.898  0.00  0.00    +0.000 A 
BRANCH  23  26
ATOM     26  C   UNL     1      51.407   4.423  18.908  0.00  0.00    +0.000 C 
ATOM     27  N   UNL     1      51.172   4.464  20.255  0.00  0.00    +0.000 N 
ATOM     28  O   UNL     1      52.544   4.538  18.469  0.00  0.00    +0.000 OA
ATOM     29  H   UNL     1      50.254   4.628  20.640  0.00  0.00    +0.000 HD
ATOM     30  H   UNL     1      51.971   4.678  20.837  0.00  0.00    +0.000 HD
ENDBRANCH  23  26
ENDBRANCH  18  20
ENDBRANCH  17  18
ENDBRANCH   1  17
TORSDOF 9
ENDMDL
MODEL 8
REMARK VINA RESULT:    -6.144      3.961      6.413
REMARK INTER + INTRA:         -10.524
REMARK INTER:                  -9.290
REMARK INTRA:                  -1.234
REMARK UNBOUND:                -1.148
REMARK  Name = 
REMARK  11 active torsions:
REMARK  status: ('A' for Active; 'I' for Inactive)
REMARK    1  A    between atoms: C_1  and  N_2
REMARK    2  A    between atoms: N_2  and  C_3
REMARK    3  A    between atoms: N_2  and  C_4
REMARK    4  A    between atoms: C_4  and  C_5
REMARK    5  A    between atoms: C_5  and  C_6
REMARK    6  A    between atoms: C_6  and  C_7
REMARK    7  A    between atoms: C_6  and  C_18
REMARK    8  A    between atoms: C_7  and  N_8
REMARK    9  A    between atoms: N_8  and  C_9
REMARK   10  A    between atoms: C_12  and  C_13
REMARK   11  A    between atoms: C_22  and  C_23
REMARK                            x       y       z     vdW  Elec       q    Type
REMARK                         _______ _______ _______ _____ _____    ______ ____
ROOT
ATOM      1  C   UNL     1      45.869   5.255  13.605  0.00  0.00    +0.000 C 
ENDROOT
BRANCH   1   2
ATOM      2  C   UNL     1      45.150   4.426  12.538  0.00  0.00    +0.000 A 
ATOM      3  C   UNL     1      44.066   3.594  12.856  0.00  0.00    +0.000 A 
ATOM      4  C   UNL     1      43.395   2.874  11.869  0.00  0.00    +0.000 A 
ATOM      5  C   UNL     1      43.786   2.983  10.538  0.00  0.00    +0.000 A 
ATOM      6  C   UNL     1      44.860   3.811  10.183  0.00  0.00    +0.000 A 
ATOM      7  C   UNL     1      45.542   4.517  11.191  0.00  0.00    +0.000 A 
BRANCH   6   8
ATOM      8  C   UNL     1      45.275   3.958   8.740  0.00  0.00    +0.000 C 
ATOM      9  F   UNL     1      46.039   2.925   8.283  0.00  0.00    +0.000 F 
ATOM     10  F   UNL     1      44.204   4.025   7.898  0.00  0.00    +0.000 F 
ATOM     11  F   UNL     1      46.000   5.087   8.513  0.00  0.00    +0.000 F 
ENDBRANCH   6   8
ENDBRANCH   1   2
BRANCH   1  12
ATOM     12  C   UNL     1      47.130   4.504  14.103  0.00  0.00    +0.000 C 
BRANCH  12  13
ATOM     13  C   UNL     1      47.115   4.118  15.591  0.00  0.00    +0.000 C 
BRANCH  13  15
ATOM     14  C   UNL     1      48.715   5.556  16.730  0.00  0.00    +0.000 C 
ATOM     15  N   UNL     1      48.425   4.198  16.258  0.00  0.00    +0.000 NA
ATOM     16  C   UNL     1      48.459   3.276  17.400  0.00  0.00    +0.000 C 
ENDBRANCH  13  15
ENDBRANCH  12  13
ENDBRANCH   1  12
BRANCH   1  17
ATOM     17  C   UNL     1      46.142   6.717  13.158  0.00  0.00    +0.000 C 
BRANCH  17  18
ATOM     18  N   UNL     1      47.213   7.348  13.931  0.00  0.00    +0.000 N 
ATOM     19  H   UNL     1      46.903   8.106  14.530  0.00  0.00    +0.000 HD
BRANCH  18  20
ATOM     20  C   UNL     1      48.452   7.641  13.368  0.00  0.00    +0.000 A 
ATOM     21  C   UNL     1      49.528   8.183  14.074  0.00  0.00    +0.000 A 
ATOM     22  C   UNL     1      50.738   8.465  13.432  0.00  0.00    +0.000 A 
ATOM     23  C   UNL     1      50.883   8.238  12.061  0.00  0.00    +0.000 A 
ATOM     24  C   UNL     1      49.790   7.774  11.325  0.00  0.00    +0.000 A 
ATOM     25  C   UNL     1      48.587   7.491  11.980  0.00  0.00    +0.000 A 
BRANCH  23  26
ATOM     26  C   UNL     1      52.197   8.520  11.427  0.00  0.00    +0.000 C 
ATOM     27  N   UNL     1      53.252   7.725  11.782  0.00  0.00    +0.000 N 
ATOM     28  O   UNL     1      52.353   9.455  10.653  0.00  0.00    +0.000 OA
ATOM     29  H   UNL     1      53.228   7.121  12.590  0.00  0.00    +0.000 HD
ATOM     30  H   UNL     1      54.159   8.013  11.438  0.00  0.00    +0.000 HD
ENDBRANCH  23  26
ENDBRANCH  18  20
ENDBRANCH  17  18
ENDBRANCH   1  17
TORSDOF 9
ENDMDL
MODEL 9
REMARK VINA RESULT:    -6.104      3.867      6.217
REMARK INTER + INTRA:         -10.463
REMARK INTER:                  -8.948
REMARK INTRA:                  -1.515
REMARK UNBOUND:                -1.148
REMARK  Name = 
REMARK  11 active torsions:
REMARK  status: ('A' for Active; 'I' for Inactive)
REMARK    1  A    between atoms: C_1  and  N_2
REMARK    2  A    between atoms: N_2  and  C_3
REMARK    3  A    between atoms: N_2  and  C_4
REMARK    4  A    between atoms: C_4  and  C_5
REMARK    5  A    between atoms: C_5  and  C_6
REMARK    6  A    between atoms: C_6  and  C_7
REMARK    7  A    between atoms: C_6  and  C_18
REMARK    8  A    between atoms: C_7  and  N_8
REMARK    9  A    between atoms: N_8  and  C_9
REMARK   10  A    between atoms: C_12  and  C_13
REMARK   11  A    between atoms: C_22  and  C_23
REMARK                            x       y       z     vdW  Elec       q    Type
REMARK                         _______ _______ _______ _____ _____    ______ ____
ROOT
ATOM      1  C   UNL     1      48.792   7.783  15.615  0.00  0.00    +0.000 C 
ENDROOT
BRANCH   1   2
ATOM      2  C   UNL     1      48.585   6.772  16.746  0.00  0.00    +0.000 A 
ATOM      3  C   UNL     1      48.459   7.176  18.084  0.00  0.00    +0.000 A 
ATOM      4  C   UNL     1      48.232   6.248  19.099  0.00  0.00    +0.000 A 
ATOM      5  C   UNL     1      48.114   4.895  18.794  0.00  0.00    +0.000 A 
ATOM      6  C   UNL     1      48.228   4.457  17.468  0.00  0.00    +0.000 A 
ATOM      7  C   UNL     1      48.475   5.402  16.454  0.00  0.00    +0.000 A 
BRANCH   6   8
ATOM      8  C   UNL     1      48.073   2.997  17.122  0.00  0.00    +0.000 C 
ATOM      9  F   UNL     1      47.920   2.764  15.788  0.00  0.00    +0.000 F 
ATOM     10  F   UNL     1      49.153   2.257  17.504  0.00  0.00    +0.000 F 
ATOM     11  F   UNL     1      46.996   2.424  17.727  0.00  0.00    +0.000 F 
ENDBRANCH   6   8
ENDBRANCH   1   2
BRANCH   1  12
ATOM     12  C   UNL     1      50.157   8.497  15.781  0.00  0.00    +0.000 C 
BRANCH  12  13
ATOM     13  C   UNL     1      51.338   7.822  15.065  0.00  0.00    +0.000 C 
BRANCH  13  15
ATOM     14  C   UNL     1      53.615   7.064  15.475  0.00  0.00    +0.000 C 
ATOM     15  N   UNL     1      52.227   7.045  15.946  0.00  0.00    +0.000 NA
ATOM     16  C   UNL     1      52.175   7.589  17.309  0.00  0.00    +0.000 C 
ENDBRANCH  13  15
ENDBRANCH  12  13
ENDBRANCH   1  12
BRANCH   1  17
ATOM     17  C   UNL     1      48.565   7.174  14.206  0.00  0.00    +0.000 C 
BRANCH  17  18
ATOM     18  N   UNL     1      47.194   7.361  13.728  0.00  0.00    +0.000 N 
ATOM     19  H   UNL     1      46.601   7.886  14.362  0.00  0.00    +0.000 HD
BRANCH  18  20
ATOM     20  C   UNL     1      46.479   6.331  13.124  0.00  0.00    +0.000 A 
ATOM     21  C   UNL     1      46.347   5.048  13.657  0.00  0.00    +0.000 A 
ATOM     22  C   UNL     1      45.624   4.060  12.979  0.00  0.00    +0.000 A 
ATOM     23  C   UNL     1      45.046   4.331  11.738  0.00  0.00    +0.000 A 
ATOM     24  C   UNL     1      45.239   5.585  11.152  0.00  0.00    +0.000 A 
ATOM     25  C   UNL     1      45.958   6.566  11.842  0.00  0.00    +0.000 A 
BRANCH  23  26
ATOM     26  C   UNL     1      44.258   3.262  11.069  0.00  0.00    +0.000 C 
ATOM     27  N   UNL     1      44.928   2.423  10.221  0.00  0.00    +0.000 N 
ATOM     28  O   UNL     1      43.049   3.159  11.224  0.00  0.00    +0.000 OA
ATOM     29  H   UNL     1      45.853   2.628   9.874  0.00  0.00    +0.000 HD
ATOM     30  H   UNL     1      44.354   1.788   9.683  0.00  0.00    +0.000 HD
ENDBRANCH  23  26
ENDBRANCH  18  20
ENDBRANCH  17  18
ENDBRANCH   1  17
TORSDOF 9
ENDMDL
