MODEL 1
REMARK VINA RESULT:    -8.032      0.000      0.000
REMARK INTER + INTRA:         -12.124
REMARK INTER:                 -11.319
REMARK INTRA:                  -0.805
REMARK UNBOUND:                -0.805
REMARK  Name = 
REMARK  8 active torsions:
REMARK  status: ('A' for Active; 'I' for Inactive)
REMARK    1  A    between atoms: C_1  and  O_2
REMARK    2  A    between atoms: O_2  and  C_3
REMARK    3  A    between atoms: C_6  and  N_7
REMARK    4  A    between atoms: N_7  and  C_8
REMARK    5  A    between atoms: C_8  and  C_9
REMARK    6  A    between atoms: C_9  and  C_12
REMARK    7  A    between atoms: C_16  and  N_17
REMARK    8  A    between atoms: N_17  and  C_18
REMARK                            x       y       z     vdW  Elec       q    Type
REMARK                         _______ _______ _______ _____ _____    ______ ____
ROOT
ATOM      1  C   UNL     1      43.527   5.392  12.014  0.00  0.00    +0.000 C 
ATOM      2  F   UNL     1      43.167   6.528  11.348  0.00  0.00    +0.000 F 
ATOM      3  F   UNL     1      42.604   5.246  13.012  0.00  0.00    +0.000 F 
ENDROOT
BRANCH   1   4
ATOM      4  C   UNL     1      44.948   5.461  12.539  0.00  0.00    +0.000 A 
ATOM      5  C   UNL     1      45.798   6.509  12.168  0.00  0.00    +0.000 A 
ATOM      6  C   UNL     1      47.052   6.630  12.759  0.00  0.00    +0.000 A 
ATOM      7  C   UNL     1      47.473   5.701  13.716  0.00  0.00    +0.000 A 
ATOM      8  C   UNL     1      46.659   4.626  14.081  0.00  0.00    +0.000 A 
ATOM      9  C   UNL     1      45.391   4.528  13.492  0.00  0.00    +0.000 A 
BRANCH   8  10
ATOM     10  N   UNL     1      47.005   3.722  15.108  0.00  0.00    +0.000 N 
ATOM     11  H   UNL     1      47.177   2.788  14.739  0.00  0.00    +0.000 HD
BRANCH  10  12
ATOM     12  C   UNL     1      47.844   4.010  16.242  0.00  0.00    +0.000 C 
ATOM     13  C   UNL     1      48.159   2.766  17.098  0.00  0.00    +0.000 C 
ATOM     14  N   UNL     1      47.700   3.481  18.304  0.00  0.00    +0.000 NA
ATOM     15  C   UNL     1      47.039   4.498  17.465  0.00  0.00    +0.000 C 
ATOM     16  H   UNL     1      48.463   3.855  18.868  0.00  0.00    +0.000 HD
ENDBRANCH  10  12
ENDBRANCH   8  10
ENDBRANCH   1   4
BRANCH   1  17
ATOM     17  C   UNL     1      43.415   4.176  11.061  0.00  0.00    +0.000 C 
BRANCH  17  18
ATOM     18  N   UNL     1      43.733   4.472   9.655  0.00  0.00    +0.000 N 
ATOM     19  H   UNL     1      42.941   4.789   9.101  0.00  0.00    +0.000 HD
BRANCH  18  23
ATOM     20  C   UNL     1      46.514   2.006   7.636  0.00  0.00    +0.000 A 
ATOM     21  C   UNL     1      45.651   1.447   8.572  0.00  0.00    +0.000 A 
ATOM     22  C   UNL     1      44.715   2.249   9.235  0.00  0.00    +0.000 A 
ATOM     23  C   UNL     1      44.590   3.616   8.956  0.00  0.00    +0.000 A 
ATOM     24  C   UNL     1      45.469   4.166   8.018  0.00  0.00    +0.000 A 
ATOM     25  C   UNL     1      46.418   3.371   7.363  0.00  0.00    +0.000 A 
BRANCH  20  27
ATOM     26  C   UNL     1      48.221   2.094   5.991  0.00  0.00    +0.000 C 
ATOM     27  O   UNL     1      47.485   1.337   6.945  0.00  0.00    +0.000 OA
ENDBRANCH  20  27
ENDBRANCH  18  23
ENDBRANCH  17  18
ENDBRANCH   1  17
TORSDOF 7
ENDMDL
MODEL 2
REMARK VINA RESULT:    -7.242      2.244      3.166
REMARK INTER + INTRA:         -11.010
REMARK INTER:                 -10.183
REMARK INTRA:                  -0.827
REMARK UNBOUND:                -0.805
REMARK  Name = 
REMARK  8 active torsions:
REMARK  status: ('A' for Active; 'I' for Inactive)
REMARK    1  A    between atoms: C_1  and  O_2
REMARK    2  A    between atoms: O_2  and  C_3
REMARK    3  A    between atoms: C_6  and  N_7
REMARK    4  A    between atoms: N_7  and  C_8
REMARK    5  A    between atoms: C_8  and  C_9
REMARK    6  A    between atoms: C_9  and  C_12
REMARK    7  A    between atoms: C_16  and  N_17
REMARK    8  A    between atoms: N_17  and  C_18
REMARK                            x       y       z     vdW  Elec       q    Type
REMARK                         _______ _______ _______ _____ _____    ______ ____
ROOT
ATOM      1  C   UNL     1      43.475   5.610  12.176  0.00  0.00    +0.000 C 
ATOM      2  F   UNL     1      43.071   6.758  11.559  0.00  0.00    +0.000 F 
ATOM      3  F   UNL     1      42.605   5.428  13.216  0.00  0.00    +0.000 F 
ENDROOT
BRANCH   1   4
ATOM      4  C   UNL     1      44.920   5.680  12.630  0.00  0.00    +0.000 A 
ATOM      5  C   UNL     1      45.417   4.779  13.578  0.00  0.00    +0.000 A 
ATOM      6  C   UNL     1      46.775   4.771  13.885  0.00  0.00    +0.000 A 
ATOM      7  C   UNL     1      47.645   5.668  13.258  0.00  0.00    +0.000 A 
ATOM      8  C   UNL     1      47.171   6.601  12.332  0.00  0.00    +0.000 A 
ATOM      9  C   UNL     1      45.805   6.585  12.018  0.00  0.00    +0.000 A 
BRANCH   8  10
ATOM     10  N   UNL     1      48.026   7.459  11.608  0.00  0.00    +0.000 N 
ATOM     11  H   UNL     1      47.760   7.509  10.626  0.00  0.00    +0.000 HD
BRANCH  10  12
ATOM     12  C   UNL     1      48.565   8.710  12.077  0.00  0.00    +0.000 C 
ATOM     13  C   UNL     1      49.724   8.536  13.079  0.00  0.00    +0.000 C 
ATOM     14  N   UNL     1      49.033   9.428  14.030  0.00  0.00    +0.000 NA
ATOM     15  C   UNL     1      47.776   9.283  13.273  0.00  0.00    +0.000 C 
ATOM     16  H   UNL     1      49.398  10.381  14.031  0.00  0.00    +0.000 HD
ENDBRANCH  10  12
ENDBRANCH   8  10
ENDBRANCH   1   4
BRANCH   1  17
ATOM     17  C   UNL     1      43.326   4.417  11.199  0.00  0.00    +0.000 C 
BRANCH  17  18
ATOM     18  N   UNL     1      43.695   4.720   9.806  0.00  0.00    +0.000 N 
ATOM     19  H   UNL     1      42.935   5.084   9.238  0.00  0.00    +0.000 HD
BRANCH  18  23
ATOM     20  C   UNL     1      46.408   2.156   7.818  0.00  0.00    +0.000 A 
ATOM     21  C   UNL     1      45.491   1.623   8.717  0.00  0.00    +0.000 A 
ATOM     22  C   UNL     1      44.577   2.459   9.369  0.00  0.00    +0.000 A 
ATOM     23  C   UNL     1      44.529   3.835   9.115  0.00  0.00    +0.000 A 
ATOM     24  C   UNL     1      45.461   4.358   8.214  0.00  0.00    +0.000 A 
ATOM     25  C   UNL     1      46.389   3.529   7.570  0.00  0.00    +0.000 A 
BRANCH  20  27
ATOM     26  C   UNL     1      47.975   2.109   6.037  0.00  0.00    +0.000 C 
ATOM     27  O   UNL     1      47.364   1.451   7.142  0.00  0.00    +0.000 OA
ENDBRANCH  20  27
ENDBRANCH  18  23
ENDBRANCH  17  18
ENDBRANCH   1  17
TORSDOF 7
ENDMDL
MODEL 3
REMARK VINA RESULT:    -7.137      1.864      2.283
REMARK INTER + INTRA:         -10.862
REMARK INTER:                  -9.909
REMARK INTRA:                  -0.954
REMARK UNBOUND:                -0.805
REMARK  Name = 
REMARK  8 active torsions:
REMARK  status: ('A' for Active; 'I' for Inactive)
REMARK    1  A    between atoms: C_1  and  O_2
REMARK    2  A    between atoms: O_2  and  C_3
REMARK    3  A    between atoms: C_6  and  N_7
REMARK    4  A    between atoms: N_7  and  C_8
REMARK    5  A    between atoms: C_8  and  C_9
REMARK    6  A    between atoms: C_9  and  C_12
REMARK    7  A    between atoms: C_16  and  N_17
REMARK    8  A    between atoms: N_17  and  C_18
REMARK                            x       y       z     vdW  Elec       q    Type
REMARK                         _______ _______ _______ _____ _____    ______ ____
ROOT
ATOM      1  C   UNL     1      44.414   4.052  12.358  0.00  0.00    +0.000 C 
ATOM      2  F   UNL     1      43.481   4.273  13.329  0.00  0.00    +0.000 F 
ATOM      3  F   UNL     1      44.724   2.723  12.444  0.00  0.00    +0.000 F 
ENDROOT
BRANCH   1   4
ATOM      4  C   UNL     1      45.628   4.946  12.516  0.00  0.00    +0.000 A 
ATOM      5  C   UNL     1      46.011   5.820  11.492  0.00  0.00    +0.000 A 
ATOM      6  C   UNL     1      47.047   6.726  11.703  0.00  0.00    +0.000 A 
ATOM      7  C   UNL     1      47.714   6.762  12.932  0.00  0.00    +0.000 A 
ATOM      8  C   UNL     1      47.374   5.879  13.960  0.00  0.00    +0.000 A 
ATOM      9  C   UNL     1      46.318   4.985  13.741  0.00  0.00    +0.000 A 
BRANCH   8  10
ATOM     10  N   UNL     1      47.957   5.943  15.243  0.00  0.00    +0.000 N 
ATOM     11  H   UNL     1      47.894   5.048  15.726  0.00  0.00    +0.000 HD
BRANCH  10  12
ATOM     12  C   UNL     1      49.160   6.653  15.592  0.00  0.00    +0.000 C 
ATOM     13  C   UNL     1      49.896   6.045  16.804  0.00  0.00    +0.000 C 
ATOM     14  N   UNL     1      49.915   7.369  17.455  0.00  0.00    +0.000 NA
ATOM     15  C   UNL     1      48.889   7.859  16.515  0.00  0.00    +0.000 C 
ATOM     16  H   UNL     1      50.809   7.851  17.367  0.00  0.00    +0.000 HD
ENDBRANCH  10  12
ENDBRANCH   8  10
ENDBRANCH   1   4
BRANCH   1  17
ATOM     17  C   UNL     1      43.787   4.320  10.967  0.00  0.00    +0.000 C 
BRANCH  17  18
ATOM     18  N   UNL     1      43.848   3.178  10.040  0.00  0.00    +0.000 N 
ATOM     19  H   UNL     1      43.547   2.293  10.440  0.00  0.00    +0.000 HD
BRANCH  18  23
ATOM     20  C   UNL     1      47.032   2.665   7.304  0.00  0.00    +0.000 A 
ATOM     21  C   UNL     1      46.526   3.939   7.540  0.00  0.00    +0.000 A 
ATOM     22  C   UNL     1      45.484   4.124   8.456  0.00  0.00    +0.000 A 
ATOM     23  C   UNL     1      44.946   3.055   9.183  0.00  0.00    +0.000 A 
ATOM     24  C   UNL     1      45.460   1.780   8.931  0.00  0.00    +0.000 A 
ATOM     25  C   UNL     1      46.493   1.586   8.005  0.00  0.00    +0.000 A 
BRANCH  20  27
ATOM     26  C   UNL     1      47.666   2.336   5.042  0.00  0.00    +0.000 C 
ATOM     27  O   UNL     1      48.025   2.353   6.419  0.00  0.00    +0.000 OA
ENDBRANCH  20  27
ENDBRANCH  18  23
ENDBRANCH  17  18
ENDBRANCH   1  17
TORSDOF 7
ENDMDL
MODEL 4
REMARK VINA RESULT:    -7.042      3.069      7.764
REMARK INTER + INTRA:         -10.729
REMARK INTER:                 -10.075
REMARK INTRA:                  -0.654
REMARK UNBOUND:                -0.805
REMARK  Name = 
REMARK  8 active torsions:
REMARK  status: ('A' for Active; 'I' for Inactive)
REMARK    1  A    between atoms: C_1  and  O_2
REMARK    2  A    between atoms: O_2  and  C_3
REMARK    3  A    between atoms: C_6  and  N_7
REMARK    4  A    between atoms: N_7  and  C_8
REMARK    5  A    between atoms: C_8  and  C_9
REMARK    6  A    between atoms: C_9  and  C_12
REMARK    7  A    between atoms: C_16  and  N_17
REMARK    8  A    between atoms: N_17  and  C_18
REMARK                            x       y       z     vdW  Elec       q    Type
REMARK                         _______ _______ _______ _____ _____    ______ ____
ROOT
ATOM      1  C   UNL     1      44.549   5.931  11.229  0.00  0.00    +0.000 C 
ATOM      2  F   UNL     1      43.269   6.402  11.258  0.00  0.00    +0.000 F 
ATOM      3  F   UNL     1      45.281   6.900  10.601  0.00  0.00    +0.000 F 
ENDROOT
BRANCH   1   4
ATOM      4  C   UNL     1      44.649   4.584  10.540  0.00  0.00    +0.000 A 
ATOM      5  C   UNL     1      44.062   3.446  11.104  0.00  0.00    +0.000 A 
ATOM      6  C   UNL     1      44.049   2.247  10.396  0.00  0.00    +0.000 A 
ATOM      7  C   UNL     1      44.630   2.171   9.126  0.00  0.00    +0.000 A 
ATOM      8  C   UNL     1      45.253   3.283   8.553  0.00  0.00    +0.000 A 
ATOM      9  C   UNL     1      45.242   4.488   9.268  0.00  0.00    +0.000 A 
BRANCH   8  10
ATOM     10  N   UNL     1      45.767   3.275   7.240  0.00  0.00    +0.000 N 
ATOM     11  H   UNL     1      45.261   3.922   6.637  0.00  0.00    +0.000 HD
BRANCH  10  12
ATOM     12  C   UNL     1      47.158   3.187   6.876  0.00  0.00    +0.000 C 
ATOM     13  C   UNL     1      47.378   2.909   5.374  0.00  0.00    +0.000 C 
ATOM     14  N   UNL     1      48.250   1.769   5.715  0.00  0.00    +0.000 NA
ATOM     15  C   UNL     1      47.740   1.776   7.099  0.00  0.00    +0.000 C 
ATOM     16  H   UNL     1      49.245   1.985   5.649  0.00  0.00    +0.000 HD
ENDBRANCH  10  12
ENDBRANCH   8  10
ENDBRANCH   1   4
BRANCH   1  17
ATOM     17  C   UNL     1      45.078   5.780  12.677  0.00  0.00    +0.000 C 
BRANCH  17  18
ATOM     18  N   UNL     1      46.514   5.471  12.774  0.00  0.00    +0.000 N 
ATOM     19  H   UNL     1      46.829   4.731  12.151  0.00  0.00    +0.000 HD
BRANCH  18  23
ATOM     20  C   UNL     1      48.455   5.144  16.517  0.00  0.00    +0.000 A 
ATOM     21  C   UNL     1      48.696   6.252  15.711  0.00  0.00    +0.000 A 
ATOM     22  C   UNL     1      48.047   6.380  14.478  0.00  0.00    +0.000 A 
ATOM     23  C   UNL     1      47.118   5.431  14.034  0.00  0.00    +0.000 A 
ATOM     24  C   UNL     1      46.891   4.319  14.851  0.00  0.00    +0.000 A 
ATOM     25  C   UNL     1      47.549   4.177  16.080  0.00  0.00    +0.000 A 
BRANCH  20  27
ATOM     26  C   UNL     1      48.303   4.092  18.638  0.00  0.00    +0.000 C 
ATOM     27  O   UNL     1      49.045   4.892  17.724  0.00  0.00    +0.000 OA
ENDBRANCH  20  27
ENDBRANCH  18  23
ENDBRANCH  17  18
ENDBRANCH   1  17
TORSDOF 7
ENDMDL
MODEL 5
REMARK VINA RESULT:    -6.708      2.024      2.686
REMARK INTER + INTRA:         -10.259
REMARK INTER:                  -9.371
REMARK INTRA:                  -0.888
REMARK UNBOUND:                -0.805
REMARK  Name = 
REMARK  8 active torsions:
REMARK  status: ('A' for Active; 'I' for Inactive)
REMARK    1  A    between atoms: C_1  and  O_2
REMARK    2  A    between atoms: O_2  and  C_3
REMARK    3  A    between atoms: C_6  and  N_7
REMARK    4  A    between atoms: N_7  and  C_8
REMARK    5  A    between atoms: C_8  and  C_9
REMARK    6  A    between atoms: C_9  and  C_12
REMARK    7  A    between atoms: C_16  and  N_17
REMARK    8  A    between atoms: N_17  and  C_18
REMARK                            x       y       z     vdW  Elec       q    Type
REMARK                         _______ _______ _______ _____ _____    ______ ____
ROOT
ATOM      1  C   UNL     1      45.015   6.075  11.285  0.00  0.00    +0.000 C 
ATOM      2  F   UNL     1      45.853   6.363  10.247  0.00  0.00    +0.000 F 
ATOM      3  F   UNL     1      44.408   7.257  11.604  0.00  0.00    +0.000 F 
ENDROOT
BRANCH   1   4
ATOM      4  C   UNL     1      45.749   5.459  12.460  0.00  0.00    +0.000 A 
ATOM      5  C   UNL     1      45.877   4.070  12.576  0.00  0.00    +0.000 A 
ATOM      6  C   UNL     1      46.665   3.527  13.586  0.00  0.00    +0.000 A 
ATOM      7  C   UNL     1      47.322   4.362  14.495  0.00  0.00    +0.000 A 
ATOM      8  C   UNL     1      47.186   5.751  14.423  0.00  0.00    +0.000 A 
ATOM      9  C   UNL     1      46.406   6.285  13.389  0.00  0.00    +0.000 A 
BRANCH   8  10
ATOM     10  N   UNL     1      47.904   6.632  15.259  0.00  0.00    +0.000 N 
ATOM     11  H   UNL     1      47.283   7.138  15.888  0.00  0.00    +0.000 HD
BRANCH  10  12
ATOM     12  C   UNL     1      49.180   6.366  15.872  0.00  0.00    +0.000 C 
ATOM     13  C   UNL     1      49.435   7.209  17.139  0.00  0.00    +0.000 C 
ATOM     14  N   UNL     1      50.726   7.653  16.582  0.00  0.00    +0.000 NA
ATOM     15  C   UNL     1      50.322   7.189  15.241  0.00  0.00    +0.000 C 
ATOM     16  H   UNL     1      51.527   7.147  16.961  0.00  0.00    +0.000 HD
ENDBRANCH  10  12
ENDBRANCH   8  10
ENDBRANCH   1   4
BRANCH   1  17
ATOM     17  C   UNL     1      43.928   5.078  10.811  0.00  0.00    +0.000 C 
BRANCH  17  18
ATOM     18  N   UNL     1      43.942   4.801   9.365  0.00  0.00    +0.000 N 
ATOM     19  H   UNL     1      43.020   4.741   8.939  0.00  0.00    +0.000 HD
BRANCH  18  23
ATOM     20  C   UNL     1      46.499   1.851   7.740  0.00  0.00    +0.000 A 
ATOM     21  C   UNL     1      46.627   3.174   7.330  0.00  0.00    +0.000 A 
ATOM     22  C   UNL     1      45.798   4.163   7.873  0.00  0.00    +0.000 A 
ATOM     23  C   UNL     1      44.849   3.866   8.860  0.00  0.00    +0.000 A 
ATOM     24  C   UNL     1      44.727   2.531   9.257  0.00  0.00    +0.000 A 
ATOM     25  C   UNL     1      45.543   1.534   8.706  0.00  0.00    +0.000 A 
BRANCH  20  27
ATOM     26  C   UNL     1      46.660  -0.498   7.446  0.00  0.00    +0.000 C 
ATOM     27  O   UNL     1      47.226   0.795   7.267  0.00  0.00    +0.000 OA
ENDBRANCH  20  27
ENDBRANCH  18  23
ENDBRANCH  17  18
ENDBRANCH   1  17
TORSDOF 7
ENDMDL
MODEL 6
REMARK VINA RESULT:    -6.685      3.197      5.158
REMARK INTER + INTRA:         -10.225
REMARK INTER:                  -9.680
REMARK INTRA:                  -0.545
REMARK UNBOUND:                -0.805
REMARK  Name = 
REMARK  8 active torsions:
REMARK  status: ('A' for Active; 'I' for Inactive)
REMARK    1  A    between atoms: C_1  and  O_2
REMARK    2  A    between atoms: O_2  and  C_3
REMARK    3  A    between atoms: C_6  and  N_7
REMARK    4  A    between atoms: N_7  and  C_8
REMARK    5  A    between atoms: C_8  and  C_9
REMARK    6  A    between atoms: C_9  and  C_12
REMARK    7  A    between atoms: C_16  and  N_17
REMARK    8  A    between atoms: N_17  and  C_18
REMARK                            x       y       z     vdW  Elec       q    Type
REMARK                         _______ _______ _______ _____ _____    ______ ____
ROOT
ATOM      1  C   UNL     1      45.119   5.943  12.255  0.00  0.00    +0.000 C 
ATOM      2  F   UNL     1      44.287   5.778  13.324  0.00  0.00    +0.000 F 
ATOM      3  F   UNL     1      45.988   4.889  12.302  0.00  0.00    +0.000 F 
ENDROOT
BRANCH   1   4
ATOM      4  C   UNL     1      45.826   7.285  12.280  0.00  0.00    +0.000 A 
ATOM      5  C   UNL     1      47.216   7.364  12.136  0.00  0.00    +0.000 A 
ATOM      6  C   UNL     1      47.834   8.607  12.029  0.00  0.00    +0.000 A 
ATOM      7  C   UNL     1      47.073   9.779  12.075  0.00  0.00    +0.000 A 
ATOM      8  C   UNL     1      45.688   9.731  12.251  0.00  0.00    +0.000 A 
ATOM      9  C   UNL     1      45.076   8.473  12.338  0.00  0.00    +0.000 A 
BRANCH   8  10
ATOM     10  N   UNL     1      44.873  10.882  12.209  0.00  0.00    +0.000 N 
ATOM     11  H   UNL     1      45.340  11.684  12.631  0.00  0.00    +0.000 HD
BRANCH  10  12
ATOM     12  C   UNL     1      44.020  11.276  11.119  0.00  0.00    +0.000 C 
ATOM     13  C   UNL     1      42.909  10.251  10.814  0.00  0.00    +0.000 C 
ATOM     14  N   UNL     1      43.318  10.231   9.396  0.00  0.00    +0.000 NA
ATOM     15  C   UNL     1      44.596  10.880   9.743  0.00  0.00    +0.000 C 
ATOM     16  H   UNL     1      42.724  10.802   8.795  0.00  0.00    +0.000 HD
ENDBRANCH  10  12
ENDBRANCH   8  10
ENDBRANCH   1   4
BRANCH   1  17
ATOM     17  C   UNL     1      44.301   5.846  10.943  0.00  0.00    +0.000 C 
BRANCH  17  18
ATOM     18  N   UNL     1      43.812   4.494  10.628  0.00  0.00    +0.000 N 
ATOM     19  H   UNL     1      43.506   3.957  11.435  0.00  0.00    +0.000 HD
BRANCH  18  23
ATOM     20  C   UNL     1      46.086   2.269   7.840  0.00  0.00    +0.000 A 
ATOM     21  C   UNL     1      45.322   1.604   8.793  0.00  0.00    +0.000 A 
ATOM     22  C   UNL     1      44.552   2.328   9.710  0.00  0.00    +0.000 A 
ATOM     23  C   UNL     1      44.495   3.727   9.679  0.00  0.00    +0.000 A 
ATOM     24  C   UNL     1      45.273   4.383   8.720  0.00  0.00    +0.000 A 
ATOM     25  C   UNL     1      46.058   3.664   7.809  0.00  0.00    +0.000 A 
BRANCH  20  27
ATOM     26  C   UNL     1      48.102   2.364   6.594  0.00  0.00    +0.000 C 
ATOM     27  O   UNL     1      46.896   1.678   6.912  0.00  0.00    +0.000 OA
ENDBRANCH  20  27
ENDBRANCH  18  23
ENDBRANCH  17  18
ENDBRANCH   1  17
TORSDOF 7
ENDMDL
MODEL 7
REMARK VINA RESULT:    -6.437      3.217      7.864
REMARK INTER + INTRA:          -9.875
REMARK INTER:                  -9.616
REMARK INTRA:                  -0.260
REMARK UNBOUND:                -0.805
REMARK  Name = 
REMARK  8 active torsions:
REMARK  status: ('A' for Active; 'I' for Inactive)
REMARK    1  A    between atoms: C_1  and  O_2
REMARK    2  A    between atoms: O_2  and  C_3
REMARK    3  A    between atoms: C_6  and  N_7
REMARK    4  A    between atoms: N_7  and  C_8
REMARK    5  A    between atoms: C_8  and  C_9
REMARK    6  A    between atoms: C_9  and  C_12
REMARK    7  A    between atoms: C_16  and  N_17
REMARK    8  A    between atoms: N_17  and  C_18
REMARK                            x       y       z     vdW  Elec       q    Type
REMARK                         _______ _______ _______ _____ _____    ______ ____
ROOT
ATOM      1  C   UNL     1      46.492   6.667  12.645  0.00  0.00    +0.000 C 
ATOM      2  F   UNL     1      46.084   7.717  13.415  0.00  0.00    +0.000 F 
ATOM      3  F   UNL     1      47.205   7.222  11.619  0.00  0.00    +0.000 F 
ENDROOT
BRANCH   1   4
ATOM      4  C   UNL     1      45.328   5.825  12.159  0.00  0.00    +0.000 A 
ATOM      5  C   UNL     1      44.256   5.528  13.008  0.00  0.00    +0.000 A 
ATOM      6  C   UNL     1      43.137   4.868  12.509  0.00  0.00    +0.000 A 
ATOM      7  C   UNL     1      43.082   4.490  11.164  0.00  0.00    +0.000 A 
ATOM      8  C   UNL     1      44.152   4.745  10.301  0.00  0.00    +0.000 A 
ATOM      9  C   UNL     1      45.264   5.427  10.812  0.00  0.00    +0.000 A 
BRANCH   8  10
ATOM     10  N   UNL     1      44.100   4.465   8.919  0.00  0.00    +0.000 N 
ATOM     11  H   UNL     1      44.420   5.259   8.366  0.00  0.00    +0.000 HD
BRANCH  10  12
ATOM     12  C   UNL     1      44.437   3.212   8.296  0.00  0.00    +0.000 C 
ATOM     13  C   UNL     1      44.926   2.145   9.297  0.00  0.00    +0.000 C 
ATOM     14  N   UNL     1      46.133   1.930   8.477  0.00  0.00    +0.000 NA
ATOM     15  C   UNL     1      45.882   3.191   7.754  0.00  0.00    +0.000 C 
ATOM     16  H   UNL     1      46.077   1.104   7.882  0.00  0.00    +0.000 HD
ENDBRANCH  10  12
ENDBRANCH   8  10
ENDBRANCH   1   4
BRANCH   1  17
ATOM     17  C   UNL     1      47.441   5.761  13.468  0.00  0.00    +0.000 C 
BRANCH  17  18
ATOM     18  N   UNL     1      46.775   4.972  14.517  0.00  0.00    +0.000 N 
ATOM     19  H   UNL     1      45.800   5.216  14.673  0.00  0.00    +0.000 HD
BRANCH  18  23
ATOM     20  C   UNL     1      48.780   4.303  18.180  0.00  0.00    +0.000 A 
ATOM     21  C   UNL     1      47.848   3.376  17.726  0.00  0.00    +0.000 A 
ATOM     22  C   UNL     1      47.190   3.577  16.508  0.00  0.00    +0.000 A 
ATOM     23  C   UNL     1      47.470   4.684  15.696  0.00  0.00    +0.000 A 
ATOM     24  C   UNL     1      48.404   5.611  16.168  0.00  0.00    +0.000 A 
ATOM     25  C   UNL     1      49.054   5.423  17.395  0.00  0.00    +0.000 A 
BRANCH  20  27
ATOM     26  C   UNL     1      48.979   5.041  20.426  0.00  0.00    +0.000 C 
ATOM     27  O   UNL     1      49.466   4.233  19.361  0.00  0.00    +0.000 OA
ENDBRANCH  20  27
ENDBRANCH  18  23
ENDBRANCH  17  18
ENDBRANCH   1  17
TORSDOF 7
ENDMDL
MODEL 8
REMARK VINA RESULT:    -6.277      3.896      7.805
REMARK INTER + INTRA:          -9.650
REMARK INTER:                  -8.980
REMARK INTRA:                  -0.670
REMARK UNBOUND:                -0.805
REMARK  Name = 
REMARK  8 active torsions:
REMARK  status: ('A' for Active; 'I' for Inactive)
REMARK    1  A    between atoms: C_1  and  O_2
REMARK    2  A    between atoms: O_2  and  C_3
REMARK    3  A    between atoms: C_6  and  N_7
REMARK    4  A    between atoms: N_7  and  C_8
REMARK    5  A    between atoms: C_8  and  C_9
REMARK    6  A    between atoms: C_9  and  C_12
REMARK    7  A    between atoms: C_16  and  N_17
REMARK    8  A    between atoms: N_17  and  C_18
REMARK                            x       y       z     vdW  Elec       q    Type
REMARK                         _______ _______ _______ _____ _____    ______ ____
ROOT
ATOM      1  C   UNL     1      44.548   5.768  11.357  0.00  0.00    +0.000 C 
ATOM      2  F   UNL     1      44.535   5.579  12.709  0.00  0.00    +0.000 F 
ATOM      3  F   UNL     1      43.404   6.460  11.074  0.00  0.00    +0.000 F 
ENDROOT
BRANCH   1   4
ATOM      4  C   UNL     1      44.643   4.460  10.597  0.00  0.00    +0.000 A 
ATOM      5  C   UNL     1      44.060   3.293  11.105  0.00  0.00    +0.000 A 
ATOM      6  C   UNL     1      44.042   2.133  10.335  0.00  0.00    +0.000 A 
ATOM      7  C   UNL     1      44.613   2.125   9.058  0.00  0.00    +0.000 A 
ATOM      8  C   UNL     1      45.231   3.266   8.540  0.00  0.00    +0.000 A 
ATOM      9  C   UNL     1      45.226   4.431   9.317  0.00  0.00    +0.000 A 
BRANCH   8  10
ATOM     10  N   UNL     1      45.736   3.328   7.224  0.00  0.00    +0.000 N 
ATOM     11  H   UNL     1      45.237   4.019   6.665  0.00  0.00    +0.000 HD
BRANCH  10  12
ATOM     12  C   UNL     1      47.122   3.236   6.843  0.00  0.00    +0.000 C 
ATOM     13  C   UNL     1      47.322   2.904   5.350  0.00  0.00    +0.000 C 
ATOM     14  N   UNL     1      48.208   1.783   5.719  0.00  0.00    +0.000 NA
ATOM     15  C   UNL     1      47.717   1.838   7.109  0.00  0.00    +0.000 C 
ATOM     16  H   UNL     1      49.200   2.004   5.631  0.00  0.00    +0.000 HD
ENDBRANCH  10  12
ENDBRANCH   8  10
ENDBRANCH   1   4
BRANCH   1  17
ATOM     17  C   UNL     1      45.763   6.648  10.970  0.00  0.00    +0.000 C 
BRANCH  17  18
ATOM     18  N   UNL     1      46.966   6.423  11.788  0.00  0.00    +0.000 N 
ATOM     19  H   UNL     1      46.871   5.688  12.484  0.00  0.00    +0.000 HD
BRANCH  18  23
ATOM     20  C   UNL     1      49.233   9.629  13.360  0.00  0.00    +0.000 A 
ATOM     21  C   UNL     1      49.606   9.050  12.152  0.00  0.00    +0.000 A 
ATOM     22  C   UNL     1      48.854   8.000  11.613  0.00  0.00    +0.000 A 
ATOM     23  C   UNL     1      47.696   7.526  12.242  0.00  0.00    +0.000 A 
ATOM     24  C   UNL     1      47.337   8.113  13.459  0.00  0.00    +0.000 A 
ATOM     25  C   UNL     1      48.094   9.154  14.012  0.00  0.00    +0.000 A 
BRANCH  20  27
ATOM     26  C   UNL     1      50.816  10.248  15.015  0.00  0.00    +0.000 C 
ATOM     27  O   UNL     1      49.897  10.637  14.000  0.00  0.00    +0.000 OA
ENDBRANCH  20  27
ENDBRANCH  18  23
ENDBRANCH  17  18
ENDBRANCH   1  17
TORSDOF 7
ENDMDL
MODEL 9
REMARK VINA RESULT:    -6.007      2.768      4.249
REMARK INTER + INTRA:          -9.271
REMARK INTER:                  -8.206
REMARK INTRA:                  -1.064
REMARK UNBOUND:                -0.805
REMARK  Name = 
REMARK  8 active torsions:
REMARK  status: ('A' for Active; 'I' for Inactive)
REMARK    1  A    between atoms: C_1  and  O_2
REMARK    2  A    between atoms: O_2  and  C_3
REMARK    3  A    between atoms: C_6  and  N_7
REMARK    4  A    between atoms: N_7  and  C_8
REMARK    5  A    between atoms: C_8  and  C_9
REMARK    6  A    between atoms: C_9  and  C_12
REMARK    7  A    between atoms: C_16  and  N_17
REMARK    8  A    between atoms: N_17  and  C_18
REMARK                            x       y       z     vdW  Elec       q    Type
REMARK                         _______ _______ _______ _____ _____    ______ ____
ROOT
ATOM      1  C   UNL     1      47.808   7.834  12.525  0.00  0.00    +0.000 C 
ATOM      2  F   UNL     1      48.048   6.614  11.961  0.00  0.00    +0.000 F 
ATOM      3  F   UNL     1      48.491   8.733  11.754  0.00  0.00    +0.000 F 
ENDROOT
BRANCH   1   4
ATOM      4  C   UNL     1      48.221   7.882  13.983  0.00  0.00    +0.000 A 
ATOM      5  C   UNL     1      48.162   9.080  14.704  0.00  0.00    +0.000 A 
ATOM      6  C   UNL     1      48.418   9.081  16.073  0.00  0.00    +0.000 A 
ATOM      7  C   UNL     1      48.743   7.891  16.730  0.00  0.00    +0.000 A 
ATOM      8  C   UNL     1      48.841   6.686  16.030  0.00  0.00    +0.000 A 
ATOM      9  C   UNL     1      48.563   6.696  14.656  0.00  0.00    +0.000 A 
BRANCH   8  10
ATOM     10  N   UNL     1      49.075   5.450  16.668  0.00  0.00    +0.000 N 
ATOM     11  H   UNL     1      49.475   5.579  17.596  0.00  0.00    +0.000 HD
BRANCH  10  12
ATOM     12  C   UNL     1      48.216   4.295  16.616  0.00  0.00    +0.000 C 
ATOM     13  C   UNL     1      47.060   4.349  17.635  0.00  0.00    +0.000 C 
ATOM     14  N   UNL     1      47.440   3.014  18.136  0.00  0.00    +0.000 NA
ATOM     15  C   UNL     1      48.750   3.122  17.466  0.00  0.00    +0.000 C 
ATOM     16  H   UNL     1      46.858   2.262  17.768  0.00  0.00    +0.000 HD
ENDBRANCH  10  12
ENDBRANCH   8  10
ENDBRANCH   1   4
BRANCH   1  17
ATOM     17  C   UNL     1      46.296   8.158  12.433  0.00  0.00    +0.000 C 
BRANCH  17  18
ATOM     18  N   UNL     1      45.429   7.243  13.192  0.00  0.00    +0.000 N 
ATOM     19  H   UNL     1      45.688   7.129  14.169  0.00  0.00    +0.000 HD
BRANCH  18  23
ATOM     20  C   UNL     1      44.274   3.705  11.184  0.00  0.00    +0.000 A 
ATOM     21  C   UNL     1      44.917   3.619  12.414  0.00  0.00    +0.000 A 
ATOM     22  C   UNL     1      45.289   4.783  13.097  0.00  0.00    +0.000 A 
ATOM     23  C   UNL     1      44.999   6.056  12.591  0.00  0.00    +0.000 A 
ATOM     24  C   UNL     1      44.358   6.127  11.350  0.00  0.00    +0.000 A 
ATOM     25  C   UNL     1      43.997   4.966  10.655  0.00  0.00    +0.000 A 
BRANCH  20  27
ATOM     26  C   UNL     1      44.550   2.498   9.160  0.00  0.00    +0.000 C 
ATOM     27  O   UNL     1      43.887   2.647  10.410  0.00  0.00    +0.000 OA
ENDBRANCH  20  27
ENDBRANCH  18  23
ENDBRANCH  17  18
ENDBRANCH   1  17
TORSDOF 7
ENDMDL
