MODEL 1
REMARK VINA RESULT:    -9.421      0.000      0.000
REMARK INTER + INTRA:         -14.534
REMARK INTER:                 -13.276
REMARK INTRA:                  -1.258
REMARK UNBOUND:                -1.258
REMARK  Name = 
REMARK  7 active torsions:
REMARK  status: ('A' for Active; 'I' for Inactive)
REMARK    1  A    between atoms: C_2  and  C_4
REMARK    2  A    between atoms: C_7  and  N_8
REMARK    3  A    between atoms: N_8  and  C_9
REMARK    4  A    between atoms: C_9  and  C_10
REMARK    5  A    between atoms: C_10  and  C_13
REMARK    6  A    between atoms: C_15  and  C_16
REMARK    7  A    between atoms: C_19  and  C_20
REMARK                            x       y       z     vdW  Elec       q    Type
REMARK                         _______ _______ _______ _____ _____    ______ ____
ROOT
ATOM      1  C   UNL     1      43.208   5.432  12.067  0.00  0.00    +0.000 C 
ATOM      2  F   UNL     1      42.482   6.528  11.685  0.00  0.00    +0.000 F 
ATOM      3  F   UNL     1      42.615   5.004  13.227  0.00  0.00    +0.000 F 
ENDROOT
BRANCH   1   4
ATOM      4  C   UNL     1      44.678   5.782  12.284  0.00  0.00    +0.000 A 
ATOM      5  C   UNL     1      45.319   5.295  13.423  0.00  0.00    +0.000 A 
ATOM      6  C   UNL     1      46.672   5.586  13.649  0.00  0.00    +0.000 A 
ATOM      7  C   UNL     1      47.320   6.398  12.711  0.00  0.00    +0.000 A 
ATOM      8  C   UNL     1      46.621   6.847  11.606  0.00  0.00    +0.000 A 
ATOM      9  N   UNL     1      45.328   6.550  11.369  0.00  0.00    +0.000 NA
BRANCH   6  10
ATOM     10  C   UNL     1      47.394   5.064  14.825  0.00  0.00    +0.000 A 
ATOM     11  C   UNL     1      48.218   5.862  15.617  0.00  0.00    +0.000 A 
ATOM     12  C   UNL     1      48.878   5.293  16.705  0.00  0.00    +0.000 A 
ATOM     13  C   UNL     1      48.703   3.940  16.991  0.00  0.00    +0.000 A 
ATOM     14  C   UNL     1      47.855   3.220  16.165  0.00  0.00    +0.000 A 
ATOM     15  N   UNL     1      47.199   3.749  15.104  0.00  0.00    +0.000 NA
BRANCH  13  16
ATOM     16  C   UNL     1      49.385   3.261  18.136  0.00  0.00    +0.000 C 
ATOM     17  F   UNL     1      48.535   2.912  19.142  0.00  0.00    +0.000 F 
ATOM     18  F   UNL     1      50.013   2.114  17.763  0.00  0.00    +0.000 F 
ATOM     19  F   UNL     1      50.341   4.042  18.711  0.00  0.00    +0.000 F 
ENDBRANCH  13  16
ENDBRANCH   6  10
ENDBRANCH   1   4
BRANCH   1  20
ATOM     20  C   UNL     1      43.051   4.322  11.008  0.00  0.00    +0.000 C 
BRANCH  20  21
ATOM     21  N   UNL     1      43.546   4.684   9.664  0.00  0.00    +0.000 N 
ATOM     22  H   UNL     1      42.817   4.955   9.006  0.00  0.00    +0.000 HD
BRANCH  21  26
ATOM     23  C   UNL     1      46.450   2.245   7.810  0.00  0.00    +0.000 A 
ATOM     24  C   UNL     1      46.433   3.614   7.546  0.00  0.00    +0.000 A 
ATOM     25  C   UNL     1      45.489   4.433   8.171  0.00  0.00    +0.000 A 
ATOM     26  C   UNL     1      44.563   3.918   9.088  0.00  0.00    +0.000 A 
ATOM     27  C   UNL     1      44.578   2.536   9.320  0.00  0.00    +0.000 A 
ATOM     28  C   UNL     1      45.509   1.703   8.688  0.00  0.00    +0.000 A 
BRANCH  23  30
ATOM     29  N   UNL     1      48.474   1.935   6.497  0.00  0.00    +0.000 N 
ATOM     30  C   UNL     1      47.421   1.344   7.139  0.00  0.00    +0.000 C 
ATOM     31  O   UNL     1      47.309   0.126   7.179  0.00  0.00    +0.000 OA
ATOM     32  H   UNL     1      49.179   1.316   6.120  0.00  0.00    +0.000 HD
ATOM     33  H   UNL     1      48.731   2.900   6.652  0.00  0.00    +0.000 HD
ENDBRANCH  23  30
ENDBRANCH  21  26
ENDBRANCH  20  21
ENDBRANCH   1  20
TORSDOF 7
ENDMDL
MODEL 2
REMARK VINA RESULT:    -8.518      2.514      3.229
REMARK INTER + INTRA:         -13.262
REMARK INTER:                 -12.071
REMARK INTRA:                  -1.191
REMARK UNBOUND:                -1.258
REMARK  Name = 
REMARK  7 active torsions:
REMARK  status: ('A' for Active; 'I' for Inactive)
REMARK    1  A    between atoms: C_2  and  C_4
REMARK    2  A    between atoms: C_7  and  N_8
REMARK    3  A    between atoms: N_8  and  C_9
REMARK    4  A    between atoms: C_9  and  C_10
REMARK    5  A    between atoms: C_10  and  C_13
REMARK    6  A    between atoms: C_15  and  C_16
REMARK    7  A    between atoms: C_19  and  C_20
REMARK                            x       y       z     vdW  Elec       q    Type
REMARK                         _______ _______ _______ _____ _____    ______ ____
ROOT
ATOM      1  C   UNL     1      43.973   4.531  12.533  0.00  0.00    +0.000 C 
ATOM      2  F   UNL     1      43.142   4.512  13.620  0.00  0.00    +0.000 F 
ATOM      3  F   UNL     1      44.807   3.456  12.710  0.00  0.00    +0.000 F 
ENDROOT
BRANCH   1   4
ATOM      4  C   UNL     1      44.756   5.839  12.449  0.00  0.00    +0.000 A 
ATOM      5  C   UNL     1      45.989   5.923  13.095  0.00  0.00    +0.000 A 
ATOM      6  C   UNL     1      46.741   7.105  13.029  0.00  0.00    +0.000 A 
ATOM      7  C   UNL     1      46.186   8.180  12.325  0.00  0.00    +0.000 A 
ATOM      8  C   UNL     1      44.958   8.027  11.710  0.00  0.00    +0.000 A 
ATOM      9  N   UNL     1      44.242   6.885  11.748  0.00  0.00    +0.000 NA
BRANCH   6  10
ATOM     10  C   UNL     1      48.062   7.223  13.672  0.00  0.00    +0.000 A 
ATOM     11  C   UNL     1      48.344   6.670  14.920  0.00  0.00    +0.000 A 
ATOM     12  C   UNL     1      49.614   6.835  15.470  0.00  0.00    +0.000 A 
ATOM     13  C   UNL     1      50.587   7.544  14.766  0.00  0.00    +0.000 A 
ATOM     14  C   UNL     1      50.231   8.049  13.526  0.00  0.00    +0.000 A 
ATOM     15  N   UNL     1      49.006   7.900  12.968  0.00  0.00    +0.000 NA
BRANCH  13  16
ATOM     16  C   UNL     1      51.966   7.769  15.298  0.00  0.00    +0.000 C 
ATOM     17  F   UNL     1      52.563   6.630  15.749  0.00  0.00    +0.000 F 
ATOM     18  F   UNL     1      52.808   8.285  14.363  0.00  0.00    +0.000 F 
ATOM     19  F   UNL     1      51.987   8.640  16.344  0.00  0.00    +0.000 F 
ENDBRANCH  13  16
ENDBRANCH   6  10
ENDBRANCH   1   4
BRANCH   1  20
ATOM     20  C   UNL     1      43.147   4.294  11.253  0.00  0.00    +0.000 C 
BRANCH  20  21
ATOM     21  N   UNL     1      43.782   4.791  10.015  0.00  0.00    +0.000 N 
ATOM     22  H   UNL     1      43.186   5.394   9.450  0.00  0.00    +0.000 HD
BRANCH  21  26
ATOM     23  C   UNL     1      46.357   2.251   7.840  0.00  0.00    +0.000 A 
ATOM     24  C   UNL     1      45.439   1.697   8.732  0.00  0.00    +0.000 A 
ATOM     25  C   UNL     1      44.568   2.528   9.441  0.00  0.00    +0.000 A 
ATOM     26  C   UNL     1      44.570   3.918   9.261  0.00  0.00    +0.000 A 
ATOM     27  C   UNL     1      45.518   4.458   8.381  0.00  0.00    +0.000 A 
ATOM     28  C   UNL     1      46.406   3.637   7.676  0.00  0.00    +0.000 A 
BRANCH  23  30
ATOM     29  N   UNL     1      48.402   2.019   6.542  0.00  0.00    +0.000 N 
ATOM     30  C   UNL     1      47.316   1.397   7.094  0.00  0.00    +0.000 C 
ATOM     31  O   UNL     1      47.166   0.186   6.999  0.00  0.00    +0.000 OA
ATOM     32  H   UNL     1      49.097   1.422   6.114  0.00  0.00    +0.000 HD
ATOM     33  H   UNL     1      48.684   2.953   6.807  0.00  0.00    +0.000 HD
ENDBRANCH  23  30
ENDBRANCH  21  26
ENDBRANCH  20  21
ENDBRANCH   1  20
TORSDOF 7
ENDMDL
MODEL 3
REMARK VINA RESULT:    -8.248      3.909      8.147
REMARK INTER + INTRA:         -12.882
REMARK INTER:                 -11.859
REMARK INTRA:                  -1.023
REMARK UNBOUND:                -1.258
REMARK  Name = 
REMARK  7 active torsions:
REMARK  status: ('A' for Active; 'I' for Inactive)
REMARK    1  A    between atoms: C_2  and  C_4
REMARK    2  A    between atoms: C_7  and  N_8
REMARK    3  A    between atoms: N_8  and  C_9
REMARK    4  A    between atoms: C_9  and  C_10
REMARK    5  A    between atoms: C_10  and  C_13
REMARK    6  A    between atoms: C_15  and  C_16
REMARK    7  A    between atoms: C_19  and  C_20
REMARK                            x       y       z     vdW  Elec       q    Type
REMARK                         _______ _______ _______ _____ _____    ______ ____
ROOT
ATOM      1  C   UNL     1      45.934   8.196  12.307  0.00  0.00    +0.000 C 
ATOM      2  F   UNL     1      45.600   8.559  13.583  0.00  0.00    +0.000 F 
ATOM      3  F   UNL     1      45.721   9.322  11.553  0.00  0.00    +0.000 F 
ENDROOT
BRANCH   1   4
ATOM      4  C   UNL     1      45.085   7.026  11.816  0.00  0.00    +0.000 A 
ATOM      5  C   UNL     1      45.603   6.194  10.825  0.00  0.00    +0.000 A 
ATOM      6  C   UNL     1      44.856   5.101  10.358  0.00  0.00    +0.000 A 
ATOM      7  C   UNL     1      43.580   4.916  10.905  0.00  0.00    +0.000 A 
ATOM      8  C   UNL     1      43.130   5.782  11.884  0.00  0.00    +0.000 A 
ATOM      9  N   UNL     1      43.853   6.817  12.355  0.00  0.00    +0.000 NA
BRANCH   6  10
ATOM     10  C   UNL     1      45.381   4.181   9.333  0.00  0.00    +0.000 A 
ATOM     11  C   UNL     1      45.203   2.800   9.400  0.00  0.00    +0.000 A 
ATOM     12  C   UNL     1      45.740   1.993   8.399  0.00  0.00    +0.000 A 
ATOM     13  C   UNL     1      46.443   2.573   7.344  0.00  0.00    +0.000 A 
ATOM     14  C   UNL     1      46.562   3.954   7.343  0.00  0.00    +0.000 A 
ATOM     15  N   UNL     1      46.046   4.760   8.301  0.00  0.00    +0.000 NA
BRANCH  13  16
ATOM     16  C   UNL     1      47.054   1.769   6.241  0.00  0.00    +0.000 C 
ATOM     17  F   UNL     1      48.403   1.930   6.140  0.00  0.00    +0.000 F 
ATOM     18  F   UNL     1      46.848   0.433   6.393  0.00  0.00    +0.000 F 
ATOM     19  F   UNL     1      46.548   2.090   5.019  0.00  0.00    +0.000 F 
ENDBRANCH  13  16
ENDBRANCH   6  10
ENDBRANCH   1   4
BRANCH   1  20
ATOM     20  C   UNL     1      47.437   7.855  12.249  0.00  0.00    +0.000 C 
BRANCH  20  21
ATOM     21  N   UNL     1      48.110   7.835  13.564  0.00  0.00    +0.000 N 
ATOM     22  H   UNL     1      49.030   8.273  13.572  0.00  0.00    +0.000 HD
BRANCH  21  26
ATOM     23  C   UNL     1      47.763   4.476  16.096  0.00  0.00    +0.000 A 
ATOM     24  C   UNL     1      47.142   4.462  14.848  0.00  0.00    +0.000 A 
ATOM     25  C   UNL     1      47.268   5.560  13.994  0.00  0.00    +0.000 A 
ATOM     26  C   UNL     1      48.033   6.681  14.347  0.00  0.00    +0.000 A 
ATOM     27  C   UNL     1      48.626   6.688  15.617  0.00  0.00    +0.000 A 
ATOM     28  C   UNL     1      48.494   5.600  16.487  0.00  0.00    +0.000 A 
BRANCH  23  30
ATOM     29  N   UNL     1      48.778   2.760  17.491  0.00  0.00    +0.000 N 
ATOM     30  C   UNL     1      47.623   3.337  17.039  0.00  0.00    +0.000 C 
ATOM     31  O   UNL     1      46.528   2.945  17.422  0.00  0.00    +0.000 OA
ATOM     32  H   UNL     1      48.679   2.046  18.201  0.00  0.00    +0.000 HD
ATOM     33  H   UNL     1      49.679   3.206  17.396  0.00  0.00    +0.000 HD
ENDBRANCH  23  30
ENDBRANCH  21  26
ENDBRANCH  20  21
ENDBRANCH   1  20
TORSDOF 7
ENDMDL
MODEL 4
REMARK VINA RESULT:    -8.242      3.604      4.749
REMARK INTER + INTRA:         -12.873
REMARK INTER:                 -11.754
REMARK INTRA:                  -1.119
REMARK UNBOUND:                -1.258
REMARK  Name = 
REMARK  7 active torsions:
REMARK  status: ('A' for Active; 'I' for Inactive)
REMARK    1  A    between atoms: C_2  and  C_4
REMARK    2  A    between atoms: C_7  and  N_8
REMARK    3  A    between atoms: N_8  and  C_9
REMARK    4  A    between atoms: C_9  and  C_10
REMARK    5  A    between atoms: C_10  and  C_13
REMARK    6  A    between atoms: C_15  and  C_16
REMARK    7  A    between atoms: C_19  and  C_20
REMARK                            x       y       z     vdW  Elec       q    Type
REMARK                         _______ _______ _______ _____ _____    ______ ____
ROOT
ATOM      1  C   UNL     1      44.245   4.909  12.499  0.00  0.00    +0.000 C 
ATOM      2  F   UNL     1      43.184   5.435  13.185  0.00  0.00    +0.000 F 
ATOM      3  F   UNL     1      43.936   3.582  12.338  0.00  0.00    +0.000 F 
ENDROOT
BRANCH   1   4
ATOM      4  C   UNL     1      45.553   5.091  13.265  0.00  0.00    +0.000 A 
ATOM      5  C   UNL     1      46.488   6.005  12.782  0.00  0.00    +0.000 A 
ATOM      6  C   UNL     1      47.696   6.207  13.467  0.00  0.00    +0.000 A 
ATOM      7  C   UNL     1      47.921   5.436  14.613  0.00  0.00    +0.000 A 
ATOM      8  C   UNL     1      46.950   4.546  15.033  0.00  0.00    +0.000 A 
ATOM      9  N   UNL     1      45.776   4.366  14.395  0.00  0.00    +0.000 NA
BRANCH   6  10
ATOM     10  C   UNL     1      48.697   7.187  13.006  0.00  0.00    +0.000 A 
ATOM     11  C   UNL     1      48.633   7.796  11.754  0.00  0.00    +0.000 A 
ATOM     12  C   UNL     1      49.624   8.703  11.384  0.00  0.00    +0.000 A 
ATOM     13  C   UNL     1      50.662   8.995  12.269  0.00  0.00    +0.000 A 
ATOM     14  C   UNL     1      50.644   8.359  13.500  0.00  0.00    +0.000 A 
ATOM     15  N   UNL     1      49.691   7.476  13.885  0.00  0.00    +0.000 NA
BRANCH  13  16
ATOM     16  C   UNL     1      51.763   9.950  11.936  0.00  0.00    +0.000 C 
ATOM     17  F   UNL     1      52.777   9.379  11.226  0.00  0.00    +0.000 F 
ATOM     18  F   UNL     1      51.333  11.003  11.190  0.00  0.00    +0.000 F 
ATOM     19  F   UNL     1      52.341  10.487  13.045  0.00  0.00    +0.000 F 
ENDBRANCH  13  16
ENDBRANCH   6  10
ENDBRANCH   1   4
BRANCH   1  20
ATOM     20  C   UNL     1      44.324   5.558  11.103  0.00  0.00    +0.000 C 
BRANCH  20  21
ATOM     21  N   UNL     1      43.769   4.730  10.012  0.00  0.00    +0.000 N 
ATOM     22  H   UNL     1      42.906   4.245  10.250  0.00  0.00    +0.000 HD
BRANCH  21  26
ATOM     23  C   UNL     1      46.585   2.538   7.757  0.00  0.00    +0.000 A 
ATOM     24  C   UNL     1      45.696   1.861   8.591  0.00  0.00    +0.000 A 
ATOM     25  C   UNL     1      44.747   2.576   9.326  0.00  0.00    +0.000 A 
ATOM     26  C   UNL     1      44.641   3.970   9.228  0.00  0.00    +0.000 A 
ATOM     27  C   UNL     1      45.560   4.636   8.406  0.00  0.00    +0.000 A 
ATOM     28  C   UNL     1      46.526   3.931   7.677  0.00  0.00    +0.000 A 
BRANCH  23  30
ATOM     29  N   UNL     1      48.380   2.545   6.115  0.00  0.00    +0.000 N 
ATOM     30  C   UNL     1      47.625   1.809   6.987  0.00  0.00    +0.000 C 
ATOM     31  O   UNL     1      47.825   0.612   7.142  0.00  0.00    +0.000 OA
ATOM     32  H   UNL     1      49.144   2.062   5.662  0.00  0.00    +0.000 HD
ATOM     33  H   UNL     1      48.412   3.554   6.144  0.00  0.00    +0.000 HD
ENDBRANCH  23  30
ENDBRANCH  21  26
ENDBRANCH  20  21
ENDBRANCH   1  20
TORSDOF 7
ENDMDL
MODEL 5
REMARK VINA RESULT:    -7.588      4.158      5.200
REMARK INTER + INTRA:         -11.951
REMARK INTER:                 -10.390
REMARK INTRA:                  -1.561
REMARK UNBOUND:                -1.258
REMARK  Name = 
REMARK  7 active torsions:
REMARK  status: ('A' for Active; 'I' for Inactive)
REMARK    1  A    between atoms: C_2  and  C_4
REMARK    2  A    between atoms: C_7  and  N_8
REMARK    3  A    between atoms: N_8  and  C_9
REMARK    4  A    between atoms: C_9  and  C_10
REMARK    5  A    between atoms: C_10  and  C_13
REMARK    6  A    between atoms: C_15  and  C_16
REMARK    7  A    between atoms: C_19  and  C_20
REMARK                            x       y       z     vdW  Elec       q    Type
REMARK                         _______ _______ _______ _____ _____    ______ ____
ROOT
ATOM      1  C   UNL     1      45.545   4.495  12.914  0.00  0.00    +0.000 C 
ATOM      2  F   UNL     1      45.450   4.292  14.263  0.00  0.00    +0.000 F 
ATOM      3  F   UNL     1      46.607   3.723  12.516  0.00  0.00    +0.000 F 
ENDROOT
BRANCH   1   4
ATOM      4  C   UNL     1      45.769   5.968  12.582  0.00  0.00    +0.000 A 
ATOM      5  C   UNL     1      47.065   6.401  12.305  0.00  0.00    +0.000 A 
ATOM      6  C   UNL     1      47.306   7.746  11.985  0.00  0.00    +0.000 A 
ATOM      7  C   UNL     1      46.208   8.614  11.991  0.00  0.00    +0.000 A 
ATOM      8  C   UNL     1      44.951   8.116  12.278  0.00  0.00    +0.000 A 
ATOM      9  N   UNL     1      44.709   6.820  12.560  0.00  0.00    +0.000 NA
BRANCH   6  10
ATOM     10  C   UNL     1      48.657   8.237  11.655  0.00  0.00    +0.000 A 
ATOM     11  C   UNL     1      48.950   9.591  11.503  0.00  0.00    +0.000 A 
ATOM     12  C   UNL     1      50.249   9.977  11.178  0.00  0.00    +0.000 A 
ATOM     13  C   UNL     1      51.239   9.009  11.014  0.00  0.00    +0.000 A 
ATOM     14  C   UNL     1      50.869   7.686  11.197  0.00  0.00    +0.000 A 
ATOM     15  N   UNL     1      49.616   7.285  11.517  0.00  0.00    +0.000 NA
BRANCH  13  16
ATOM     16  C   UNL     1      52.650   9.349  10.656  0.00  0.00    +0.000 C 
ATOM     17  F   UNL     1      53.536   9.103  11.662  0.00  0.00    +0.000 F 
ATOM     18  F   UNL     1      53.100   8.646   9.583  0.00  0.00    +0.000 F 
ATOM     19  F   UNL     1      52.805  10.663  10.337  0.00  0.00    +0.000 F 
ENDBRANCH  13  16
ENDBRANCH   6  10
ENDBRANCH   1   4
BRANCH   1  20
ATOM     20  C   UNL     1      44.275   3.957  12.225  0.00  0.00    +0.000 C 
BRANCH  20  21
ATOM     21  N   UNL     1      44.082   4.433  10.840  0.00  0.00    +0.000 N 
ATOM     22  H   UNL     1      43.107   4.502  10.551  0.00  0.00    +0.000 HD
BRANCH  21  26
ATOM     23  C   UNL     1      46.454   2.893   7.707  0.00  0.00    +0.000 A 
ATOM     24  C   UNL     1      46.337   4.274   7.865  0.00  0.00    +0.000 A 
ATOM     25  C   UNL     1      45.571   4.793   8.911  0.00  0.00    +0.000 A 
ATOM     26  C   UNL     1      44.930   3.958   9.836  0.00  0.00    +0.000 A 
ATOM     27  C   UNL     1      45.037   2.573   9.645  0.00  0.00    +0.000 A 
ATOM     28  C   UNL     1      45.789   2.042   8.591  0.00  0.00    +0.000 A 
BRANCH  23  30
ATOM     29  N   UNL     1      47.119   2.918   5.367  0.00  0.00    +0.000 N 
ATOM     30  C   UNL     1      47.237   2.311   6.587  0.00  0.00    +0.000 C 
ATOM     31  O   UNL     1      47.980   1.351   6.746  0.00  0.00    +0.000 OA
ATOM     32  H   UNL     1      47.722   2.574   4.631  0.00  0.00    +0.000 HD
ATOM     33  H   UNL     1      46.722   3.840   5.256  0.00  0.00    +0.000 HD
ENDBRANCH  23  30
ENDBRANCH  21  26
ENDBRANCH  20  21
ENDBRANCH   1  20
TORSDOF 7
ENDMDL
MODEL 6
REMARK VINA RESULT:    -7.146      4.032      8.974
REMARK INTER + INTRA:         -11.328
REMARK INTER:                 -10.069
REMARK INTRA:                  -1.259
REMARK UNBOUND:                -1.258
REMARK  Name = 
REMARK  7 active torsions:
REMARK  status: ('A' for Active; 'I' for Inactive)
REMARK    1  A    between atoms: C_2  and  C_4
REMARK    2  A    between atoms: C_7  and  N_8
REMARK    3  A    between atoms: N_8  and  C_9
REMARK    4  A    between atoms: C_9  and  C_10
REMARK    5  A    between atoms: C_10  and  C_13
REMARK    6  A    between atoms: C_15  and  C_16
REMARK    7  A    between atoms: C_19  and  C_20
REMARK                            x       y       z     vdW  Elec       q    Type
REMARK                         _______ _______ _______ _____ _____    ______ ____
ROOT
ATOM      1  C   UNL     1      48.391   4.657  18.120  0.00  0.00    +0.000 C 
ATOM      2  F   UNL     1      48.059   3.335  17.993  0.00  0.00    +0.000 F 
ATOM      3  F   UNL     1      47.461   5.171  18.989  0.00  0.00    +0.000 F 
ENDROOT
BRANCH   1   4
ATOM      4  C   UNL     1      48.357   5.375  16.774  0.00  0.00    +0.000 A 
ATOM      5  C   UNL     1      47.572   4.843  15.752  0.00  0.00    +0.000 A 
ATOM      6  C   UNL     1      47.507   5.483  14.505  0.00  0.00    +0.000 A 
ATOM      7  C   UNL     1      48.280   6.638  14.336  0.00  0.00    +0.000 A 
ATOM      8  C   UNL     1      49.037   7.109  15.393  0.00  0.00    +0.000 A 
ATOM      9  N   UNL     1      49.083   6.513  16.601  0.00  0.00    +0.000 NA
BRANCH   6  10
ATOM     10  C   UNL     1      46.666   4.968  13.409  0.00  0.00    +0.000 A 
ATOM     11  C   UNL     1      46.237   5.767  12.351  0.00  0.00    +0.000 A 
ATOM     12  C   UNL     1      45.431   5.212  11.359  0.00  0.00    +0.000 A 
ATOM     13  C   UNL     1      45.069   3.867  11.432  0.00  0.00    +0.000 A 
ATOM     14  C   UNL     1      45.550   3.138  12.508  0.00  0.00    +0.000 A 
ATOM     15  N   UNL     1      46.337   3.653  13.483  0.00  0.00    +0.000 NA
BRANCH  13  16
ATOM     16  C   UNL     1      44.201   3.207  10.409  0.00  0.00    +0.000 C 
ATOM     17  F   UNL     1      44.853   2.263   9.675  0.00  0.00    +0.000 F 
ATOM     18  F   UNL     1      43.131   2.576  10.961  0.00  0.00    +0.000 F 
ATOM     19  F   UNL     1      43.691   4.092   9.508  0.00  0.00    +0.000 F 
ENDBRANCH  13  16
ENDBRANCH   6  10
ENDBRANCH   1   4
BRANCH   1  20
ATOM     20  C   UNL     1      49.781   4.774  18.778  0.00  0.00    +0.000 C 
BRANCH  20  21
ATOM     21  N   UNL     1      50.914   4.639  17.840  0.00  0.00    +0.000 N 
ATOM     22  H   UNL     1      50.752   5.051  16.923  0.00  0.00    +0.000 HD
BRANCH  21  26
ATOM     23  C   UNL     1      53.045   0.997  17.944  0.00  0.00    +0.000 A 
ATOM     24  C   UNL     1      51.752   1.021  17.423  0.00  0.00    +0.000 A 
ATOM     25  C   UNL     1      51.045   2.225  17.365  0.00  0.00    +0.000 A 
ATOM     26  C   UNL     1      51.616   3.431  17.795  0.00  0.00    +0.000 A 
ATOM     27  C   UNL     1      52.906   3.382  18.341  0.00  0.00    +0.000 A 
ATOM     28  C   UNL     1      53.617   2.179  18.418  0.00  0.00    +0.000 A 
BRANCH  23  30
ATOM     29  N   UNL     1      54.279  -0.809  16.879  0.00  0.00    +0.000 N 
ATOM     30  C   UNL     1      53.809  -0.273  18.046  0.00  0.00    +0.000 C 
ATOM     31  O   UNL     1      54.039  -0.805  19.124  0.00  0.00    +0.000 OA
ATOM     32  H   UNL     1      54.875  -1.623  16.964  0.00  0.00    +0.000 HD
ATOM     33  H   UNL     1      54.324  -0.282  16.019  0.00  0.00    +0.000 HD
ENDBRANCH  23  30
ENDBRANCH  21  26
ENDBRANCH  20  21
ENDBRANCH   1  20
TORSDOF 7
ENDMDL
MODEL 7
REMARK VINA RESULT:    -7.006      3.985      8.088
REMARK INTER + INTRA:         -11.132
REMARK INTER:                  -9.730
REMARK INTRA:                  -1.401
REMARK UNBOUND:                -1.258
REMARK  Name = 
REMARK  7 active torsions:
REMARK  status: ('A' for Active; 'I' for Inactive)
REMARK    1  A    between atoms: C_2  and  C_4
REMARK    2  A    between atoms: C_7  and  N_8
REMARK    3  A    between atoms: N_8  and  C_9
REMARK    4  A    between atoms: C_9  and  C_10
REMARK    5  A    between atoms: C_10  and  C_13
REMARK    6  A    between atoms: C_15  and  C_16
REMARK    7  A    between atoms: C_19  and  C_20
REMARK                            x       y       z     vdW  Elec       q    Type
REMARK                         _______ _______ _______ _____ _____    ______ ____
ROOT
ATOM      1  C   UNL     1      48.834   9.284  16.093  0.00  0.00    +0.000 C 
ATOM      2  F   UNL     1      47.550   9.238  16.564  0.00  0.00    +0.000 F 
ATOM      3  F   UNL     1      49.117  10.621  15.974  0.00  0.00    +0.000 F 
ENDROOT
BRANCH   1   4
ATOM      4  C   UNL     1      48.967   8.562  14.755  0.00  0.00    +0.000 A 
ATOM      5  C   UNL     1      47.937   7.714  14.348  0.00  0.00    +0.000 A 
ATOM      6  C   UNL     1      48.020   7.043  13.119  0.00  0.00    +0.000 A 
ATOM      7  C   UNL     1      49.177   7.239  12.357  0.00  0.00    +0.000 A 
ATOM      8  C   UNL     1      50.160   8.093  12.823  0.00  0.00    +0.000 A 
ATOM      9  N   UNL     1      50.075   8.761  13.991  0.00  0.00    +0.000 NA
BRANCH   6  10
ATOM     10  C   UNL     1      46.938   6.163  12.639  0.00  0.00    +0.000 A 
ATOM     11  C   UNL     1      46.377   6.284  11.369  0.00  0.00    +0.000 A 
ATOM     12  C   UNL     1      45.348   5.423  10.992  0.00  0.00    +0.000 A 
ATOM     13  C   UNL     1      44.897   4.450  11.883  0.00  0.00    +0.000 A 
ATOM     14  C   UNL     1      45.518   4.386  13.121  0.00  0.00    +0.000 A 
ATOM     15  N   UNL     1      46.521   5.208  13.510  0.00  0.00    +0.000 NA
BRANCH  13  16
ATOM     16  C   UNL     1      43.792   3.499  11.550  0.00  0.00    +0.000 C 
ATOM     17  F   UNL     1      42.587   4.111  11.377  0.00  0.00    +0.000 F 
ATOM     18  F   UNL     1      44.027   2.807  10.404  0.00  0.00    +0.000 F 
ATOM     19  F   UNL     1      43.599   2.564  12.521  0.00  0.00    +0.000 F 
ENDBRANCH  13  16
ENDBRANCH   6  10
ENDBRANCH   1   4
BRANCH   1  20
ATOM     20  C   UNL     1      49.786   8.682  17.146  0.00  0.00    +0.000 C 
BRANCH  20  21
ATOM     21  N   UNL     1      49.154   7.701  18.052  0.00  0.00    +0.000 N 
ATOM     22  H   UNL     1      49.125   7.989  19.029  0.00  0.00    +0.000 HD
BRANCH  21  26
ATOM     23  C   UNL     1      49.913   3.618  17.296  0.00  0.00    +0.000 A 
ATOM     24  C   UNL     1      50.968   4.459  17.647  0.00  0.00    +0.000 A 
ATOM     25  C   UNL     1      50.725   5.808  17.919  0.00  0.00    +0.000 A 
ATOM     26  C   UNL     1      49.430   6.342  17.877  0.00  0.00    +0.000 A 
ATOM     27  C   UNL     1      48.386   5.488  17.496  0.00  0.00    +0.000 A 
ATOM     28  C   UNL     1      48.621   4.139  17.206  0.00  0.00    +0.000 A 
BRANCH  23  30
ATOM     29  N   UNL     1      50.967   1.487  17.810  0.00  0.00    +0.000 N 
ATOM     30  C   UNL     1      50.145   2.188  16.972  0.00  0.00    +0.000 C 
ATOM     31  O   UNL     1      49.604   1.645  16.018  0.00  0.00    +0.000 OA
ATOM     32  H   UNL     1      51.049   0.494  17.637  0.00  0.00    +0.000 HD
ATOM     33  H   UNL     1      51.225   1.827  18.726  0.00  0.00    +0.000 HD
ENDBRANCH  23  30
ENDBRANCH  21  26
ENDBRANCH  20  21
ENDBRANCH   1  20
TORSDOF 7
ENDMDL
MODEL 8
REMARK VINA RESULT:    -6.964      4.582      9.206
REMARK INTER + INTRA:         -11.071
REMARK INTER:                 -10.309
REMARK INTRA:                  -0.763
REMARK UNBOUND:                -1.258
REMARK  Name = 
REMARK  7 active torsions:
REMARK  status: ('A' for Active; 'I' for Inactive)
REMARK    1  A    between atoms: C_2  and  C_4
REMARK    2  A    between atoms: C_7  and  N_8
REMARK    3  A    between atoms: N_8  and  C_9
REMARK    4  A    between atoms: C_9  and  C_10
REMARK    5  A    between atoms: C_10  and  C_13
REMARK    6  A    between atoms: C_15  and  C_16
REMARK    7  A    between atoms: C_19  and  C_20
REMARK                            x       y       z     vdW  Elec       q    Type
REMARK                         _______ _______ _______ _____ _____    ______ ____
ROOT
ATOM      1  C   UNL     1      46.400   7.797  12.852  0.00  0.00    +0.000 C 
ATOM      2  F   UNL     1      45.722   8.761  13.546  0.00  0.00    +0.000 F 
ATOM      3  F   UNL     1      47.120   8.483  11.907  0.00  0.00    +0.000 F 
ENDROOT
BRANCH   1   4
ATOM      4  C   UNL     1      45.447   6.793  12.209  0.00  0.00    +0.000 A 
ATOM      5  C   UNL     1      45.908   6.019  11.145  0.00  0.00    +0.000 A 
ATOM      6  C   UNL     1      45.063   5.078  10.538  0.00  0.00    +0.000 A 
ATOM      7  C   UNL     1      43.754   4.983  11.024  0.00  0.00    +0.000 A 
ATOM      8  C   UNL     1      43.363   5.784  12.081  0.00  0.00    +0.000 A 
ATOM      9  N   UNL     1      44.178   6.671  12.686  0.00  0.00    +0.000 NA
BRANCH   6  10
ATOM     10  C   UNL     1      45.523   4.219   9.431  0.00  0.00    +0.000 A 
ATOM     11  C   UNL     1      45.358   2.835   9.434  0.00  0.00    +0.000 A 
ATOM     12  C   UNL     1      45.832   2.089   8.356  0.00  0.00    +0.000 A 
ATOM     13  C   UNL     1      46.458   2.733   7.290  0.00  0.00    +0.000 A 
ATOM     14  C   UNL     1      46.569   4.112   7.357  0.00  0.00    +0.000 A 
ATOM     15  N   UNL     1      46.114   4.861   8.390  0.00  0.00    +0.000 NA
BRANCH  13  16
ATOM     16  C   UNL     1      46.998   1.996   6.106  0.00  0.00    +0.000 C 
ATOM     17  F   UNL     1      46.430   2.377   4.927  0.00  0.00    +0.000 F 
ATOM     18  F   UNL     1      48.337   2.172   5.948  0.00  0.00    +0.000 F 
ATOM     19  F   UNL     1      46.804   0.651   6.195  0.00  0.00    +0.000 F 
ENDBRANCH  13  16
ENDBRANCH   6  10
ENDBRANCH   1   4
BRANCH   1  20
ATOM     20  C   UNL     1      47.395   7.092  13.796  0.00  0.00    +0.000 C 
BRANCH  20  21
ATOM     21  N   UNL     1      47.969   7.965  14.841  0.00  0.00    +0.000 N 
ATOM     22  H   UNL     1      48.451   8.788  14.483  0.00  0.00    +0.000 HD
BRANCH  21  26
ATOM     23  C   UNL     1      49.715   6.291  18.301  0.00  0.00    +0.000 A 
ATOM     24  C   UNL     1      49.226   5.449  17.302  0.00  0.00    +0.000 A 
ATOM     25  C   UNL     1      48.665   5.993  16.144  0.00  0.00    +0.000 A 
ATOM     26  C   UNL     1      48.603   7.379  15.940  0.00  0.00    +0.000 A 
ATOM     27  C   UNL     1      49.074   8.209  16.966  0.00  0.00    +0.000 A 
ATOM     28  C   UNL     1      49.623   7.675  18.138  0.00  0.00    +0.000 A 
BRANCH  23  30
ATOM     29  N   UNL     1      50.233   4.387  19.723  0.00  0.00    +0.000 N 
ATOM     30  C   UNL     1      50.289   5.743  19.556  0.00  0.00    +0.000 C 
ATOM     31  O   UNL     1      50.818   6.462  20.394  0.00  0.00    +0.000 OA
ATOM     32  H   UNL     1      50.705   4.012  20.535  0.00  0.00    +0.000 HD
ATOM     33  H   UNL     1      50.035   3.755  18.961  0.00  0.00    +0.000 HD
ENDBRANCH  23  30
ENDBRANCH  21  26
ENDBRANCH  20  21
ENDBRANCH   1  20
TORSDOF 7
ENDMDL
MODEL 9
REMARK VINA RESULT:    -6.775      4.813      8.104
REMARK INTER + INTRA:         -10.806
REMARK INTER:                  -9.914
REMARK INTRA:                  -0.892
REMARK UNBOUND:                -1.258
REMARK  Name = 
REMARK  7 active torsions:
REMARK  status: ('A' for Active; 'I' for Inactive)
REMARK    1  A    between atoms: C_2  and  C_4
REMARK    2  A    between atoms: C_7  and  N_8
REMARK    3  A    between atoms: N_8  and  C_9
REMARK    4  A    between atoms: C_9  and  C_10
REMARK    5  A    between atoms: C_10  and  C_13
REMARK    6  A    between atoms: C_15  and  C_16
REMARK    7  A    between atoms: C_19  and  C_20
REMARK                            x       y       z     vdW  Elec       q    Type
REMARK                         _______ _______ _______ _____ _____    ______ ____
ROOT
ATOM      1  C   UNL     1      45.274   8.303  12.227  0.00  0.00    +0.000 C 
ATOM      2  F   UNL     1      45.400   8.517  13.573  0.00  0.00    +0.000 F 
ATOM      3  F   UNL     1      44.451   9.309  11.787  0.00  0.00    +0.000 F 
ENDROOT
BRANCH   1   4
ATOM      4  C   UNL     1      44.684   6.927  11.931  0.00  0.00    +0.000 A 
ATOM      5  C   UNL     1      45.221   6.181  10.883  0.00  0.00    +0.000 A 
ATOM      6  C   UNL     1      44.712   4.907  10.590  0.00  0.00    +0.000 A 
ATOM      7  C   UNL     1      43.640   4.450  11.365  0.00  0.00    +0.000 A 
ATOM      8  C   UNL     1      43.156   5.245  12.387  0.00  0.00    +0.000 A 
ATOM      9  N   UNL     1      43.658   6.458  12.691  0.00  0.00    +0.000 NA
BRANCH   6  10
ATOM     10  C   UNL     1      45.274   4.074   9.510  0.00  0.00    +0.000 A 
ATOM     11  C   UNL     1      45.200   2.683   9.517  0.00  0.00    +0.000 A 
ATOM     12  C   UNL     1      45.767   1.963   8.466  0.00  0.00    +0.000 A 
ATOM     13  C   UNL     1      46.393   2.641   7.421  0.00  0.00    +0.000 A 
ATOM     14  C   UNL     1      46.410   4.025   7.481  0.00  0.00    +0.000 A 
ATOM     15  N   UNL     1      45.864   4.748   8.489  0.00  0.00    +0.000 NA
BRANCH  13  16
ATOM     16  C   UNL     1      47.030   1.935   6.266  0.00  0.00    +0.000 C 
ATOM     17  F   UNL     1      48.384   2.079   6.226  0.00  0.00    +0.000 F 
ATOM     18  F   UNL     1      46.798   0.595   6.282  0.00  0.00    +0.000 F 
ATOM     19  F   UNL     1      46.572   2.381   5.065  0.00  0.00    +0.000 F 
ENDBRANCH  13  16
ENDBRANCH   6  10
ENDBRANCH   1   4
BRANCH   1  20
ATOM     20  C   UNL     1      46.649   8.476  11.551  0.00  0.00    +0.000 C 
BRANCH  20  21
ATOM     21  N   UNL     1      47.783   8.585  12.491  0.00  0.00    +0.000 N 
ATOM     22  H   UNL     1      47.589   9.144  13.321  0.00  0.00    +0.000 HD
BRANCH  21  26
ATOM     23  C   UNL     1      51.608   9.013  10.758  0.00  0.00    +0.000 A 
ATOM     24  C   UNL     1      50.829  10.145  10.990  0.00  0.00    +0.000 A 
ATOM     25  C   UNL     1      49.570  10.017  11.582  0.00  0.00    +0.000 A 
ATOM     26  C   UNL     1      49.071   8.769  11.981  0.00  0.00    +0.000 A 
ATOM     27  C   UNL     1      49.857   7.639  11.715  0.00  0.00    +0.000 A 
ATOM     28  C   UNL     1      51.113   7.755  11.108  0.00  0.00    +0.000 A 
BRANCH  23  30
ATOM     29  N   UNL     1      53.788   8.055  10.261  0.00  0.00    +0.000 N 
ATOM     30  C   UNL     1      52.937   9.114  10.103  0.00  0.00    +0.000 C 
ATOM     31  O   UNL     1      53.253  10.083   9.425  0.00  0.00    +0.000 OA
ATOM     32  H   UNL     1      54.654   8.090   9.739  0.00  0.00    +0.000 HD
ATOM     33  H   UNL     1      53.477   7.154  10.594  0.00  0.00    +0.000 HD
ENDBRANCH  23  30
ENDBRANCH  21  26
ENDBRANCH  20  21
ENDBRANCH   1  20
TORSDOF 7
ENDMDL
