MODEL 1
REMARK VINA RESULT:    -7.682      0.000      0.000
REMARK INTER + INTRA:         -10.760
REMARK INTER:                  -9.927
REMARK INTRA:                  -0.833
REMARK UNBOUND:                -0.833
REMARK  Name = 
REMARK  6 active torsions:
REMARK  status: ('A' for Active; 'I' for Inactive)
REMARK    1  A    between atoms: C_1  and  O_2
REMARK    2  A    between atoms: O_2  and  C_3
REMARK    3  A    between atoms: C_8  and  C_9
REMARK    4  A    between atoms: C_9  and  N_10
REMARK    5  A    between atoms: N_10  and  C_11
REMARK    6  A    between atoms: C_14  and  C_15
REMARK                            x       y       z     vdW  Elec       q    Type
REMARK                         _______ _______ _______ _____ _____    ______ ____
ROOT
ATOM      1  N   UNL     1      43.762   4.876   9.825  0.00  0.00    +0.000 N 
ATOM      2  H   UNL     1      42.897   5.067   9.323  0.00  0.00    +0.000 HD
ENDROOT
BRANCH   1   3
ATOM      3  C   UNL     1      44.562   3.932   9.168  0.00  0.00    +0.000 A 
ATOM      4  C   UNL     1      45.565   4.356   8.286  0.00  0.00    +0.000 A 
ATOM      5  C   UNL     1      46.407   3.430   7.661  0.00  0.00    +0.000 A 
ATOM      6  C   UNL     1      46.245   2.089   7.966  0.00  0.00    +0.000 A 
ATOM      7  N   UNL     1      45.330   1.624   8.857  0.00  0.00    +0.000 NA
ATOM      8  C   UNL     1      44.536   2.559   9.437  0.00  0.00    +0.000 A 
BRANCH   6   9
ATOM      9  C   UNL     1      47.103   1.051   7.309  0.00  0.00    +0.000 C 
ATOM     10  N   UNL     1      46.813  -0.242   7.654  0.00  0.00    +0.000 N 
ATOM     11  O   UNL     1      47.992   1.330   6.511  0.00  0.00    +0.000 OA
ATOM     12  H   UNL     1      46.061  -0.423   8.310  0.00  0.00    +0.000 HD
ATOM     13  H   UNL     1      47.332  -1.003   7.241  0.00  0.00    +0.000 HD
ENDBRANCH   6   9
ENDBRANCH   1   3
BRANCH   1  14
ATOM     14  C   UNL     1      43.507   4.696  11.264  0.00  0.00    +0.000 C 
BRANCH  14  20
ATOM     15  C   UNL     1      45.406   6.238  12.048  0.00  0.00    +0.000 A 
ATOM     16  C   UNL     1      46.591   6.413  12.779  0.00  0.00    +0.000 A 
ATOM     17  C   UNL     1      47.133   5.365  13.523  0.00  0.00    +0.000 A 
ATOM     18  C   UNL     1      46.486   4.137  13.567  0.00  0.00    +0.000 A 
ATOM     19  C   UNL     1      45.314   3.948  12.839  0.00  0.00    +0.000 A 
ATOM     20  C   UNL     1      44.769   4.982  12.053  0.00  0.00    +0.000 A 
BRANCH  15  22
ATOM     21  C   UNL     1      45.063   8.575  11.791  0.00  0.00    +0.000 C 
ATOM     22  O   UNL     1      44.791   7.246  11.353  0.00  0.00    +0.000 OA
ENDBRANCH  15  22
ENDBRANCH  14  20
ENDBRANCH   1  14
TORSDOF 5
ENDMDL
MODEL 2
REMARK VINA RESULT:    -7.309      1.319      2.268
REMARK INTER + INTRA:         -10.279
REMARK INTER:                  -9.620
REMARK INTRA:                  -0.658
REMARK UNBOUND:                -0.833
REMARK  Name = 
REMARK  6 active torsions:
REMARK  status: ('A' for Active; 'I' for Inactive)
REMARK    1  A    between atoms: C_1  and  O_2
REMARK    2  A    between atoms: O_2  and  C_3
REMARK    3  A    between atoms: C_8  and  C_9
REMARK    4  A    between atoms: C_9  and  N_10
REMARK    5  A    between atoms: N_10  and  C_11
REMARK    6  A    between atoms: C_14  and  C_15
REMARK                            x       y       z     vdW  Elec       q    Type
REMARK                         _______ _______ _______ _____ _____    ______ ____
ROOT
ATOM      1  N   UNL     1      43.639   4.727   9.993  0.00  0.00    +0.000 N 
ATOM      2  H   UNL     1      42.674   4.638   9.681  0.00  0.00    +0.000 HD
ENDROOT
BRANCH   1   3
ATOM      3  C   UNL     1      44.512   3.906   9.266  0.00  0.00    +0.000 A 
ATOM      4  C   UNL     1      45.423   4.477   8.368  0.00  0.00    +0.000 A 
ATOM      5  C   UNL     1      46.337   3.677   7.672  0.00  0.00    +0.000 A 
ATOM      6  C   UNL     1      46.339   2.315   7.923  0.00  0.00    +0.000 A 
ATOM      7  N   UNL     1      45.518   1.715   8.825  0.00  0.00    +0.000 NA
ATOM      8  C   UNL     1      44.650   2.530   9.474  0.00  0.00    +0.000 A 
BRANCH   6   9
ATOM      9  C   UNL     1      47.279   1.408   7.190  0.00  0.00    +0.000 C 
ATOM     10  N   UNL     1      48.319   2.038   6.560  0.00  0.00    +0.000 N 
ATOM     11  O   UNL     1      47.142   0.189   7.163  0.00  0.00    +0.000 OA
ATOM     12  H   UNL     1      48.395   3.048   6.621  0.00  0.00    +0.000 HD
ATOM     13  H   UNL     1      49.008   1.497   6.060  0.00  0.00    +0.000 HD
ENDBRANCH   6   9
ENDBRANCH   1   3
BRANCH   1  14
ATOM     14  C   UNL     1      43.722   4.706  11.463  0.00  0.00    +0.000 C 
BRANCH  14  20
ATOM     15  C   UNL     1      45.866   5.324  12.735  0.00  0.00    +0.000 A 
ATOM     16  C   UNL     1      46.772   6.307  13.162  0.00  0.00    +0.000 A 
ATOM     17  C   UNL     1      46.607   7.641  12.790  0.00  0.00    +0.000 A 
ATOM     18  C   UNL     1      45.549   8.007  11.968  0.00  0.00    +0.000 A 
ATOM     19  C   UNL     1      44.638   7.043  11.544  0.00  0.00    +0.000 A 
ATOM     20  C   UNL     1      44.767   5.696  11.937  0.00  0.00    +0.000 A 
BRANCH  15  22
ATOM     21  C   UNL     1      47.033   3.645  13.946  0.00  0.00    +0.000 C 
ATOM     22  O   UNL     1      46.013   3.990  13.012  0.00  0.00    +0.000 OA
ENDBRANCH  15  22
ENDBRANCH  14  20
ENDBRANCH   1  14
TORSDOF 5
ENDMDL
MODEL 3
REMARK VINA RESULT:    -6.554      2.411      6.364
REMARK INTER + INTRA:          -9.303
REMARK INTER:                  -8.827
REMARK INTRA:                  -0.476
REMARK UNBOUND:                -0.833
REMARK  Name = 
REMARK  6 active torsions:
REMARK  status: ('A' for Active; 'I' for Inactive)
REMARK    1  A    between atoms: C_1  and  O_2
REMARK    2  A    between atoms: O_2  and  C_3
REMARK    3  A    between atoms: C_8  and  C_9
REMARK    4  A    between atoms: C_9  and  N_10
REMARK    5  A    between atoms: N_10  and  C_11
REMARK    6  A    between atoms: C_14  and  C_15
REMARK                            x       y       z     vdW  Elec       q    Type
REMARK                         _______ _______ _______ _____ _____    ______ ____
ROOT
ATOM      1  N   UNL     1      44.220   3.683   9.824  0.00  0.00    +0.000 N 
ATOM      2  H   UNL     1      44.170   4.451   9.158  0.00  0.00    +0.000 HD
ENDROOT
BRANCH   1   3
ATOM      3  C   UNL     1      44.968   4.012  10.963  0.00  0.00    +0.000 A 
ATOM      4  C   UNL     1      45.573   5.272  11.062  0.00  0.00    +0.000 A 
ATOM      5  C   UNL     1      46.281   5.636  12.213  0.00  0.00    +0.000 A 
ATOM      6  C   UNL     1      46.334   4.733  13.262  0.00  0.00    +0.000 A 
ATOM      7  N   UNL     1      45.718   3.521  13.244  0.00  0.00    +0.000 NA
ATOM      8  C   UNL     1      45.045   3.213  12.108  0.00  0.00    +0.000 A 
BRANCH   6   9
ATOM      9  C   UNL     1      47.096   5.060  14.509  0.00  0.00    +0.000 C 
ATOM     10  N   UNL     1      46.744   4.329  15.612  0.00  0.00    +0.000 N 
ATOM     11  O   UNL     1      47.982   5.908  14.545  0.00  0.00    +0.000 OA
ATOM     12  H   UNL     1      46.012   3.630  15.529  0.00  0.00    +0.000 HD
ATOM     13  H   UNL     1      47.223   4.474  16.488  0.00  0.00    +0.000 HD
ENDBRANCH   6   9
ENDBRANCH   1   3
BRANCH   1  14
ATOM     14  C   UNL     1      44.511   2.412   9.141  0.00  0.00    +0.000 C 
BRANCH  14  20
ATOM     15  C   UNL     1      46.529   1.514   7.829  0.00  0.00    +0.000 A 
ATOM     16  C   UNL     1      47.626   1.760   6.990  0.00  0.00    +0.000 A 
ATOM     17  C   UNL     1      47.888   3.046   6.515  0.00  0.00    +0.000 A 
ATOM     18  C   UNL     1      47.044   4.096   6.851  0.00  0.00    +0.000 A 
ATOM     19  C   UNL     1      45.956   3.866   7.690  0.00  0.00    +0.000 A 
ATOM     20  C   UNL     1      45.694   2.582   8.209  0.00  0.00    +0.000 A 
BRANCH  15  22
ATOM     21  C   UNL     1      46.483  -0.824   7.402  0.00  0.00    +0.000 C 
ATOM     22  O   UNL     1      46.183   0.264   8.273  0.00  0.00    +0.000 OA
ENDBRANCH  15  22
ENDBRANCH  14  20
ENDBRANCH   1  14
TORSDOF 5
ENDMDL
MODEL 4
REMARK VINA RESULT:    -6.402      3.341      6.363
REMARK INTER + INTRA:          -9.106
REMARK INTER:                  -8.569
REMARK INTRA:                  -0.538
REMARK UNBOUND:                -0.833
REMARK  Name = 
REMARK  6 active torsions:
REMARK  status: ('A' for Active; 'I' for Inactive)
REMARK    1  A    between atoms: C_1  and  O_2
REMARK    2  A    between atoms: O_2  and  C_3
REMARK    3  A    between atoms: C_8  and  C_9
REMARK    4  A    between atoms: C_9  and  N_10
REMARK    5  A    between atoms: N_10  and  C_11
REMARK    6  A    between atoms: C_14  and  C_15
REMARK                            x       y       z     vdW  Elec       q    Type
REMARK                         _______ _______ _______ _____ _____    ______ ____
ROOT
ATOM      1  N   UNL     1      46.334   6.277  11.445  0.00  0.00    +0.000 N 
ATOM      2  H   UNL     1      47.075   6.132  10.763  0.00  0.00    +0.000 HD
ENDROOT
BRANCH   1   3
ATOM      3  C   UNL     1      46.629   5.699  12.687  0.00  0.00    +0.000 A 
ATOM      4  C   UNL     1      47.645   6.240  13.486  0.00  0.00    +0.000 A 
ATOM      5  C   UNL     1      47.919   5.709  14.751  0.00  0.00    +0.000 A 
ATOM      6  C   UNL     1      47.136   4.659  15.203  0.00  0.00    +0.000 A 
ATOM      7  N   UNL     1      46.102   4.132  14.496  0.00  0.00    +0.000 NA
ATOM      8  C   UNL     1      45.875   4.680  13.276  0.00  0.00    +0.000 A 
BRANCH   6   9
ATOM      9  C   UNL     1      47.400   4.035  16.539  0.00  0.00    +0.000 C 
ATOM     10  N   UNL     1      48.590   4.386  17.119  0.00  0.00    +0.000 N 
ATOM     11  O   UNL     1      46.607   3.274  17.086  0.00  0.00    +0.000 OA
ATOM     12  H   UNL     1      49.206   5.028  16.631  0.00  0.00    +0.000 HD
ATOM     13  H   UNL     1      48.834   4.025  18.028  0.00  0.00    +0.000 HD
ENDBRANCH   6   9
ENDBRANCH   1   3
BRANCH   1  14
ATOM     14  C   UNL     1      45.013   6.016  10.849  0.00  0.00    +0.000 C 
BRANCH  14  20
ATOM     15  C   UNL     1      44.313   3.730   9.909  0.00  0.00    +0.000 A 
ATOM     16  C   UNL     1      44.489   2.714   8.958  0.00  0.00    +0.000 A 
ATOM     17  C   UNL     1      45.432   2.846   7.938  0.00  0.00    +0.000 A 
ATOM     18  C   UNL     1      46.193   4.003   7.841  0.00  0.00    +0.000 A 
ATOM     19  C   UNL     1      46.033   5.015   8.784  0.00  0.00    +0.000 A 
ATOM     20  C   UNL     1      45.112   4.888   9.842  0.00  0.00    +0.000 A 
BRANCH  15  22
ATOM     21  C   UNL     1      43.311   2.497  11.677  0.00  0.00    +0.000 C 
ATOM     22  O   UNL     1      43.359   3.687  10.893  0.00  0.00    +0.000 OA
ENDBRANCH  15  22
ENDBRANCH  14  20
ENDBRANCH   1  14
TORSDOF 5
ENDMDL
MODEL 5
REMARK VINA RESULT:    -5.918      3.550      6.474
REMARK INTER + INTRA:          -8.481
REMARK INTER:                  -7.725
REMARK INTRA:                  -0.757
REMARK UNBOUND:                -0.833
REMARK  Name = 
REMARK  6 active torsions:
REMARK  status: ('A' for Active; 'I' for Inactive)
REMARK    1  A    between atoms: C_1  and  O_2
REMARK    2  A    between atoms: O_2  and  C_3
REMARK    3  A    between atoms: C_8  and  C_9
REMARK    4  A    between atoms: C_9  and  N_10
REMARK    5  A    between atoms: N_10  and  C_11
REMARK    6  A    between atoms: C_14  and  C_15
REMARK                            x       y       z     vdW  Elec       q    Type
REMARK                         _______ _______ _______ _____ _____    ______ ____
ROOT
ATOM      1  N   UNL     1      45.614   5.469  12.140  0.00  0.00    +0.000 N 
ATOM      2  H   UNL     1      44.969   5.463  12.927  0.00  0.00    +0.000 HD
ENDROOT
BRANCH   1   3
ATOM      3  C   UNL     1      46.834   6.084  12.454  0.00  0.00    +0.000 A 
ATOM      4  C   UNL     1      47.332   7.108  11.638  0.00  0.00    +0.000 A 
ATOM      5  C   UNL     1      48.522   7.768  11.964  0.00  0.00    +0.000 A 
ATOM      6  C   UNL     1      49.171   7.406  13.133  0.00  0.00    +0.000 A 
ATOM      7  N   UNL     1      48.705   6.461  13.992  0.00  0.00    +0.000 NA
ATOM      8  C   UNL     1      47.549   5.849  13.633  0.00  0.00    +0.000 A 
BRANCH   6   9
ATOM      9  C   UNL     1      50.461   8.062  13.521  0.00  0.00    +0.000 C 
ATOM     10  N   UNL     1      51.485   7.903  12.625  0.00  0.00    +0.000 N 
ATOM     11  O   UNL     1      50.595   8.707  14.556  0.00  0.00    +0.000 OA
ATOM     12  H   UNL     1      51.321   7.369  11.777  0.00  0.00    +0.000 HD
ATOM     13  H   UNL     1      52.381   8.330  12.802  0.00  0.00    +0.000 HD
ENDBRANCH   6   9
ENDBRANCH   1   3
BRANCH   1  14
ATOM     14  C   UNL     1      44.929   5.870  10.900  0.00  0.00    +0.000 C 
BRANCH  14  20
ATOM     15  C   UNL     1      44.255   3.595   9.914  0.00  0.00    +0.000 A 
ATOM     16  C   UNL     1      44.439   2.603   8.940  0.00  0.00    +0.000 A 
ATOM     17  C   UNL     1      45.373   2.771   7.917  0.00  0.00    +0.000 A 
ATOM     18  C   UNL     1      46.117   3.941   7.841  0.00  0.00    +0.000 A 
ATOM     19  C   UNL     1      45.950   4.930   8.807  0.00  0.00    +0.000 A 
ATOM     20  C   UNL     1      45.037   4.766   9.867  0.00  0.00    +0.000 A 
BRANCH  15  22
ATOM     21  C   UNL     1      43.492   2.491  11.875  0.00  0.00    +0.000 C 
ATOM     22  O   UNL     1      43.309   3.517  10.903  0.00  0.00    +0.000 OA
ENDBRANCH  15  22
ENDBRANCH  14  20
ENDBRANCH   1  14
TORSDOF 5
ENDMDL
MODEL 6
REMARK VINA RESULT:    -5.881      2.717      5.919
REMARK INTER + INTRA:          -8.434
REMARK INTER:                  -8.779
REMARK INTRA:                   0.345
REMARK UNBOUND:                -0.833
REMARK  Name = 
REMARK  6 active torsions:
REMARK  status: ('A' for Active; 'I' for Inactive)
REMARK    1  A    between atoms: C_1  and  O_2
REMARK    2  A    between atoms: O_2  and  C_3
REMARK    3  A    between atoms: C_8  and  C_9
REMARK    4  A    between atoms: C_9  and  N_10
REMARK    5  A    between atoms: N_10  and  C_11
REMARK    6  A    between atoms: C_14  and  C_15
REMARK                            x       y       z     vdW  Elec       q    Type
REMARK                         _______ _______ _______ _____ _____    ______ ____
ROOT
ATOM      1  N   UNL     1      44.243   3.683  10.283  0.00  0.00    +0.000 N 
ATOM      2  H   UNL     1      44.407   4.397   9.577  0.00  0.00    +0.000 HD
ENDROOT
BRANCH   1   3
ATOM      3  C   UNL     1      44.956   3.927  11.464  0.00  0.00    +0.000 A 
ATOM      4  C   UNL     1      44.905   5.193  12.063  0.00  0.00    +0.000 A 
ATOM      5  C   UNL     1      45.568   5.440  13.270  0.00  0.00    +0.000 A 
ATOM      6  C   UNL     1      46.244   4.392  13.872  0.00  0.00    +0.000 A 
ATOM      7  N   UNL     1      46.280   3.130  13.367  0.00  0.00    +0.000 NA
ATOM      8  C   UNL     1      45.623   2.939  12.196  0.00  0.00    +0.000 A 
BRANCH   6   9
ATOM      9  C   UNL     1      46.992   4.605  15.152  0.00  0.00    +0.000 C 
ATOM     10  N   UNL     1      47.813   5.701  15.169  0.00  0.00    +0.000 N 
ATOM     11  O   UNL     1      46.874   3.864  16.123  0.00  0.00    +0.000 OA
ATOM     12  H   UNL     1      47.868   6.290  14.344  0.00  0.00    +0.000 HD
ATOM     13  H   UNL     1      48.337   5.927  16.001  0.00  0.00    +0.000 HD
ENDBRANCH   6   9
ENDBRANCH   1   3
BRANCH   1  14
ATOM     14  C   UNL     1      44.308   2.334   9.694  0.00  0.00    +0.000 C 
BRANCH  14  20
ATOM     15  C   UNL     1      45.869   3.414   7.963  0.00  0.00    +0.000 A 
ATOM     16  C   UNL     1      46.868   3.272   6.987  0.00  0.00    +0.000 A 
ATOM     17  C   UNL     1      47.419   2.021   6.707  0.00  0.00    +0.000 A 
ATOM     18  C   UNL     1      46.999   0.902   7.414  0.00  0.00    +0.000 A 
ATOM     19  C   UNL     1      46.003   1.029   8.378  0.00  0.00    +0.000 A 
ATOM     20  C   UNL     1      45.408   2.276   8.653  0.00  0.00    +0.000 A 
BRANCH  15  22
ATOM     21  C   UNL     1      46.258   5.607   8.792  0.00  0.00    +0.000 C 
ATOM     22  O   UNL     1      45.337   4.623   8.328  0.00  0.00    +0.000 OA
ENDBRANCH  15  22
ENDBRANCH  14  20
ENDBRANCH   1  14
TORSDOF 5
ENDMDL
MODEL 7
REMARK VINA RESULT:    -5.754      4.151      6.033
REMARK INTER + INTRA:          -8.269
REMARK INTER:                  -7.564
REMARK INTRA:                  -0.706
REMARK UNBOUND:                -0.833
REMARK  Name = 
REMARK  6 active torsions:
REMARK  status: ('A' for Active; 'I' for Inactive)
REMARK    1  A    between atoms: C_1  and  O_2
REMARK    2  A    between atoms: O_2  and  C_3
REMARK    3  A    between atoms: C_8  and  C_9
REMARK    4  A    between atoms: C_9  and  N_10
REMARK    5  A    between atoms: N_10  and  C_11
REMARK    6  A    between atoms: C_14  and  C_15
REMARK                            x       y       z     vdW  Elec       q    Type
REMARK                         _______ _______ _______ _____ _____    ______ ____
ROOT
ATOM      1  N   UNL     1      47.314   5.189  15.113  0.00  0.00    +0.000 N 
ATOM      2  H   UNL     1      47.246   6.176  15.352  0.00  0.00    +0.000 HD
ENDROOT
BRANCH   1   3
ATOM      3  C   UNL     1      46.563   4.863  13.976  0.00  0.00    +0.000 A 
ATOM      4  C   UNL     1      46.491   3.533  13.543  0.00  0.00    +0.000 A 
ATOM      5  C   UNL     1      45.705   3.181  12.440  0.00  0.00    +0.000 A 
ATOM      6  C   UNL     1      44.973   4.177  11.814  0.00  0.00    +0.000 A 
ATOM      7  N   UNL     1      44.959   5.473  12.225  0.00  0.00    +0.000 NA
ATOM      8  C   UNL     1      45.737   5.765  13.297  0.00  0.00    +0.000 A 
BRANCH   6   9
ATOM      9  C   UNL     1      44.132   3.863  10.615  0.00  0.00    +0.000 C 
ATOM     10  N   UNL     1      43.748   4.950   9.875  0.00  0.00    +0.000 N 
ATOM     11  O   UNL     1      43.818   2.719  10.303  0.00  0.00    +0.000 OA
ATOM     12  H   UNL     1      44.043   5.876  10.168  0.00  0.00    +0.000 HD
ATOM     13  H   UNL     1      43.196   4.823   9.041  0.00  0.00    +0.000 HD
ENDBRANCH   6   9
ENDBRANCH   1   3
BRANCH   1  14
ATOM     14  C   UNL     1      47.171   4.345  16.311  0.00  0.00    +0.000 C 
BRANCH  14  20
ATOM     15  C   UNL     1      49.512   4.744  17.291  0.00  0.00    +0.000 A 
ATOM     16  C   UNL     1      50.762   4.233  17.670  0.00  0.00    +0.000 A 
ATOM     17  C   UNL     1      51.039   2.869  17.560  0.00  0.00    +0.000 A 
ATOM     18  C   UNL     1      50.063   1.998  17.095  0.00  0.00    +0.000 A 
ATOM     19  C   UNL     1      48.821   2.494  16.708  0.00  0.00    +0.000 A 
ATOM     20  C   UNL     1      48.533   3.872  16.777  0.00  0.00    +0.000 A 
BRANCH  15  22
ATOM     21  C   UNL     1      49.270   6.605  18.749  0.00  0.00    +0.000 C 
ATOM     22  O   UNL     1      49.158   6.061  17.437  0.00  0.00    +0.000 OA
ENDBRANCH  15  22
ENDBRANCH  14  20
ENDBRANCH   1  14
TORSDOF 5
ENDMDL
MODEL 8
REMARK VINA RESULT:    -5.752      1.647      2.329
REMARK INTER + INTRA:          -8.267
REMARK INTER:                  -7.502
REMARK INTRA:                  -0.765
REMARK UNBOUND:                -0.833
REMARK  Name = 
REMARK  6 active torsions:
REMARK  status: ('A' for Active; 'I' for Inactive)
REMARK    1  A    between atoms: C_1  and  O_2
REMARK    2  A    between atoms: O_2  and  C_3
REMARK    3  A    between atoms: C_8  and  C_9
REMARK    4  A    between atoms: C_9  and  N_10
REMARK    5  A    between atoms: N_10  and  C_11
REMARK    6  A    between atoms: C_14  and  C_15
REMARK                            x       y       z     vdW  Elec       q    Type
REMARK                         _______ _______ _______ _____ _____    ______ ____
ROOT
ATOM      1  N   UNL     1      44.212   5.673  11.530  0.00  0.00    +0.000 N 
ATOM      2  H   UNL     1      43.216   5.503  11.652  0.00  0.00    +0.000 HD
ENDROOT
BRANCH   1   3
ATOM      3  C   UNL     1      44.765   4.889  10.509  0.00  0.00    +0.000 A 
ATOM      4  C   UNL     1      44.441   3.529  10.417  0.00  0.00    +0.000 A 
ATOM      5  C   UNL     1      44.944   2.743   9.375  0.00  0.00    +0.000 A 
ATOM      6  C   UNL     1      45.738   3.354   8.419  0.00  0.00    +0.000 A 
ATOM      7  N   UNL     1      46.038   4.680   8.424  0.00  0.00    +0.000 NA
ATOM      8  C   UNL     1      45.529   5.400   9.455  0.00  0.00    +0.000 A 
BRANCH   6   9
ATOM      9  C   UNL     1      46.323   2.557   7.293  0.00  0.00    +0.000 C 
ATOM     10  N   UNL     1      46.785   1.316   7.641  0.00  0.00    +0.000 N 
ATOM     11  O   UNL     1      46.376   2.973   6.140  0.00  0.00    +0.000 OA
ATOM     12  H   UNL     1      46.709   1.012   8.607  0.00  0.00    +0.000 HD
ATOM     13  H   UNL     1      47.176   0.707   6.938  0.00  0.00    +0.000 HD
ENDBRANCH   6   9
ENDBRANCH   1   3
BRANCH   1  14
ATOM     14  C   UNL     1      44.903   5.717  12.830  0.00  0.00    +0.000 C 
BRANCH  14  20
ATOM     15  C   UNL     1      46.171   7.910  12.404  0.00  0.00    +0.000 A 
ATOM     16  C   UNL     1      47.391   8.592  12.282  0.00  0.00    +0.000 A 
ATOM     17  C   UNL     1      48.602   7.929  12.482  0.00  0.00    +0.000 A 
ATOM     18  C   UNL     1      48.609   6.585  12.830  0.00  0.00    +0.000 A 
ATOM     19  C   UNL     1      47.405   5.895  12.946  0.00  0.00    +0.000 A 
ATOM     20  C   UNL     1      46.172   6.537  12.715  0.00  0.00    +0.000 A 
BRANCH  15  22
ATOM     21  C   UNL     1      44.958   9.875  11.842  0.00  0.00    +0.000 C 
ATOM     22  O   UNL     1      44.949   8.521  12.285  0.00  0.00    +0.000 OA
ENDBRANCH  15  22
ENDBRANCH  14  20
ENDBRANCH   1  14
TORSDOF 5
ENDMDL
MODEL 9
REMARK VINA RESULT:    -5.459      3.528      5.445
REMARK INTER + INTRA:          -7.887
REMARK INTER:                  -7.273
REMARK INTRA:                  -0.614
REMARK UNBOUND:                -0.833
REMARK  Name = 
REMARK  6 active torsions:
REMARK  status: ('A' for Active; 'I' for Inactive)
REMARK    1  A    between atoms: C_1  and  O_2
REMARK    2  A    between atoms: O_2  and  C_3
REMARK    3  A    between atoms: C_8  and  C_9
REMARK    4  A    between atoms: C_9  and  N_10
REMARK    5  A    between atoms: N_10  and  C_11
REMARK    6  A    between atoms: C_14  and  C_15
REMARK                            x       y       z     vdW  Elec       q    Type
REMARK                         _______ _______ _______ _____ _____    ______ ____
ROOT
ATOM      1  N   UNL     1      46.984   6.969  13.879  0.00  0.00    +0.000 N 
ATOM      2  H   UNL     1      46.497   7.043  14.769  0.00  0.00    +0.000 HD
ENDROOT
BRANCH   1   3
ATOM      3  C   UNL     1      46.267   6.220  12.938  0.00  0.00    +0.000 A 
ATOM      4  C   UNL     1      46.293   6.585  11.586  0.00  0.00    +0.000 A 
ATOM      5  C   UNL     1      45.624   5.819  10.625  0.00  0.00    +0.000 A 
ATOM      6  C   UNL     1      44.969   4.673  11.042  0.00  0.00    +0.000 A 
ATOM      7  N   UNL     1      44.958   4.238  12.331  0.00  0.00    +0.000 NA
ATOM      8  C   UNL     1      45.619   5.014  13.225  0.00  0.00    +0.000 A 
BRANCH   6   9
ATOM      9  C   UNL     1      44.216   3.826  10.061  0.00  0.00    +0.000 C 
ATOM     10  N   UNL     1      44.113   4.353   8.801  0.00  0.00    +0.000 N 
ATOM     11  O   UNL     1      43.737   2.735  10.353  0.00  0.00    +0.000 OA
ATOM     12  H   UNL     1      44.536   5.255   8.606  0.00  0.00    +0.000 HD
ATOM     13  H   UNL     1      43.639   3.837   8.076  0.00  0.00    +0.000 HD
ENDBRANCH   6   9
ENDBRANCH   1   3
BRANCH   1  14
ATOM     14  C   UNL     1      48.409   6.655  14.084  0.00  0.00    +0.000 C 
BRANCH  14  20
ATOM     15  C   UNL     1      48.436   5.508  16.382  0.00  0.00    +0.000 A 
ATOM     16  C   UNL     1      48.728   5.566  17.753  0.00  0.00    +0.000 A 
ATOM     17  C   UNL     1      49.315   6.702  18.312  0.00  0.00    +0.000 A 
ATOM     18  C   UNL     1      49.640   7.783  17.505  0.00  0.00    +0.000 A 
ATOM     19  C   UNL     1      49.348   7.742  16.144  0.00  0.00    +0.000 A 
ATOM     20  C   UNL     1      48.724   6.619  15.566  0.00  0.00    +0.000 A 
BRANCH  15  22
ATOM     21  C   UNL     1      47.897   3.199  16.536  0.00  0.00    +0.000 C 
ATOM     22  O   UNL     1      47.922   4.398  15.765  0.00  0.00    +0.000 OA
ENDBRANCH  15  22
ENDBRANCH  14  20
ENDBRANCH   1  14
TORSDOF 5
ENDMDL
