MODEL 1
REMARK VINA RESULT:    -8.415      0.000      0.000
REMARK INTER + INTRA:         -11.340
REMARK INTER:                 -10.875
REMARK INTRA:                  -0.465
REMARK UNBOUND:                -0.465
REMARK  Name = 
REMARK  5 active torsions:
REMARK  status: ('A' for Active; 'I' for Inactive)
REMARK    1  A    between atoms: C_2  and  C_3
REMARK    2  A    between atoms: C_8  and  O_9
REMARK    3  A    between atoms: O_9  and  C_10
REMARK    4  A    between atoms: C_10  and  C_11
REMARK    5  A    between atoms: C_16  and  C_17
REMARK                            x       y       z     vdW  Elec       q    Type
REMARK                         _______ _______ _______ _____ _____    ______ ____
ROOT
ATOM      1  C   UNL     1      43.704   5.125  10.878  0.00  0.00    +0.000 A 
ATOM      2  C   UNL     1      43.184   4.194  11.779  0.00  0.00    +0.000 A 
ATOM      3  C   UNL     1      43.438   2.843  11.604  0.00  0.00    +0.000 A 
ATOM      4  F   UNL     1      42.917   1.956  12.461  0.00  0.00    +0.000 F 
ATOM      5  C   UNL     1      44.218   2.390  10.548  0.00  0.00    +0.000 A 
ATOM      6  C   UNL     1      44.764   3.290   9.620  0.00  0.00    +0.000 A 
ATOM      7  C   UNL     1      44.491   4.662   9.808  0.00  0.00    +0.000 A 
ENDROOT
BRANCH   6   8
ATOM      8  C   UNL     1      45.592   2.817   8.490  0.00  0.00    +0.000 A 
ATOM      9  C   UNL     1      46.002   3.692   7.465  0.00  0.00    +0.000 A 
ATOM     10  C   UNL     1      46.777   3.247   6.388  0.00  0.00    +0.000 A 
ATOM     11  C   UNL     1      47.165   1.915   6.321  0.00  0.00    +0.000 A 
ATOM     12  C   UNL     1      46.773   1.041   7.327  0.00  0.00    +0.000 A 
ATOM     13  F   UNL     1      47.147  -0.245   7.267  0.00  0.00    +0.000 F 
ATOM     14  C   UNL     1      45.996   1.475   8.394  0.00  0.00    +0.000 A 
ENDBRANCH   6   8
BRANCH   1  15
ATOM     15  C   UNL     1      43.390   6.591  11.030  0.00  0.00    +0.000 C 
BRANCH  15  16
ATOM     16  O   UNL     1      43.996   7.122  12.210  0.00  0.00    +0.000 OA
BRANCH  16  22
ATOM     17  C   UNL     1      46.939   5.339  13.632  0.00  0.00    +0.000 A 
ATOM     18  C   UNL     1      47.960   6.027  12.980  0.00  0.00    +0.000 A 
ATOM     19  C   UNL     1      47.625   7.025  12.073  0.00  0.00    +0.000 A 
ATOM     20  F   UNL     1      48.605   7.688  11.443  0.00  0.00    +0.000 F 
ATOM     21  C   UNL     1      46.296   7.363  11.825  0.00  0.00    +0.000 A 
ATOM     22  C   UNL     1      45.269   6.683  12.481  0.00  0.00    +0.000 A 
ATOM     23  C   UNL     1      45.598   5.647  13.363  0.00  0.00    +0.000 A 
BRANCH  17  25
ATOM     24  N   UNL     1      47.541   3.548  15.405  0.00  0.00    +0.000 NA
ATOM     25  C   UNL     1      47.253   4.350  14.623  0.00  0.00    +0.000 C 
ENDBRANCH  17  25
ENDBRANCH  16  22
ENDBRANCH  15  16
ENDBRANCH   1  15
TORSDOF 5
ENDMDL
MODEL 2
REMARK VINA RESULT:    -8.396      1.962      2.522
REMARK INTER + INTRA:         -11.316
REMARK INTER:                 -10.443
REMARK INTRA:                  -0.873
REMARK UNBOUND:                -0.465
REMARK  Name = 
REMARK  5 active torsions:
REMARK  status: ('A' for Active; 'I' for Inactive)
REMARK    1  A    between atoms: C_2  and  C_3
REMARK    2  A    between atoms: C_8  and  O_9
REMARK    3  A    between atoms: O_9  and  C_10
REMARK    4  A    between atoms: C_10  and  C_11
REMARK    5  A    between atoms: C_16  and  C_17
REMARK                            x       y       z     vdW  Elec       q    Type
REMARK                         _______ _______ _______ _____ _____    ______ ____
ROOT
ATOM      1  C   UNL     1      45.384   6.246  11.563  0.00  0.00    +0.000 A 
ATOM      2  C   UNL     1      44.025   6.166  11.870  0.00  0.00    +0.000 A 
ATOM      3  C   UNL     1      43.209   5.284  11.178  0.00  0.00    +0.000 A 
ATOM      4  F   UNL     1      41.902   5.230  11.464  0.00  0.00    +0.000 F 
ATOM      5  C   UNL     1      43.722   4.460  10.184  0.00  0.00    +0.000 A 
ATOM      6  C   UNL     1      45.083   4.505   9.846  0.00  0.00    +0.000 A 
ATOM      7  C   UNL     1      45.899   5.412  10.555  0.00  0.00    +0.000 A 
ENDROOT
BRANCH   6   8
ATOM      8  C   UNL     1      45.637   3.635   8.786  0.00  0.00    +0.000 A 
ATOM      9  C   UNL     1      46.166   4.175   7.597  0.00  0.00    +0.000 A 
ATOM     10  C   UNL     1      46.682   3.355   6.587  0.00  0.00    +0.000 A 
ATOM     11  C   UNL     1      46.688   1.977   6.753  0.00  0.00    +0.000 A 
ATOM     12  C   UNL     1      46.176   1.430   7.922  0.00  0.00    +0.000 A 
ATOM     13  F   UNL     1      46.181   0.100   8.087  0.00  0.00    +0.000 F 
ATOM     14  C   UNL     1      45.654   2.238   8.925  0.00  0.00    +0.000 A 
ENDBRANCH   6   8
BRANCH   1  15
ATOM     15  C   UNL     1      46.268   7.238  12.274  0.00  0.00    +0.000 C 
BRANCH  15  16
ATOM     16  O   UNL     1      47.587   6.714  12.447  0.00  0.00    +0.000 OA
BRANCH  16  22
ATOM     17  C   UNL     1      47.804   5.121  15.804  0.00  0.00    +0.000 A 
ATOM     18  C   UNL     1      48.714   5.985  16.409  0.00  0.00    +0.000 A 
ATOM     19  C   UNL     1      49.239   7.035  15.666  0.00  0.00    +0.000 A 
ATOM     20  F   UNL     1      50.115   7.868  16.244  0.00  0.00    +0.000 F 
ATOM     21  C   UNL     1      48.856   7.250  14.343  0.00  0.00    +0.000 A 
ATOM     22  C   UNL     1      47.940   6.390  13.733  0.00  0.00    +0.000 A 
ATOM     23  C   UNL     1      47.440   5.306  14.463  0.00  0.00    +0.000 A 
BRANCH  17  25
ATOM     24  N   UNL     1      46.676   3.247  17.194  0.00  0.00    +0.000 NA
ATOM     25  C   UNL     1      47.193   4.068  16.565  0.00  0.00    +0.000 C 
ENDBRANCH  17  25
ENDBRANCH  16  22
ENDBRANCH  15  16
ENDBRANCH   1  15
TORSDOF 5
ENDMDL
MODEL 3
REMARK VINA RESULT:    -8.169      1.991      2.568
REMARK INTER + INTRA:         -11.022
REMARK INTER:                 -10.021
REMARK INTRA:                  -1.001
REMARK UNBOUND:                -0.465
REMARK  Name = 
REMARK  5 active torsions:
REMARK  status: ('A' for Active; 'I' for Inactive)
REMARK    1  A    between atoms: C_2  and  C_3
REMARK    2  A    between atoms: C_8  and  O_9
REMARK    3  A    between atoms: O_9  and  C_10
REMARK    4  A    between atoms: C_10  and  C_11
REMARK    5  A    between atoms: C_16  and  C_17
REMARK                            x       y       z     vdW  Elec       q    Type
REMARK                         _______ _______ _______ _____ _____    ______ ____
ROOT
ATOM      1  C   UNL     1      44.002   4.914  10.742  0.00  0.00    +0.000 A 
ATOM      2  C   UNL     1      43.335   3.952  11.502  0.00  0.00    +0.000 A 
ATOM      3  C   UNL     1      43.455   2.609  11.181  0.00  0.00    +0.000 A 
ATOM      4  F   UNL     1      42.795   1.695  11.903  0.00  0.00    +0.000 F 
ATOM      5  C   UNL     1      44.244   2.193  10.116  0.00  0.00    +0.000 A 
ATOM      6  C   UNL     1      44.935   3.125   9.327  0.00  0.00    +0.000 A 
ATOM      7  C   UNL     1      44.797   4.489   9.662  0.00  0.00    +0.000 A 
ENDROOT
BRANCH   6   8
ATOM      8  C   UNL     1      45.772   2.692   8.188  0.00  0.00    +0.000 A 
ATOM      9  C   UNL     1      46.394   1.427   8.174  0.00  0.00    +0.000 A 
ATOM     10  C   UNL     1      47.195   1.017   7.103  0.00  0.00    +0.000 A 
ATOM     11  C   UNL     1      47.384   1.863   6.018  0.00  0.00    +0.000 A 
ATOM     12  C   UNL     1      46.774   3.111   6.014  0.00  0.00    +0.000 A 
ATOM     13  F   UNL     1      46.951   3.930   4.969  0.00  0.00    +0.000 F 
ATOM     14  C   UNL     1      45.983   3.527   7.079  0.00  0.00    +0.000 A 
ENDBRANCH   6   8
BRANCH   1  15
ATOM     15  C   UNL     1      43.836   6.379  11.051  0.00  0.00    +0.000 C 
BRANCH  15  16
ATOM     16  O   UNL     1      44.166   6.654  12.414  0.00  0.00    +0.000 OA
BRANCH  16  22
ATOM     17  C   UNL     1      47.850   7.166  12.577  0.00  0.00    +0.000 A 
ATOM     18  C   UNL     1      48.186   6.128  13.442  0.00  0.00    +0.000 A 
ATOM     19  C   UNL     1      47.175   5.328  13.959  0.00  0.00    +0.000 A 
ATOM     20  F   UNL     1      47.495   4.329  14.792  0.00  0.00    +0.000 F 
ATOM     21  C   UNL     1      45.841   5.531  13.610  0.00  0.00    +0.000 A 
ATOM     22  C   UNL     1      45.497   6.566  12.738  0.00  0.00    +0.000 A 
ATOM     23  C   UNL     1      46.508   7.402  12.248  0.00  0.00    +0.000 A 
BRANCH  17  25
ATOM     24  N   UNL     1      49.685   8.612  11.456  0.00  0.00    +0.000 NA
ATOM     25  C   UNL     1      48.878   7.965  11.974  0.00  0.00    +0.000 C 
ENDBRANCH  17  25
ENDBRANCH  16  22
ENDBRANCH  15  16
ENDBRANCH   1  15
TORSDOF 5
ENDMDL
MODEL 4
REMARK VINA RESULT:    -8.137      1.351      1.509
REMARK INTER + INTRA:         -10.980
REMARK INTER:                 -10.008
REMARK INTRA:                  -0.972
REMARK UNBOUND:                -0.465
REMARK  Name = 
REMARK  5 active torsions:
REMARK  status: ('A' for Active; 'I' for Inactive)
REMARK    1  A    between atoms: C_2  and  C_3
REMARK    2  A    between atoms: C_8  and  O_9
REMARK    3  A    between atoms: O_9  and  C_10
REMARK    4  A    between atoms: C_10  and  C_11
REMARK    5  A    between atoms: C_16  and  C_17
REMARK                            x       y       z     vdW  Elec       q    Type
REMARK                         _______ _______ _______ _____ _____    ______ ____
ROOT
ATOM      1  C   UNL     1      44.682   5.569  10.969  0.00  0.00    +0.000 A 
ATOM      2  C   UNL     1      43.779   4.807  11.713  0.00  0.00    +0.000 A 
ATOM      3  C   UNL     1      43.544   3.484  11.373  0.00  0.00    +0.000 A 
ATOM      4  F   UNL     1      42.660   2.767  12.079  0.00  0.00    +0.000 F 
ATOM      5  C   UNL     1      44.204   2.888  10.306  0.00  0.00    +0.000 A 
ATOM      6  C   UNL     1      45.123   3.615   9.534  0.00  0.00    +0.000 A 
ATOM      7  C   UNL     1      45.346   4.963   9.887  0.00  0.00    +0.000 A 
ENDROOT
BRANCH   6   8
ATOM      8  C   UNL     1      45.827   2.991   8.393  0.00  0.00    +0.000 A 
ATOM      9  C   UNL     1      46.278   3.759   7.301  0.00  0.00    +0.000 A 
ATOM     10  C   UNL     1      46.936   3.172   6.215  0.00  0.00    +0.000 A 
ATOM     11  C   UNL     1      47.164   1.802   6.205  0.00  0.00    +0.000 A 
ATOM     12  C   UNL     1      46.731   1.032   7.276  0.00  0.00    +0.000 A 
ATOM     13  F   UNL     1      46.950  -0.290   7.271  0.00  0.00    +0.000 F 
ATOM     14  C   UNL     1      46.069   1.608   8.354  0.00  0.00    +0.000 A 
ENDBRANCH   6   8
BRANCH   1  15
ATOM     15  C   UNL     1      44.905   7.022  11.298  0.00  0.00    +0.000 C 
BRANCH  15  16
ATOM     16  O   UNL     1      45.331   7.179  12.653  0.00  0.00    +0.000 OA
BRANCH  16  22
ATOM     17  C   UNL     1      48.754   6.961  14.102  0.00  0.00    +0.000 A 
ATOM     18  C   UNL     1      49.465   7.631  13.109  0.00  0.00    +0.000 A 
ATOM     19  C   UNL     1      48.784   8.093  11.990  0.00  0.00    +0.000 A 
ATOM     20  F   UNL     1      49.465   8.738  11.033  0.00  0.00    +0.000 F 
ATOM     21  C   UNL     1      47.407   7.920  11.856  0.00  0.00    +0.000 A 
ATOM     22  C   UNL     1      46.688   7.255  12.851  0.00  0.00    +0.000 A 
ATOM     23  C   UNL     1      47.375   6.748  13.960  0.00  0.00    +0.000 A 
BRANCH  17  25
ATOM     24  N   UNL     1      49.946   6.148  16.254  0.00  0.00    +0.000 NA
ATOM     25  C   UNL     1      49.417   6.531  15.300  0.00  0.00    +0.000 C 
ENDBRANCH  17  25
ENDBRANCH  16  22
ENDBRANCH  15  16
ENDBRANCH   1  15
TORSDOF 5
ENDMDL
MODEL 5
REMARK VINA RESULT:    -8.110      2.931      3.889
REMARK INTER + INTRA:         -10.946
REMARK INTER:                 -10.272
REMARK INTRA:                  -0.674
REMARK UNBOUND:                -0.465
REMARK  Name = 
REMARK  5 active torsions:
REMARK  status: ('A' for Active; 'I' for Inactive)
REMARK    1  A    between atoms: C_2  and  C_3
REMARK    2  A    between atoms: C_8  and  O_9
REMARK    3  A    between atoms: O_9  and  C_10
REMARK    4  A    between atoms: C_10  and  C_11
REMARK    5  A    between atoms: C_16  and  C_17
REMARK                            x       y       z     vdW  Elec       q    Type
REMARK                         _______ _______ _______ _____ _____    ______ ____
ROOT
ATOM      1  C   UNL     1      45.119   4.751  12.933  0.00  0.00    +0.000 A 
ATOM      2  C   UNL     1      43.815   5.248  12.925  0.00  0.00    +0.000 A 
ATOM      3  C   UNL     1      43.058   5.190  11.765  0.00  0.00    +0.000 A 
ATOM      4  F   UNL     1      41.816   5.690  11.761  0.00  0.00    +0.000 F 
ATOM      5  C   UNL     1      43.570   4.631  10.601  0.00  0.00    +0.000 A 
ATOM      6  C   UNL     1      44.875   4.116  10.565  0.00  0.00    +0.000 A 
ATOM      7  C   UNL     1      45.635   4.188  11.752  0.00  0.00    +0.000 A 
ENDROOT
BRANCH   6   8
ATOM      8  C   UNL     1      45.430   3.523   9.329  0.00  0.00    +0.000 A 
ATOM      9  C   UNL     1      45.825   4.329   8.243  0.00  0.00    +0.000 A 
ATOM     10  C   UNL     1      46.341   3.772   7.068  0.00  0.00    +0.000 A 
ATOM     11  C   UNL     1      46.481   2.395   6.960  0.00  0.00    +0.000 A 
ATOM     12  C   UNL     1      46.101   1.587   8.024  0.00  0.00    +0.000 A 
ATOM     13  F   UNL     1      46.236   0.257   7.926  0.00  0.00    +0.000 F 
ATOM     14  C   UNL     1      45.579   2.134   9.191  0.00  0.00    +0.000 A 
ENDBRANCH   6   8
BRANCH   1  15
ATOM     15  C   UNL     1      45.967   4.856  14.175  0.00  0.00    +0.000 C 
BRANCH  15  16
ATOM     16  O   UNL     1      46.661   3.632  14.423  0.00  0.00    +0.000 OA
BRANCH  16  22
ATOM     17  C   UNL     1      49.167   2.758  17.034  0.00  0.00    +0.000 A 
ATOM     18  C   UNL     1      48.704   3.562  18.073  0.00  0.00    +0.000 A 
ATOM     19  C   UNL     1      47.604   4.381  17.850  0.00  0.00    +0.000 A 
ATOM     20  F   UNL     1      47.156   5.155  18.848  0.00  0.00    +0.000 F 
ATOM     21  C   UNL     1      46.948   4.395  16.621  0.00  0.00    +0.000 A 
ATOM     22  C   UNL     1      47.404   3.587  15.577  0.00  0.00    +0.000 A 
ATOM     23  C   UNL     1      48.537   2.792  15.782  0.00  0.00    +0.000 A 
BRANCH  17  25
ATOM     24  N   UNL     1      51.159   1.151  17.439  0.00  0.00    +0.000 NA
ATOM     25  C   UNL     1      50.258   1.851  17.254  0.00  0.00    +0.000 C 
ENDBRANCH  17  25
ENDBRANCH  16  22
ENDBRANCH  15  16
ENDBRANCH   1  15
TORSDOF 5
ENDMDL
MODEL 6
REMARK VINA RESULT:    -8.099      2.047      2.489
REMARK INTER + INTRA:         -10.932
REMARK INTER:                 -10.038
REMARK INTRA:                  -0.894
REMARK UNBOUND:                -0.465
REMARK  Name = 
REMARK  5 active torsions:
REMARK  status: ('A' for Active; 'I' for Inactive)
REMARK    1  A    between atoms: C_2  and  C_3
REMARK    2  A    between atoms: C_8  and  O_9
REMARK    3  A    between atoms: O_9  and  C_10
REMARK    4  A    between atoms: C_10  and  C_11
REMARK    5  A    between atoms: C_16  and  C_17
REMARK                            x       y       z     vdW  Elec       q    Type
REMARK                         _______ _______ _______ _____ _____    ______ ____
ROOT
ATOM      1  C   UNL     1      44.311   5.274  11.279  0.00  0.00    +0.000 A 
ATOM      2  C   UNL     1      43.648   4.345  12.083  0.00  0.00    +0.000 A 
ATOM      3  C   UNL     1      43.648   3.003  11.737  0.00  0.00    +0.000 A 
ATOM      4  F   UNL     1      42.990   2.123  12.502  0.00  0.00    +0.000 F 
ATOM      5  C   UNL     1      44.313   2.554  10.603  0.00  0.00    +0.000 A 
ATOM      6  C   UNL     1      44.996   3.452   9.768  0.00  0.00    +0.000 A 
ATOM      7  C   UNL     1      44.980   4.816  10.130  0.00  0.00    +0.000 A 
ENDROOT
BRANCH   6   8
ATOM      8  C   UNL     1      45.702   2.984   8.556  0.00  0.00    +0.000 A 
ATOM      9  C   UNL     1      46.085   3.880   7.538  0.00  0.00    +0.000 A 
ATOM     10  C   UNL     1      46.744   3.441   6.385  0.00  0.00    +0.000 A 
ATOM     11  C   UNL     1      47.043   2.093   6.233  0.00  0.00    +0.000 A 
ATOM     12  C   UNL     1      46.678   1.198   7.229  0.00  0.00    +0.000 A 
ATOM     13  F   UNL     1      46.966  -0.103   7.087  0.00  0.00    +0.000 F 
ATOM     14  C   UNL     1      46.015   1.627   8.373  0.00  0.00    +0.000 A 
ENDBRANCH   6   8
BRANCH   1  15
ATOM     15  C   UNL     1      44.273   6.741  11.619  0.00  0.00    +0.000 C 
BRANCH  15  16
ATOM     16  O   UNL     1      45.188   7.045  12.673  0.00  0.00    +0.000 OA
BRANCH  16  22
ATOM     17  C   UNL     1      48.521   8.408  11.731  0.00  0.00    +0.000 A 
ATOM     18  C   UNL     1      48.247   9.771  11.831  0.00  0.00    +0.000 A 
ATOM     19  C   UNL     1      46.963  10.175  12.172  0.00  0.00    +0.000 A 
ATOM     20  F   UNL     1      46.696  11.484  12.270  0.00  0.00    +0.000 F 
ATOM     21  C   UNL     1      45.957   9.247  12.437  0.00  0.00    +0.000 A 
ATOM     22  C   UNL     1      46.227   7.880  12.344  0.00  0.00    +0.000 A 
ATOM     23  C   UNL     1      47.507   7.467  11.958  0.00  0.00    +0.000 A 
BRANCH  17  25
ATOM     24  N   UNL     1      50.916   7.560  11.221  0.00  0.00    +0.000 NA
ATOM     25  C   UNL     1      49.854   7.959  11.446  0.00  0.00    +0.000 C 
ENDBRANCH  17  25
ENDBRANCH  16  22
ENDBRANCH  15  16
ENDBRANCH   1  15
TORSDOF 5
ENDMDL
MODEL 7
REMARK VINA RESULT:    -7.898      2.336      3.026
REMARK INTER + INTRA:         -10.672
REMARK INTER:                 -10.065
REMARK INTRA:                  -0.607
REMARK UNBOUND:                -0.465
REMARK  Name = 
REMARK  5 active torsions:
REMARK  status: ('A' for Active; 'I' for Inactive)
REMARK    1  A    between atoms: C_2  and  C_3
REMARK    2  A    between atoms: C_8  and  O_9
REMARK    3  A    between atoms: O_9  and  C_10
REMARK    4  A    between atoms: C_10  and  C_11
REMARK    5  A    between atoms: C_16  and  C_17
REMARK                            x       y       z     vdW  Elec       q    Type
REMARK                         _______ _______ _______ _____ _____    ______ ____
ROOT
ATOM      1  C   UNL     1      45.121   4.755  12.792  0.00  0.00    +0.000 A 
ATOM      2  C   UNL     1      43.790   5.175  12.792  0.00  0.00    +0.000 A 
ATOM      3  C   UNL     1      43.017   5.033  11.651  0.00  0.00    +0.000 A 
ATOM      4  F   UNL     1      41.748   5.459  11.654  0.00  0.00    +0.000 F 
ATOM      5  C   UNL     1      43.540   4.463  10.496  0.00  0.00    +0.000 A 
ATOM      6  C   UNL     1      44.872   4.024  10.452  0.00  0.00    +0.000 A 
ATOM      7  C   UNL     1      45.647   4.182  11.620  0.00  0.00    +0.000 A 
ENDROOT
BRANCH   6   8
ATOM      8  C   UNL     1      45.438   3.420   9.226  0.00  0.00    +0.000 A 
ATOM      9  C   UNL     1      45.809   4.214   8.122  0.00  0.00    +0.000 A 
ATOM     10  C   UNL     1      46.336   3.646   6.957  0.00  0.00    +0.000 A 
ATOM     11  C   UNL     1      46.511   2.271   6.877  0.00  0.00    +0.000 A 
ATOM     12  C   UNL     1      46.156   1.476   7.959  0.00  0.00    +0.000 A 
ATOM     13  F   UNL     1      46.325   0.148   7.887  0.00  0.00    +0.000 F 
ATOM     14  C   UNL     1      45.624   2.033   9.116  0.00  0.00    +0.000 A 
ENDBRANCH   6   8
BRANCH   1  15
ATOM     15  C   UNL     1      45.984   4.953  14.011  0.00  0.00    +0.000 C 
BRANCH  15  16
ATOM     16  O   UNL     1      47.311   5.331  13.642  0.00  0.00    +0.000 OA
BRANCH  16  22
ATOM     17  C   UNL     1      46.671   8.781  12.395  0.00  0.00    +0.000 A 
ATOM     18  C   UNL     1      47.916   9.055  11.834  0.00  0.00    +0.000 A 
ATOM     19  C   UNL     1      48.920   8.099  11.925  0.00  0.00    +0.000 A 
ATOM     20  F   UNL     1      50.119   8.360  11.386  0.00  0.00    +0.000 F 
ATOM     21  C   UNL     1      48.697   6.870  12.542  0.00  0.00    +0.000 A 
ATOM     22  C   UNL     1      47.449   6.586  13.102  0.00  0.00    +0.000 A 
ATOM     23  C   UNL     1      46.447   7.562  13.052  0.00  0.00    +0.000 A 
BRANCH  17  25
ATOM     24  N   UNL     1      44.752  10.501  12.131  0.00  0.00    +0.000 NA
ATOM     25  C   UNL     1      45.595   9.720  12.259  0.00  0.00    +0.000 C 
ENDBRANCH  17  25
ENDBRANCH  16  22
ENDBRANCH  15  16
ENDBRANCH   1  15
TORSDOF 5
ENDMDL
MODEL 8
REMARK VINA RESULT:    -7.781      2.364      2.958
REMARK INTER + INTRA:         -10.521
REMARK INTER:                  -9.775
REMARK INTRA:                  -0.745
REMARK UNBOUND:                -0.465
REMARK  Name = 
REMARK  5 active torsions:
REMARK  status: ('A' for Active; 'I' for Inactive)
REMARK    1  A    between atoms: C_2  and  C_3
REMARK    2  A    between atoms: C_8  and  O_9
REMARK    3  A    between atoms: O_9  and  C_10
REMARK    4  A    between atoms: C_10  and  C_11
REMARK    5  A    between atoms: C_16  and  C_17
REMARK                            x       y       z     vdW  Elec       q    Type
REMARK                         _______ _______ _______ _____ _____    ______ ____
ROOT
ATOM      1  C   UNL     1      45.355   6.365  11.332  0.00  0.00    +0.000 A 
ATOM      2  C   UNL     1      44.014   6.213  11.690  0.00  0.00    +0.000 A 
ATOM      3  C   UNL     1      43.237   5.245  11.074  0.00  0.00    +0.000 A 
ATOM      4  F   UNL     1      41.946   5.121  11.409  0.00  0.00    +0.000 F 
ATOM      5  C   UNL     1      43.772   4.403  10.107  0.00  0.00    +0.000 A 
ATOM      6  C   UNL     1      45.115   4.517   9.719  0.00  0.00    +0.000 A 
ATOM      7  C   UNL     1      45.891   5.513  10.350  0.00  0.00    +0.000 A 
ENDROOT
BRANCH   6   8
ATOM      8  C   UNL     1      45.692   3.629   8.686  0.00  0.00    +0.000 A 
ATOM      9  C   UNL     1      46.265   4.150   7.508  0.00  0.00    +0.000 A 
ATOM     10  C   UNL     1      46.803   3.313   6.525  0.00  0.00    +0.000 A 
ATOM     11  C   UNL     1      46.786   1.936   6.705  0.00  0.00    +0.000 A 
ATOM     12  C   UNL     1      46.231   1.408   7.863  0.00  0.00    +0.000 A 
ATOM     13  F   UNL     1      46.215   0.080   8.043  0.00  0.00    +0.000 F 
ATOM     14  C   UNL     1      45.687   2.234   8.840  0.00  0.00    +0.000 A 
ENDBRANCH   6   8
BRANCH   1  15
ATOM     15  C   UNL     1      46.193   7.449  11.958  0.00  0.00    +0.000 C 
BRANCH  15  16
ATOM     16  O   UNL     1      47.530   6.996  12.180  0.00  0.00    +0.000 OA
BRANCH  16  22
ATOM     17  C   UNL     1      49.035   6.934  15.585  0.00  0.00    +0.000 A 
ATOM     18  C   UNL     1      48.453   5.765  16.070  0.00  0.00    +0.000 A 
ATOM     19  C   UNL     1      47.563   5.070  15.260  0.00  0.00    +0.000 A 
ATOM     20  F   UNL     1      47.002   3.945  15.724  0.00  0.00    +0.000 F 
ATOM     21  C   UNL     1      47.263   5.507  13.972  0.00  0.00    +0.000 A 
ATOM     22  C   UNL     1      47.848   6.675  13.477  0.00  0.00    +0.000 A 
ATOM     23  C   UNL     1      48.711   7.403  14.303  0.00  0.00    +0.000 A 
BRANCH  17  25
ATOM     24  N   UNL     1      50.817   8.171  17.001  0.00  0.00    +0.000 NA
ATOM     25  C   UNL     1      50.009   7.636  16.371  0.00  0.00    +0.000 C 
ENDBRANCH  17  25
ENDBRANCH  16  22
ENDBRANCH  15  16
ENDBRANCH   1  15
TORSDOF 5
ENDMDL
MODEL 9
REMARK VINA RESULT:    -7.447      3.227      5.202
REMARK INTER + INTRA:         -10.089
REMARK INTER:                  -9.230
REMARK INTRA:                  -0.859
REMARK UNBOUND:                -0.465
REMARK  Name = 
REMARK  5 active torsions:
REMARK  status: ('A' for Active; 'I' for Inactive)
REMARK    1  A    between atoms: C_2  and  C_3
REMARK    2  A    between atoms: C_8  and  O_9
REMARK    3  A    between atoms: O_9  and  C_10
REMARK    4  A    between atoms: C_10  and  C_11
REMARK    5  A    between atoms: C_16  and  C_17
REMARK                            x       y       z     vdW  Elec       q    Type
REMARK                         _______ _______ _______ _____ _____    ______ ____
ROOT
ATOM      1  C   UNL     1      47.068   7.300  13.198  0.00  0.00    +0.000 A 
ATOM      2  C   UNL     1      46.317   8.473  13.113  0.00  0.00    +0.000 A 
ATOM      3  C   UNL     1      45.247   8.549  12.235  0.00  0.00    +0.000 A 
ATOM      4  F   UNL     1      44.546   9.686  12.144  0.00  0.00    +0.000 F 
ATOM      5  C   UNL     1      44.894   7.467  11.438  0.00  0.00    +0.000 A 
ATOM      6  C   UNL     1      45.619   6.267  11.494  0.00  0.00    +0.000 A 
ATOM      7  C   UNL     1      46.710   6.208  12.388  0.00  0.00    +0.000 A 
ENDROOT
BRANCH   6   8
ATOM      8  C   UNL     1      45.254   5.112  10.646  0.00  0.00    +0.000 A 
ATOM      9  C   UNL     1      44.504   4.035  11.159  0.00  0.00    +0.000 A 
ATOM     10  C   UNL     1      44.164   2.935  10.364  0.00  0.00    +0.000 A 
ATOM     11  C   UNL     1      44.562   2.896   9.034  0.00  0.00    +0.000 A 
ATOM     12  C   UNL     1      45.297   3.952   8.512  0.00  0.00    +0.000 A 
ATOM     13  F   UNL     1      45.681   3.920   7.229  0.00  0.00    +0.000 F 
ATOM     14  C   UNL     1      45.645   5.044   9.299  0.00  0.00    +0.000 A 
ENDBRANCH   6   8
BRANCH   1  15
ATOM     15  C   UNL     1      48.264   7.226  14.112  0.00  0.00    +0.000 C 
BRANCH  15  16
ATOM     16  O   UNL     1      48.522   5.877  14.506  0.00  0.00    +0.000 OA
BRANCH  16  22
ATOM     17  C   UNL     1      48.471   5.923  18.229  0.00  0.00    +0.000 A 
ATOM     18  C   UNL     1      47.803   4.723  18.463  0.00  0.00    +0.000 A 
ATOM     19  C   UNL     1      47.370   3.972  17.377  0.00  0.00    +0.000 A 
ATOM     20  F   UNL     1      46.727   2.817  17.598  0.00  0.00    +0.000 F 
ATOM     21  C   UNL     1      47.612   4.384  16.068  0.00  0.00    +0.000 A 
ATOM     22  C   UNL     1      48.287   5.583  15.827  0.00  0.00    +0.000 A 
ATOM     23  C   UNL     1      48.687   6.365  16.916  0.00  0.00    +0.000 A 
BRANCH  17  25
ATOM     24  N   UNL     1      49.402   7.271  20.236  0.00  0.00    +0.000 NA
ATOM     25  C   UNL     1      48.990   6.687  19.327  0.00  0.00    +0.000 C 
ENDBRANCH  17  25
ENDBRANCH  16  22
ENDBRANCH  15  16
ENDBRANCH   1  15
TORSDOF 5
ENDMDL
