MODEL 1
REMARK VINA RESULT:    -9.543      0.000      0.000
REMARK INTER + INTRA:         -13.067
REMARK INTER:                 -12.332
REMARK INTRA:                  -0.735
REMARK UNBOUND:                -0.735
REMARK  Name = 
REMARK  5 active torsions:
REMARK  status: ('A' for Active; 'I' for Inactive)
REMARK    1  A    between atoms: C_2  and  C_4
REMARK    2  A    between atoms: C_7  and  N_8
REMARK    3  A    between atoms: N_8  and  C_9
REMARK    4  A    between atoms: C_9  and  C_10
REMARK    5  A    between atoms: C_14  and  C_15
REMARK                            x       y       z     vdW  Elec       q    Type
REMARK                         _______ _______ _______ _____ _____    ______ ____
ROOT
ATOM      1  C   UNL     1      43.875   5.017  11.434  0.00  0.00    +0.000 C 
ATOM      2  C   UNL     1      43.053   4.067  12.299  0.00  0.00    +0.000 C 
ATOM      3  C   UNL     1      42.676   5.509  12.218  0.00  0.00    +0.000 C 
ENDROOT
BRANCH   1   4
ATOM      4  C   UNL     1      45.278   5.405  11.896  0.00  0.00    +0.000 A 
ATOM      5  C   UNL     1      45.968   6.487  11.327  0.00  0.00    +0.000 A 
ATOM      6  C   UNL     1      47.189   6.919  11.842  0.00  0.00    +0.000 A 
ATOM      7  C   UNL     1      47.730   6.301  12.969  0.00  0.00    +0.000 A 
ATOM      8  C   UNL     1      47.081   5.222  13.587  0.00  0.00    +0.000 A 
ATOM      9  C   UNL     1      45.888   4.765  12.995  0.00  0.00    +0.000 A 
BRANCH   8  10
ATOM     10  C   UNL     1      47.567   4.633  14.851  0.00  0.00    +0.000 A 
ATOM     11  C   UNL     1      47.937   5.428  15.940  0.00  0.00    +0.000 A 
ATOM     12  C   UNL     1      48.337   4.821  17.128  0.00  0.00    +0.000 A 
ATOM     13  C   UNL     1      48.359   3.438  17.209  0.00  0.00    +0.000 A 
ATOM     14  C   UNL     1      47.971   2.715  16.094  0.00  0.00    +0.000 A 
ATOM     15  N   UNL     1      47.573   3.277  14.929  0.00  0.00    +0.000 NA
ENDBRANCH   8  10
ENDBRANCH   1   4
BRANCH   1  16
ATOM     16  N   UNL     1      43.799   4.737   9.983  0.00  0.00    +0.000 N 
ATOM     17  H   UNL     1      42.856   4.545   9.651  0.00  0.00    +0.000 HD
BRANCH  16  21
ATOM     18  C   UNL     1      46.470   2.321   7.757  0.00  0.00    +0.000 A 
ATOM     19  C   UNL     1      46.477   3.705   7.567  0.00  0.00    +0.000 A 
ATOM     20  C   UNL     1      45.602   4.516   8.299  0.00  0.00    +0.000 A 
ATOM     21  C   UNL     1      44.747   3.977   9.264  0.00  0.00    +0.000 A 
ATOM     22  C   UNL     1      44.735   2.583   9.426  0.00  0.00    +0.000 A 
ATOM     23  C   UNL     1      45.583   1.759   8.677  0.00  0.00    +0.000 A 
BRANCH  18  25
ATOM     24  N   UNL     1      48.368   1.987   6.261  0.00  0.00    +0.000 N 
ATOM     25  C   UNL     1      47.336   1.419   6.957  0.00  0.00    +0.000 C 
ATOM     26  O   UNL     1      47.160   0.206   6.935  0.00  0.00    +0.000 OA
ATOM     27  H   UNL     1      48.993   1.354   5.785  0.00  0.00    +0.000 HD
ATOM     28  H   UNL     1      48.694   2.926   6.451  0.00  0.00    +0.000 HD
ENDBRANCH  18  25
ENDBRANCH  16  21
ENDBRANCH   1  16
TORSDOF 5
ENDMDL
MODEL 2
REMARK VINA RESULT:    -8.811      1.941      3.479
REMARK INTER + INTRA:         -12.121
REMARK INTER:                 -10.833
REMARK INTRA:                  -1.288
REMARK UNBOUND:                -0.735
REMARK  Name = 
REMARK  5 active torsions:
REMARK  status: ('A' for Active; 'I' for Inactive)
REMARK    1  A    between atoms: C_2  and  C_4
REMARK    2  A    between atoms: C_7  and  N_8
REMARK    3  A    between atoms: N_8  and  C_9
REMARK    4  A    between atoms: C_9  and  C_10
REMARK    5  A    between atoms: C_14  and  C_15
REMARK                            x       y       z     vdW  Elec       q    Type
REMARK                         _______ _______ _______ _____ _____    ______ ____
ROOT
ATOM      1  C   UNL     1      43.850   5.019  11.529  0.00  0.00    +0.000 C 
ATOM      2  C   UNL     1      42.523   5.264  12.240  0.00  0.00    +0.000 C 
ATOM      3  C   UNL     1      42.991   6.220  11.193  0.00  0.00    +0.000 C 
ENDROOT
BRANCH   1   4
ATOM      4  C   UNL     1      45.150   5.225  12.304  0.00  0.00    +0.000 A 
ATOM      5  C   UNL     1      45.642   4.254  13.188  0.00  0.00    +0.000 A 
ATOM      6  C   UNL     1      46.893   4.387  13.788  0.00  0.00    +0.000 A 
ATOM      7  C   UNL     1      47.700   5.484  13.485  0.00  0.00    +0.000 A 
ATOM      8  C   UNL     1      47.266   6.481  12.600  0.00  0.00    +0.000 A 
ATOM      9  C   UNL     1      45.968   6.351  12.070  0.00  0.00    +0.000 A 
BRANCH   8  10
ATOM     10  C   UNL     1      48.148   7.584  12.166  0.00  0.00    +0.000 A 
ATOM     11  C   UNL     1      47.684   8.898  12.057  0.00  0.00    +0.000 A 
ATOM     12  C   UNL     1      48.569   9.910  11.696  0.00  0.00    +0.000 A 
ATOM     13  C   UNL     1      49.897   9.596  11.455  0.00  0.00    +0.000 A 
ATOM     14  C   UNL     1      50.287   8.275  11.591  0.00  0.00    +0.000 A 
ATOM     15  N   UNL     1      49.451   7.271  11.944  0.00  0.00    +0.000 NA
ENDBRANCH   8  10
ENDBRANCH   1   4
BRANCH   1  16
ATOM     16  N   UNL     1      43.868   3.808  10.678  0.00  0.00    +0.000 N 
ATOM     17  H   UNL     1      43.666   2.948  11.184  0.00  0.00    +0.000 HD
BRANCH  16  21
ATOM     18  C   UNL     1      46.505   2.952   7.479  0.00  0.00    +0.000 A 
ATOM     19  C   UNL     1      46.183   4.280   7.764  0.00  0.00    +0.000 A 
ATOM     20  C   UNL     1      45.316   4.578   8.822  0.00  0.00    +0.000 A 
ATOM     21  C   UNL     1      44.798   3.572   9.642  0.00  0.00    +0.000 A 
ATOM     22  C   UNL     1      45.111   2.241   9.328  0.00  0.00    +0.000 A 
ATOM     23  C   UNL     1      45.952   1.930   8.252  0.00  0.00    +0.000 A 
BRANCH  18  25
ATOM     24  N   UNL     1      48.471   1.818   6.584  0.00  0.00    +0.000 N 
ATOM     25  C   UNL     1      47.370   2.588   6.328  0.00  0.00    +0.000 C 
ATOM     26  O   UNL     1      47.102   2.935   5.183  0.00  0.00    +0.000 OA
ATOM     27  H   UNL     1      49.006   1.515   5.783  0.00  0.00    +0.000 HD
ATOM     28  H   UNL     1      48.584   1.311   7.453  0.00  0.00    +0.000 HD
ENDBRANCH  18  25
ENDBRANCH  16  21
ENDBRANCH   1  16
TORSDOF 5
ENDMDL
MODEL 3
REMARK VINA RESULT:    -7.836      2.991      7.492
REMARK INTER + INTRA:         -10.862
REMARK INTER:                  -9.806
REMARK INTRA:                  -1.056
REMARK UNBOUND:                -0.735
REMARK  Name = 
REMARK  5 active torsions:
REMARK  status: ('A' for Active; 'I' for Inactive)
REMARK    1  A    between atoms: C_2  and  C_4
REMARK    2  A    between atoms: C_7  and  N_8
REMARK    3  A    between atoms: N_8  and  C_9
REMARK    4  A    between atoms: C_9  and  C_10
REMARK    5  A    between atoms: C_14  and  C_15
REMARK                            x       y       z     vdW  Elec       q    Type
REMARK                         _______ _______ _______ _____ _____    ______ ____
ROOT
ATOM      1  C   UNL     1      46.219   7.403  12.390  0.00  0.00    +0.000 C 
ATOM      2  C   UNL     1      46.338   8.802  11.795  0.00  0.00    +0.000 C 
ATOM      3  C   UNL     1      45.609   8.604  13.082  0.00  0.00    +0.000 C 
ENDROOT
BRANCH   1   4
ATOM      4  C   UNL     1      45.302   6.389  11.709  0.00  0.00    +0.000 A 
ATOM      5  C   UNL     1      43.907   6.450  11.844  0.00  0.00    +0.000 A 
ATOM      6  C   UNL     1      43.070   5.608  11.114  0.00  0.00    +0.000 A 
ATOM      7  C   UNL     1      43.613   4.707  10.197  0.00  0.00    +0.000 A 
ATOM      8  C   UNL     1      44.999   4.609  10.011  0.00  0.00    +0.000 A 
ATOM      9  C   UNL     1      45.817   5.423  10.819  0.00  0.00    +0.000 A 
BRANCH   8  10
ATOM     10  C   UNL     1      45.592   3.756   8.960  0.00  0.00    +0.000 A 
ATOM     11  C   UNL     1      45.583   2.361   9.053  0.00  0.00    +0.000 A 
ATOM     12  C   UNL     1      46.106   1.601   8.009  0.00  0.00    +0.000 A 
ATOM     13  C   UNL     1      46.623   2.243   6.896  0.00  0.00    +0.000 A 
ATOM     14  C   UNL     1      46.590   3.626   6.869  0.00  0.00    +0.000 A 
ATOM     15  N   UNL     1      46.085   4.391   7.866  0.00  0.00    +0.000 NA
ENDBRANCH   8  10
ENDBRANCH   1   4
BRANCH   1  16
ATOM     16  N   UNL     1      47.506   6.818  12.828  0.00  0.00    +0.000 N 
ATOM     17  H   UNL     1      48.069   6.447  12.066  0.00  0.00    +0.000 HD
BRANCH  16  21
ATOM     18  C   UNL     1      47.959   4.687  16.459  0.00  0.00    +0.000 A 
ATOM     19  C   UNL     1      47.149   4.159  15.451  0.00  0.00    +0.000 A 
ATOM     20  C   UNL     1      46.993   4.851  14.244  0.00  0.00    +0.000 A 
ATOM     21  C   UNL     1      47.676   6.045  13.998  0.00  0.00    +0.000 A 
ATOM     22  C   UNL     1      48.467   6.575  15.029  0.00  0.00    +0.000 A 
ATOM     23  C   UNL     1      48.604   5.908  16.252  0.00  0.00    +0.000 A 
BRANCH  18  25
ATOM     24  N   UNL     1      47.235   2.999  18.064  0.00  0.00    +0.000 N 
ATOM     25  C   UNL     1      48.101   4.019  17.777  0.00  0.00    +0.000 C 
ATOM     26  O   UNL     1      48.974   4.341  18.574  0.00  0.00    +0.000 OA
ATOM     27  H   UNL     1      47.393   2.505  18.930  0.00  0.00    +0.000 HD
ATOM     28  H   UNL     1      46.681   2.545  17.350  0.00  0.00    +0.000 HD
ENDBRANCH  18  25
ENDBRANCH  16  21
ENDBRANCH   1  16
TORSDOF 5
ENDMDL
MODEL 4
REMARK VINA RESULT:    -7.343      1.261      1.815
REMARK INTER + INTRA:         -10.224
REMARK INTER:                 -10.227
REMARK INTRA:                   0.003
REMARK UNBOUND:                -0.735
REMARK  Name = 
REMARK  5 active torsions:
REMARK  status: ('A' for Active; 'I' for Inactive)
REMARK    1  A    between atoms: C_2  and  C_4
REMARK    2  A    between atoms: C_7  and  N_8
REMARK    3  A    between atoms: N_8  and  C_9
REMARK    4  A    between atoms: C_9  and  C_10
REMARK    5  A    between atoms: C_14  and  C_15
REMARK                            x       y       z     vdW  Elec       q    Type
REMARK                         _______ _______ _______ _____ _____    ______ ____
ROOT
ATOM      1  C   UNL     1      44.027   4.433  11.830  0.00  0.00    +0.000 C 
ATOM      2  C   UNL     1      43.693   3.236  12.715  0.00  0.00    +0.000 C 
ATOM      3  C   UNL     1      42.999   4.539  12.937  0.00  0.00    +0.000 C 
ENDROOT
BRANCH   1   4
ATOM      4  C   UNL     1      45.380   5.121  12.001  0.00  0.00    +0.000 A 
ATOM      5  C   UNL     1      45.921   5.941  11.000  0.00  0.00    +0.000 A 
ATOM      6  C   UNL     1      47.089   6.671  11.214  0.00  0.00    +0.000 A 
ATOM      7  C   UNL     1      47.723   6.628  12.456  0.00  0.00    +0.000 A 
ATOM      8  C   UNL     1      47.221   5.835  13.499  0.00  0.00    +0.000 A 
ATOM      9  C   UNL     1      46.083   5.054  13.223  0.00  0.00    +0.000 A 
BRANCH   8  10
ATOM     10  C   UNL     1      47.799   5.868  14.858  0.00  0.00    +0.000 A 
ATOM     11  C   UNL     1      47.589   4.832  15.773  0.00  0.00    +0.000 A 
ATOM     12  C   UNL     1      48.201   4.886  17.022  0.00  0.00    +0.000 A 
ATOM     13  C   UNL     1      49.011   5.966  17.335  0.00  0.00    +0.000 A 
ATOM     14  C   UNL     1      49.181   6.950  16.376  0.00  0.00    +0.000 A 
ATOM     15  N   UNL     1      48.603   6.922  15.153  0.00  0.00    +0.000 NA
ENDBRANCH   8  10
ENDBRANCH   1   4
BRANCH   1  16
ATOM     16  N   UNL     1      43.636   4.268  10.412  0.00  0.00    +0.000 N 
ATOM     17  H   UNL     1      42.670   3.973  10.285  0.00  0.00    +0.000 HD
BRANCH  16  21
ATOM     18  C   UNL     1      46.278   2.764   7.466  0.00  0.00    +0.000 A 
ATOM     19  C   UNL     1      45.764   1.896   8.432  0.00  0.00    +0.000 A 
ATOM     20  C   UNL     1      44.886   2.379   9.409  0.00  0.00    +0.000 A 
ATOM     21  C   UNL     1      44.465   3.712   9.414  0.00  0.00    +0.000 A 
ATOM     22  C   UNL     1      45.009   4.576   8.452  0.00  0.00    +0.000 A 
ATOM     23  C   UNL     1      45.913   4.111   7.489  0.00  0.00    +0.000 A 
BRANCH  18  25
ATOM     24  N   UNL     1      48.251   1.460   6.867  0.00  0.00    +0.000 N 
ATOM     25  C   UNL     1      47.261   2.308   6.451  0.00  0.00    +0.000 C 
ATOM     26  O   UNL     1      47.182   2.649   5.276  0.00  0.00    +0.000 OA
ATOM     27  H   UNL     1      48.864   1.098   6.151  0.00  0.00    +0.000 HD
ATOM     28  H   UNL     1      48.202   0.965   7.748  0.00  0.00    +0.000 HD
ENDBRANCH  18  25
ENDBRANCH  16  21
ENDBRANCH   1  16
TORSDOF 5
ENDMDL
MODEL 5
REMARK VINA RESULT:    -7.259      2.837      4.561
REMARK INTER + INTRA:         -10.116
REMARK INTER:                  -8.953
REMARK INTRA:                  -1.163
REMARK UNBOUND:                -0.735
REMARK  Name = 
REMARK  5 active torsions:
REMARK  status: ('A' for Active; 'I' for Inactive)
REMARK    1  A    between atoms: C_2  and  C_4
REMARK    2  A    between atoms: C_7  and  N_8
REMARK    3  A    between atoms: N_8  and  C_9
REMARK    4  A    between atoms: C_9  and  C_10
REMARK    5  A    between atoms: C_14  and  C_15
REMARK                            x       y       z     vdW  Elec       q    Type
REMARK                         _______ _______ _______ _____ _____    ______ ____
ROOT
ATOM      1  C   UNL     1      47.950   7.998  12.603  0.00  0.00    +0.000 C 
ATOM      2  C   UNL     1      48.677   9.027  11.743  0.00  0.00    +0.000 C 
ATOM      3  C   UNL     1      48.975   7.574  11.573  0.00  0.00    +0.000 C 
ENDROOT
BRANCH   1   4
ATOM      4  C   UNL     1      48.299   7.900  14.087  0.00  0.00    +0.000 A 
ATOM      5  C   UNL     1      48.290   9.027  14.922  0.00  0.00    +0.000 A 
ATOM      6  C   UNL     1      48.476   8.912  16.298  0.00  0.00    +0.000 A 
ATOM      7  C   UNL     1      48.637   7.654  16.878  0.00  0.00    +0.000 A 
ATOM      8  C   UNL     1      48.642   6.489  16.096  0.00  0.00    +0.000 A 
ATOM      9  C   UNL     1      48.526   6.650  14.702  0.00  0.00    +0.000 A 
BRANCH   8  10
ATOM     10  C   UNL     1      48.684   5.141  16.696  0.00  0.00    +0.000 A 
ATOM     11  C   UNL     1      47.530   4.368  16.852  0.00  0.00    +0.000 A 
ATOM     12  C   UNL     1      47.631   3.081  17.374  0.00  0.00    +0.000 A 
ATOM     13  C   UNL     1      48.877   2.588  17.726  0.00  0.00    +0.000 A 
ATOM     14  C   UNL     1      49.977   3.405  17.535  0.00  0.00    +0.000 A 
ATOM     15  N   UNL     1      49.910   4.658  17.027  0.00  0.00    +0.000 NA
ENDBRANCH   8  10
ENDBRANCH   1   4
BRANCH   1  16
ATOM     16  N   UNL     1      46.496   7.908  12.342  0.00  0.00    +0.000 N 
ATOM     17  H   UNL     1      45.936   8.531  12.921  0.00  0.00    +0.000 HD
BRANCH  16  21
ATOM     18  C   UNL     1      44.595   4.234  11.440  0.00  0.00    +0.000 A 
ATOM     19  C   UNL     1      44.724   4.629  12.774  0.00  0.00    +0.000 A 
ATOM     20  C   UNL     1      45.347   5.843  13.086  0.00  0.00    +0.000 A 
ATOM     21  C   UNL     1      45.802   6.705  12.085  0.00  0.00    +0.000 A 
ATOM     22  C   UNL     1      45.687   6.284  10.752  0.00  0.00    +0.000 A 
ATOM     23  C   UNL     1      45.094   5.057  10.429  0.00  0.00    +0.000 A 
BRANCH  18  25
ATOM     24  N   UNL     1      44.579   2.239  10.037  0.00  0.00    +0.000 N 
ATOM     25  C   UNL     1      43.999   2.926  11.068  0.00  0.00    +0.000 C 
ATOM     26  O   UNL     1      43.041   2.457  11.671  0.00  0.00    +0.000 OA
ATOM     27  H   UNL     1      44.212   1.318   9.846  0.00  0.00    +0.000 HD
ATOM     28  H   UNL     1      45.503   2.466   9.690  0.00  0.00    +0.000 HD
ENDBRANCH  18  25
ENDBRANCH  16  21
ENDBRANCH   1  16
TORSDOF 5
ENDMDL
MODEL 6
REMARK VINA RESULT:    -6.848      3.034      7.439
REMARK INTER + INTRA:          -9.585
REMARK INTER:                  -9.578
REMARK INTRA:                  -0.007
REMARK UNBOUND:                -0.735
REMARK  Name = 
REMARK  5 active torsions:
REMARK  status: ('A' for Active; 'I' for Inactive)
REMARK    1  A    between atoms: C_2  and  C_4
REMARK    2  A    between atoms: C_7  and  N_8
REMARK    3  A    between atoms: N_8  and  C_9
REMARK    4  A    between atoms: C_9  and  C_10
REMARK    5  A    between atoms: C_14  and  C_15
REMARK                            x       y       z     vdW  Elec       q    Type
REMARK                         _______ _______ _______ _____ _____    ______ ____
ROOT
ATOM      1  C   UNL     1      48.601   7.961  12.628  0.00  0.00    +0.000 C 
ATOM      2  C   UNL     1      49.693   7.379  11.737  0.00  0.00    +0.000 C 
ATOM      3  C   UNL     1      49.430   8.849  11.724  0.00  0.00    +0.000 C 
ENDROOT
BRANCH   1   4
ATOM      4  C   UNL     1      47.140   7.692  12.273  0.00  0.00    +0.000 A 
ATOM      5  C   UNL     1      46.149   8.671  12.437  0.00  0.00    +0.000 A 
ATOM      6  C   UNL     1      44.846   8.467  11.986  0.00  0.00    +0.000 A 
ATOM      7  C   UNL     1      44.513   7.286  11.323  0.00  0.00    +0.000 A 
ATOM      8  C   UNL     1      45.464   6.275  11.120  0.00  0.00    +0.000 A 
ATOM      9  C   UNL     1      46.750   6.485  11.653  0.00  0.00    +0.000 A 
BRANCH   8  10
ATOM     10  C   UNL     1      45.172   5.073  10.313  0.00  0.00    +0.000 A 
ATOM     11  C   UNL     1      45.629   4.940   8.998  0.00  0.00    +0.000 A 
ATOM     12  C   UNL     1      45.373   3.763   8.299  0.00  0.00    +0.000 A 
ATOM     13  C   UNL     1      44.671   2.744   8.921  0.00  0.00    +0.000 A 
ATOM     14  C   UNL     1      44.257   2.942  10.227  0.00  0.00    +0.000 A 
ATOM     15  N   UNL     1      44.495   4.072  10.933  0.00  0.00    +0.000 NA
ENDBRANCH   8  10
ENDBRANCH   1   4
BRANCH   1  16
ATOM     16  N   UNL     1      48.875   7.847  14.078  0.00  0.00    +0.000 N 
ATOM     17  H   UNL     1      49.774   8.236  14.357  0.00  0.00    +0.000 HD
BRANCH  16  21
ATOM     18  C   UNL     1      47.814   4.624  16.608  0.00  0.00    +0.000 A 
ATOM     19  C   UNL     1      47.365   4.633  15.287  0.00  0.00    +0.000 A 
ATOM     20  C   UNL     1      47.711   5.691  14.437  0.00  0.00    +0.000 A 
ATOM     21  C   UNL     1      48.548   6.724  14.868  0.00  0.00    +0.000 A 
ATOM     22  C   UNL     1      48.971   6.713  16.206  0.00  0.00    +0.000 A 
ATOM     23  C   UNL     1      48.604   5.677  17.073  0.00  0.00    +0.000 A 
BRANCH  18  25
ATOM     24  N   UNL     1      48.218   3.354  18.652  0.00  0.00    +0.000 N 
ATOM     25  C   UNL     1      47.418   3.555  17.560  0.00  0.00    +0.000 C 
ATOM     26  O   UNL     1      46.400   2.891  17.399  0.00  0.00    +0.000 OA
ATOM     27  H   UNL     1      47.895   2.678  19.329  0.00  0.00    +0.000 HD
ATOM     28  H   UNL     1      48.907   4.033  18.948  0.00  0.00    +0.000 HD
ENDBRANCH  18  25
ENDBRANCH  16  21
ENDBRANCH   1  16
TORSDOF 5
ENDMDL
