MODEL 1
REMARK VINA RESULT:    -8.564      0.000      0.000
REMARK INTER + INTRA:         -12.436
REMARK INTER:                 -11.568
REMARK INTRA:                  -0.867
REMARK UNBOUND:                -0.867
REMARK  Name = 
REMARK  7 active torsions:
REMARK  status: ('A' for Active; 'I' for Inactive)
REMARK    1  A    between atoms: C_1  and  C_2
REMARK    2  A    between atoms: C_2  and  N_3
REMARK    3  A    between atoms: C_2  and  C_21
REMARK    4  A    between atoms: C_4  and  C_6
REMARK    5  A    between atoms: C_9  and  C_10
REMARK    6  A    between atoms: C_10  and  N_11
REMARK    7  A    between atoms: C_12  and  C_14
REMARK                            x       y       z     vdW  Elec       q    Type
REMARK                         _______ _______ _______ _____ _____    ______ ____
ROOT
ATOM      1  N   UNL     1      47.120   5.036  16.072  0.00  0.00    +0.000 N 
ATOM      2  C   UNL     1      47.187   4.082  15.073  0.00  0.00    +0.000 C 
ATOM      3  O   UNL     1      47.759   3.005  15.211  0.00  0.00    +0.000 OA
ATOM      4  H   UNL     1      46.677   5.926  15.902  0.00  0.00    +0.000 HD
ENDROOT
BRANCH   2   5
ATOM      5  C   UNL     1      46.523   4.370  13.769  0.00  0.00    +0.000 A 
ATOM      6  C   UNL     1      46.644   5.593  13.103  0.00  0.00    +0.000 A 
ATOM      7  C   UNL     1      46.072   5.763  11.831  0.00  0.00    +0.000 A 
ATOM      8  C   UNL     1      45.361   4.720  11.213  0.00  0.00    +0.000 A 
ATOM      9  C   UNL     1      45.242   3.499  11.887  0.00  0.00    +0.000 A 
ATOM     10  C   UNL     1      45.813   3.328  13.153  0.00  0.00    +0.000 A 
BRANCH   8  11
ATOM     11  C   UNL     1      44.751   4.889   9.841  0.00  0.00    +0.000 C 
BRANCH  11  12
ATOM     12  N   UNL     1      45.604   4.363   8.800  0.00  0.00    +0.000 N 
ATOM     13  C   UNL     1      45.461   3.072   8.336  0.00  0.00    +0.000 C 
ATOM     14  O   UNL     1      44.625   2.299   8.782  0.00  0.00    +0.000 OA
ATOM     15  H   UNL     1      46.269   4.984   8.363  0.00  0.00    +0.000 HD
BRANCH  13  16
ATOM     16  C   UNL     1      46.366   2.709   7.275  0.00  0.00    +0.000 A 
ATOM     17  C   UNL     1      46.656   3.272   6.047  0.00  0.00    +0.000 A 
ATOM     18  C   UNL     1      47.628   2.433   5.470  0.00  0.00    +0.000 A 
ATOM     19  N   UNL     1      47.950   1.415   6.268  0.00  0.00    +0.000 NA
ATOM     20  N   UNL     1      47.184   1.609   7.358  0.00  0.00    +0.000 N 
ATOM     21  H   UNL     1      47.258   0.953   8.130  0.00  0.00    +0.000 HD
ENDBRANCH  13  16
ENDBRANCH  11  12
ENDBRANCH   8  11
ENDBRANCH   2   5
BRANCH   1  23
ATOM     22  C   UNL     1      47.088   5.540  18.513  0.00  0.00    +0.000 C 
ATOM     23  C   UNL     1      47.796   4.827  17.351  0.00  0.00    +0.000 C 
BRANCH  23  24
ATOM     24  C   UNL     1      49.229   5.323  17.248  0.00  0.00    +0.000 A 
ATOM     25  C   UNL     1      49.577   6.649  17.031  0.00  0.00    +0.000 A 
ATOM     26  S   UNL     1      51.259   6.931  17.101  0.00  0.00    +0.000 S 
ATOM     27  C   UNL     1      51.582   5.292  17.431  0.00  0.00    +0.000 A 
ATOM     28  N   UNL     1      52.852   4.857  17.642  0.00  0.00    +0.000 NA
ATOM     29  C   UNL     1      52.944   3.595  17.909  0.00  0.00    +0.000 A 
ATOM     30  N   UNL     1      51.882   2.730  17.971  0.00  0.00    +0.000 N 
ATOM     31  C   UNL     1      50.579   3.120  17.753  0.00  0.00    +0.000 A 
ATOM     32  O   UNL     1      49.657   2.313  17.803  0.00  0.00    +0.000 OA
ATOM     33  C   UNL     1      50.422   4.537  17.468  0.00  0.00    +0.000 A 
ATOM     34  H   UNL     1      52.023   1.752  18.175  0.00  0.00    +0.000 HD
ENDBRANCH  23  24
ENDBRANCH   1  23
TORSDOF 6
ENDMDL
MODEL 2
REMARK VINA RESULT:    -8.107      2.212      2.868
REMARK INTER + INTRA:         -11.818
REMARK INTER:                 -11.153
REMARK INTRA:                  -0.665
REMARK UNBOUND:                -0.867
REMARK  Name = 
REMARK  7 active torsions:
REMARK  status: ('A' for Active; 'I' for Inactive)
REMARK    1  A    between atoms: C_1  and  C_2
REMARK    2  A    between atoms: C_2  and  N_3
REMARK    3  A    between atoms: C_2  and  C_21
REMARK    4  A    between atoms: C_4  and  C_6
REMARK    5  A    between atoms: C_9  and  C_10
REMARK    6  A    between atoms: C_10  and  N_11
REMARK    7  A    between atoms: C_12  and  C_14
REMARK                            x       y       z     vdW  Elec       q    Type
REMARK                         _______ _______ _______ _____ _____    ______ ____
ROOT
ATOM      1  N   UNL     1      47.466   5.504  15.623  0.00  0.00    +0.000 N 
ATOM      2  C   UNL     1      47.227   4.344  14.907  0.00  0.00    +0.000 C 
ATOM      3  O   UNL     1      47.604   3.237  15.279  0.00  0.00    +0.000 OA
ATOM      4  H   UNL     1      47.175   6.399  15.260  0.00  0.00    +0.000 HD
ENDROOT
BRANCH   2   5
ATOM      5  C   UNL     1      46.465   4.441  13.630  0.00  0.00    +0.000 A 
ATOM      6  C   UNL     1      46.409   5.607  12.860  0.00  0.00    +0.000 A 
ATOM      7  C   UNL     1      45.753   5.600  11.618  0.00  0.00    +0.000 A 
ATOM      8  C   UNL     1      45.135   4.435  11.132  0.00  0.00    +0.000 A 
ATOM      9  C   UNL     1      45.193   3.272  11.911  0.00  0.00    +0.000 A 
ATOM     10  C   UNL     1      45.848   3.278  13.147  0.00  0.00    +0.000 A 
BRANCH   8  11
ATOM     11  C   UNL     1      44.436   4.414   9.793  0.00  0.00    +0.000 C 
BRANCH  11  12
ATOM     12  N   UNL     1      45.333   4.053   8.719  0.00  0.00    +0.000 N 
ATOM     13  C   UNL     1      45.553   2.734   8.378  0.00  0.00    +0.000 C 
ATOM     14  O   UNL     1      45.023   1.803   8.966  0.00  0.00    +0.000 OA
ATOM     15  H   UNL     1      45.747   4.791   8.170  0.00  0.00    +0.000 HD
BRANCH  13  16
ATOM     16  C   UNL     1      46.450   2.542   7.267  0.00  0.00    +0.000 A 
ATOM     17  C   UNL     1      46.592   3.176   6.048  0.00  0.00    +0.000 A 
ATOM     18  C   UNL     1      47.649   2.510   5.399  0.00  0.00    +0.000 A 
ATOM     19  N   UNL     1      48.157   1.529   6.145  0.00  0.00    +0.000 NA
ATOM     20  N   UNL     1      47.425   1.575   7.275  0.00  0.00    +0.000 N 
ATOM     21  H   UNL     1      47.634   0.916   8.019  0.00  0.00    +0.000 HD
ENDBRANCH  13  16
ENDBRANCH  11  12
ENDBRANCH   8  11
ENDBRANCH   2   5
BRANCH   1  23
ATOM     22  C   UNL     1      47.484   4.835  18.024  0.00  0.00    +0.000 C 
ATOM     23  C   UNL     1      48.251   5.473  16.856  0.00  0.00    +0.000 C 
BRANCH  23  24
ATOM     24  C   UNL     1      48.656   6.890  17.228  0.00  0.00    +0.000 A 
ATOM     25  C   UNL     1      48.464   7.447  18.484  0.00  0.00    +0.000 A 
ATOM     26  S   UNL     1      49.144   9.004  18.648  0.00  0.00    +0.000 S 
ATOM     27  C   UNL     1      49.726   8.986  17.049  0.00  0.00    +0.000 A 
ATOM     28  N   UNL     1      50.446  10.027  16.553  0.00  0.00    +0.000 NA
ATOM     29  C   UNL     1      50.847   9.864  15.335  0.00  0.00    +0.000 A 
ATOM     30  N   UNL     1      50.580   8.761  14.566  0.00  0.00    +0.000 N 
ATOM     31  C   UNL     1      49.845   7.687  15.017  0.00  0.00    +0.000 A 
ATOM     32  O   UNL     1      49.615   6.723  14.294  0.00  0.00    +0.000 OA
ATOM     33  C   UNL     1      49.388   7.815  16.392  0.00  0.00    +0.000 A 
ATOM     34  H   UNL     1      50.914   8.699  13.616  0.00  0.00    +0.000 HD
ENDBRANCH  23  24
ENDBRANCH   1  23
TORSDOF 6
ENDMDL
MODEL 3
REMARK VINA RESULT:    -7.912      2.684      3.440
REMARK INTER + INTRA:         -11.554
REMARK INTER:                 -10.770
REMARK INTRA:                  -0.784
REMARK UNBOUND:                -0.867
REMARK  Name = 
REMARK  7 active torsions:
REMARK  status: ('A' for Active; 'I' for Inactive)
REMARK    1  A    between atoms: C_1  and  C_2
REMARK    2  A    between atoms: C_2  and  N_3
REMARK    3  A    between atoms: C_2  and  C_21
REMARK    4  A    between atoms: C_4  and  C_6
REMARK    5  A    between atoms: C_9  and  C_10
REMARK    6  A    between atoms: C_10  and  N_11
REMARK    7  A    between atoms: C_12  and  C_14
REMARK                            x       y       z     vdW  Elec       q    Type
REMARK                         _______ _______ _______ _____ _____    ______ ____
ROOT
ATOM      1  N   UNL     1      48.171   6.333  14.844  0.00  0.00    +0.000 N 
ATOM      2  C   UNL     1      47.534   7.143  13.921  0.00  0.00    +0.000 C 
ATOM      3  O   UNL     1      47.588   8.369  13.954  0.00  0.00    +0.000 OA
ATOM      4  H   UNL     1      48.065   5.331  14.804  0.00  0.00    +0.000 HD
ENDROOT
BRANCH   2   5
ATOM      5  C   UNL     1      46.755   6.497  12.826  0.00  0.00    +0.000 A 
ATOM      6  C   UNL     1      46.822   6.912  11.493  0.00  0.00    +0.000 A 
ATOM      7  C   UNL     1      46.136   6.196  10.497  0.00  0.00    +0.000 A 
ATOM      8  C   UNL     1      45.365   5.067  10.818  0.00  0.00    +0.000 A 
ATOM      9  C   UNL     1      45.300   4.660  12.157  0.00  0.00    +0.000 A 
ATOM     10  C   UNL     1      45.984   5.370  13.149  0.00  0.00    +0.000 A 
BRANCH   8  11
ATOM     11  C   UNL     1      44.632   4.285   9.754  0.00  0.00    +0.000 C 
BRANCH  11  12
ATOM     12  N   UNL     1      45.491   3.946   8.642  0.00  0.00    +0.000 N 
ATOM     13  C   UNL     1      45.755   2.634   8.309  0.00  0.00    +0.000 C 
ATOM     14  O   UNL     1      45.298   1.690   8.936  0.00  0.00    +0.000 OA
ATOM     15  H   UNL     1      45.844   4.694   8.062  0.00  0.00    +0.000 HD
BRANCH  13  16
ATOM     16  C   UNL     1      46.604   2.464   7.157  0.00  0.00    +0.000 A 
ATOM     17  C   UNL     1      46.631   3.056   5.909  0.00  0.00    +0.000 A 
ATOM     18  C   UNL     1      47.701   2.445   5.228  0.00  0.00    +0.000 A 
ATOM     19  N   UNL     1      48.323   1.537   5.981  0.00  0.00    +0.000 NA
ATOM     20  N   UNL     1      47.650   1.574   7.147  0.00  0.00    +0.000 N 
ATOM     21  H   UNL     1      47.948   0.965   7.903  0.00  0.00    +0.000 HD
ENDBRANCH  13  16
ENDBRANCH  11  12
ENDBRANCH   8  11
ENDBRANCH   2   5
BRANCH   1  23
ATOM     22  C   UNL     1      50.409   7.044  15.679  0.00  0.00    +0.000 C 
ATOM     23  C   UNL     1      48.905   6.913  15.966  0.00  0.00    +0.000 C 
BRANCH  23  24
ATOM     24  C   UNL     1      48.698   6.052  17.201  0.00  0.00    +0.000 A 
ATOM     25  C   UNL     1      49.042   4.710  17.278  0.00  0.00    +0.000 A 
ATOM     26  S   UNL     1      48.821   4.039  18.831  0.00  0.00    +0.000 S 
ATOM     27  C   UNL     1      48.264   5.519  19.459  0.00  0.00    +0.000 A 
ATOM     28  N   UNL     1      47.931   5.644  20.771  0.00  0.00    +0.000 NA
ATOM     29  C   UNL     1      47.551   6.831  21.113  0.00  0.00    +0.000 A 
ATOM     30  N   UNL     1      47.462   7.900  20.258  0.00  0.00    +0.000 N 
ATOM     31  C   UNL     1      47.776   7.822  18.919  0.00  0.00    +0.000 A 
ATOM     32  O   UNL     1      47.670   8.796  18.183  0.00  0.00    +0.000 OA
ATOM     33  C   UNL     1      48.229   6.508  18.490  0.00  0.00    +0.000 A 
ATOM     34  H   UNL     1      47.149   8.800  20.587  0.00  0.00    +0.000 HD
ENDBRANCH  23  24
ENDBRANCH   1  23
TORSDOF 6
ENDMDL
MODEL 4
REMARK VINA RESULT:    -7.900      1.342      1.796
REMARK INTER + INTRA:         -11.538
REMARK INTER:                 -11.093
REMARK INTRA:                  -0.445
REMARK UNBOUND:                -0.867
REMARK  Name = 
REMARK  7 active torsions:
REMARK  status: ('A' for Active; 'I' for Inactive)
REMARK    1  A    between atoms: C_1  and  C_2
REMARK    2  A    between atoms: C_2  and  N_3
REMARK    3  A    between atoms: C_2  and  C_21
REMARK    4  A    between atoms: C_4  and  C_6
REMARK    5  A    between atoms: C_9  and  C_10
REMARK    6  A    between atoms: C_10  and  N_11
REMARK    7  A    between atoms: C_12  and  C_14
REMARK                            x       y       z     vdW  Elec       q    Type
REMARK                         _______ _______ _______ _____ _____    ______ ____
ROOT
ATOM      1  N   UNL     1      47.645   5.443  16.311  0.00  0.00    +0.000 N 
ATOM      2  C   UNL     1      48.050   5.912  15.074  0.00  0.00    +0.000 C 
ATOM      3  O   UNL     1      49.052   6.602  14.913  0.00  0.00    +0.000 OA
ATOM      4  H   UNL     1      46.791   4.915  16.404  0.00  0.00    +0.000 HD
ENDROOT
BRANCH   2   5
ATOM      5  C   UNL     1      47.238   5.552  13.876  0.00  0.00    +0.000 A 
ATOM      6  C   UNL     1      46.463   4.391  13.800  0.00  0.00    +0.000 A 
ATOM      7  C   UNL     1      45.646   4.163  12.680  0.00  0.00    +0.000 A 
ATOM      8  C   UNL     1      45.600   5.081  11.617  0.00  0.00    +0.000 A 
ATOM      9  C   UNL     1      46.382   6.240  11.700  0.00  0.00    +0.000 A 
ATOM     10  C   UNL     1      47.195   6.470  12.816  0.00  0.00    +0.000 A 
BRANCH   8  11
ATOM     11  C   UNL     1      44.717   4.850  10.414  0.00  0.00    +0.000 C 
BRANCH  11  12
ATOM     12  N   UNL     1      45.455   4.308   9.296  0.00  0.00    +0.000 N 
ATOM     13  C   UNL     1      45.413   2.964   8.988  0.00  0.00    +0.000 C 
ATOM     14  O   UNL     1      44.770   2.158   9.644  0.00  0.00    +0.000 OA
ATOM     15  H   UNL     1      45.953   4.947   8.694  0.00  0.00    +0.000 HD
BRANCH  13  16
ATOM     16  C   UNL     1      46.178   2.588   7.827  0.00  0.00    +0.000 A 
ATOM     17  C   UNL     1      46.566   3.271   6.690  0.00  0.00    +0.000 A 
ATOM     18  C   UNL     1      47.292   2.340   5.923  0.00  0.00    +0.000 A 
ATOM     19  N   UNL     1      47.375   1.152   6.522  0.00  0.00    +0.000 NA
ATOM     20  N   UNL     1      46.705   1.329   7.676  0.00  0.00    +0.000 N 
ATOM     21  H   UNL     1      46.636   0.551   8.325  0.00  0.00    +0.000 HD
ENDBRANCH  13  16
ENDBRANCH  11  12
ENDBRANCH   8  11
ENDBRANCH   2   5
BRANCH   1  23
ATOM     22  C   UNL     1      48.465   7.329  17.720  0.00  0.00    +0.000 C 
ATOM     23  C   UNL     1      48.375   5.808  17.523  0.00  0.00    +0.000 C 
BRANCH  23  24
ATOM     24  C   UNL     1      49.776   5.221  17.461  0.00  0.00    +0.000 A 
ATOM     25  C   UNL     1      50.937   5.967  17.607  0.00  0.00    +0.000 A 
ATOM     26  S   UNL     1      52.356   5.019  17.631  0.00  0.00    +0.000 S 
ATOM     27  C   UNL     1      51.469   3.577  17.454  0.00  0.00    +0.000 A 
ATOM     28  N   UNL     1      52.092   2.368  17.438  0.00  0.00    +0.000 NA
ATOM     29  C   UNL     1      51.292   1.360  17.325  0.00  0.00    +0.000 A 
ATOM     30  N   UNL     1      49.928   1.453  17.215  0.00  0.00    +0.000 N 
ATOM     31  C   UNL     1      49.252   2.652  17.215  0.00  0.00    +0.000 A 
ATOM     32  O   UNL     1      48.032   2.696  17.099  0.00  0.00    +0.000 OA
ATOM     33  C   UNL     1      50.109   3.818  17.359  0.00  0.00    +0.000 A 
ATOM     34  H   UNL     1      49.359   0.624  17.120  0.00  0.00    +0.000 HD
ENDBRANCH  23  24
ENDBRANCH   1  23
TORSDOF 6
ENDMDL
MODEL 5
REMARK VINA RESULT:    -7.772      2.131      2.786
REMARK INTER + INTRA:         -11.365
REMARK INTER:                 -10.689
REMARK INTRA:                  -0.676
REMARK UNBOUND:                -0.867
REMARK  Name = 
REMARK  7 active torsions:
REMARK  status: ('A' for Active; 'I' for Inactive)
REMARK    1  A    between atoms: C_1  and  C_2
REMARK    2  A    between atoms: C_2  and  N_3
REMARK    3  A    between atoms: C_2  and  C_21
REMARK    4  A    between atoms: C_4  and  C_6
REMARK    5  A    between atoms: C_9  and  C_10
REMARK    6  A    between atoms: C_10  and  N_11
REMARK    7  A    between atoms: C_12  and  C_14
REMARK                            x       y       z     vdW  Elec       q    Type
REMARK                         _______ _______ _______ _____ _____    ______ ____
ROOT
ATOM      1  N   UNL     1      48.299   6.603  15.172  0.00  0.00    +0.000 N 
ATOM      2  C   UNL     1      47.635   7.078  14.055  0.00  0.00    +0.000 C 
ATOM      3  O   UNL     1      47.771   8.221  13.630  0.00  0.00    +0.000 OA
ATOM      4  H   UNL     1      48.126   5.669  15.512  0.00  0.00    +0.000 HD
ENDROOT
BRANCH   2   5
ATOM      5  C   UNL     1      46.721   6.154  13.325  0.00  0.00    +0.000 A 
ATOM      6  C   UNL     1      45.882   6.570  12.288  0.00  0.00    +0.000 A 
ATOM      7  C   UNL     1      45.118   5.628  11.578  0.00  0.00    +0.000 A 
ATOM      8  C   UNL     1      45.171   4.262  11.901  0.00  0.00    +0.000 A 
ATOM      9  C   UNL     1      46.012   3.853  12.944  0.00  0.00    +0.000 A 
ATOM     10  C   UNL     1      46.775   4.790  13.650  0.00  0.00    +0.000 A 
BRANCH   8  11
ATOM     11  C   UNL     1      44.362   3.240  11.138  0.00  0.00    +0.000 C 
BRANCH  11  12
ATOM     12  N   UNL     1      45.128   2.622  10.080  0.00  0.00    +0.000 N 
ATOM     13  C   UNL     1      45.159   3.154   8.807  0.00  0.00    +0.000 C 
ATOM     14  O   UNL     1      44.535   4.158   8.497  0.00  0.00    +0.000 OA
ATOM     15  H   UNL     1      45.703   1.823  10.306  0.00  0.00    +0.000 HD
BRANCH  13  16
ATOM     16  C   UNL     1      45.992   2.438   7.875  0.00  0.00    +0.000 A 
ATOM     17  C   UNL     1      46.619   2.800   6.699  0.00  0.00    +0.000 A 
ATOM     18  C   UNL     1      47.278   1.638   6.253  0.00  0.00    +0.000 A 
ATOM     19  N   UNL     1      47.100   0.610   7.081  0.00  0.00    +0.000 NA
ATOM     20  N   UNL     1      46.329   1.119   8.061  0.00  0.00    +0.000 N 
ATOM     21  H   UNL     1      46.060   0.518   8.833  0.00  0.00    +0.000 HD
ENDBRANCH  13  16
ENDBRANCH  11  12
ENDBRANCH   8  11
ENDBRANCH   2   5
BRANCH   1  23
ATOM     22  C   UNL     1      50.658   7.180  15.732  0.00  0.00    +0.000 C 
ATOM     23  C   UNL     1      49.168   7.481  15.954  0.00  0.00    +0.000 C 
BRANCH  23  24
ATOM     24  C   UNL     1      48.834   7.332  17.429  0.00  0.00    +0.000 A 
ATOM     25  C   UNL     1      48.336   8.358  18.220  0.00  0.00    +0.000 A 
ATOM     26  S   UNL     1      47.925   7.862  19.800  0.00  0.00    +0.000 S 
ATOM     27  C   UNL     1      48.390   6.255  19.482  0.00  0.00    +0.000 A 
ATOM     28  N   UNL     1      48.255   5.287  20.427  0.00  0.00    +0.000 NA
ATOM     29  C   UNL     1      48.622   4.110  20.037  0.00  0.00    +0.000 A 
ATOM     30  N   UNL     1      49.123   3.819  18.794  0.00  0.00    +0.000 N 
ATOM     31  C   UNL     1      49.289   4.766  17.808  0.00  0.00    +0.000 A 
ATOM     32  O   UNL     1      49.754   4.470  16.713  0.00  0.00    +0.000 OA
ATOM     33  C   UNL     1      48.871   6.105  18.193  0.00  0.00    +0.000 A 
ATOM     34  H   UNL     1      49.400   2.879  18.556  0.00  0.00    +0.000 HD
ENDBRANCH  23  24
ENDBRANCH   1  23
TORSDOF 6
ENDMDL
MODEL 6
REMARK VINA RESULT:    -7.519      2.018      2.534
REMARK INTER + INTRA:         -11.024
REMARK INTER:                 -10.160
REMARK INTRA:                  -0.864
REMARK UNBOUND:                -0.867
REMARK  Name = 
REMARK  7 active torsions:
REMARK  status: ('A' for Active; 'I' for Inactive)
REMARK    1  A    between atoms: C_1  and  C_2
REMARK    2  A    between atoms: C_2  and  N_3
REMARK    3  A    between atoms: C_2  and  C_21
REMARK    4  A    between atoms: C_4  and  C_6
REMARK    5  A    between atoms: C_9  and  C_10
REMARK    6  A    between atoms: C_10  and  N_11
REMARK    7  A    between atoms: C_12  and  C_14
REMARK                            x       y       z     vdW  Elec       q    Type
REMARK                         _______ _______ _______ _____ _____    ______ ____
ROOT
ATOM      1  N   UNL     1      47.933   7.186  14.776  0.00  0.00    +0.000 N 
ATOM      2  C   UNL     1      47.684   5.825  14.759  0.00  0.00    +0.000 C 
ATOM      3  O   UNL     1      48.101   5.057  15.621  0.00  0.00    +0.000 OA
ATOM      4  H   UNL     1      47.607   7.775  14.025  0.00  0.00    +0.000 HD
ENDROOT
BRANCH   2   5
ATOM      5  C   UNL     1      46.860   5.267  13.649  0.00  0.00    +0.000 A 
ATOM      6  C   UNL     1      46.564   3.906  13.527  0.00  0.00    +0.000 A 
ATOM      7  C   UNL     1      45.701   3.461  12.511  0.00  0.00    +0.000 A 
ATOM      8  C   UNL     1      45.133   4.365  11.598  0.00  0.00    +0.000 A 
ATOM      9  C   UNL     1      45.437   5.726  11.724  0.00  0.00    +0.000 A 
ATOM     10  C   UNL     1      46.295   6.170  12.737  0.00  0.00    +0.000 A 
BRANCH   8  11
ATOM     11  C   UNL     1      44.196   3.898  10.509  0.00  0.00    +0.000 C 
BRANCH  11  12
ATOM     12  N   UNL     1      44.887   3.152   9.481  0.00  0.00    +0.000 N 
ATOM     13  C   UNL     1      45.550   3.789   8.453  0.00  0.00    +0.000 C 
ATOM     14  O   UNL     1      45.580   5.006   8.340  0.00  0.00    +0.000 OA
ATOM     15  H   UNL     1      44.935   2.148   9.566  0.00  0.00    +0.000 HD
BRANCH  13  16
ATOM     16  C   UNL     1      46.213   2.906   7.527  0.00  0.00    +0.000 A 
ATOM     17  C   UNL     1      46.687   3.071   6.239  0.00  0.00    +0.000 A 
ATOM     18  C   UNL     1      47.225   1.823   5.875  0.00  0.00    +0.000 A 
ATOM     19  N   UNL     1      47.118   0.925   6.854  0.00  0.00    +0.000 NA
ATOM     20  N   UNL     1      46.514   1.605   7.847  0.00  0.00    +0.000 N 
ATOM     21  H   UNL     1      46.328   1.127   8.724  0.00  0.00    +0.000 HD
ENDBRANCH  13  16
ENDBRANCH  11  12
ENDBRANCH   8  11
ENDBRANCH   2   5
BRANCH   1  23
ATOM     22  C   UNL     1      48.318   9.192  16.205  0.00  0.00    +0.000 C 
ATOM     23  C   UNL     1      48.776   7.779  15.813  0.00  0.00    +0.000 C 
BRANCH  23  24
ATOM     24  C   UNL     1      50.213   7.829  15.322  0.00  0.00    +0.000 A 
ATOM     25  C   UNL     1      50.667   8.697  14.338  0.00  0.00    +0.000 A 
ATOM     26  S   UNL     1      52.355   8.624  14.093  0.00  0.00    +0.000 S 
ATOM     27  C   UNL     1      52.540   7.434  15.296  0.00  0.00    +0.000 A 
ATOM     28  N   UNL     1      53.769   6.949  15.619  0.00  0.00    +0.000 NA
ATOM     29  C   UNL     1      53.761   6.072  16.568  0.00  0.00    +0.000 A 
ATOM     30  N   UNL     1      52.635   5.628  17.213  0.00  0.00    +0.000 N 
ATOM     31  C   UNL     1      51.368   6.080  16.915  0.00  0.00    +0.000 A 
ATOM     32  O   UNL     1      50.383   5.648  17.504  0.00  0.00    +0.000 OA
ATOM     33  C   UNL     1      51.327   7.084  15.864  0.00  0.00    +0.000 A 
ATOM     34  H   UNL     1      52.696   4.933  17.941  0.00  0.00    +0.000 HD
ENDBRANCH  23  24
ENDBRANCH   1  23
TORSDOF 6
ENDMDL
MODEL 7
REMARK VINA RESULT:    -7.195      3.500      9.226
REMARK INTER + INTRA:         -10.587
REMARK INTER:                  -9.967
REMARK INTRA:                  -0.620
REMARK UNBOUND:                -0.867
REMARK  Name = 
REMARK  7 active torsions:
REMARK  status: ('A' for Active; 'I' for Inactive)
REMARK    1  A    between atoms: C_1  and  C_2
REMARK    2  A    between atoms: C_2  and  N_3
REMARK    3  A    between atoms: C_2  and  C_21
REMARK    4  A    between atoms: C_4  and  C_6
REMARK    5  A    between atoms: C_9  and  C_10
REMARK    6  A    between atoms: C_10  and  N_11
REMARK    7  A    between atoms: C_12  and  C_14
REMARK                            x       y       z     vdW  Elec       q    Type
REMARK                         _______ _______ _______ _____ _____    ______ ____
ROOT
ATOM      1  N   UNL     1      46.287   6.592  12.957  0.00  0.00    +0.000 N 
ATOM      2  C   UNL     1      47.615   6.386  13.289  0.00  0.00    +0.000 C 
ATOM      3  O   UNL     1      48.540   6.599  12.512  0.00  0.00    +0.000 OA
ATOM      4  H   UNL     1      45.555   6.363  13.612  0.00  0.00    +0.000 HD
ENDROOT
BRANCH   2   5
ATOM      5  C   UNL     1      47.937   5.894  14.658  0.00  0.00    +0.000 A 
ATOM      6  C   UNL     1      47.465   4.680  15.166  0.00  0.00    +0.000 A 
ATOM      7  C   UNL     1      47.887   4.232  16.429  0.00  0.00    +0.000 A 
ATOM      8  C   UNL     1      48.776   4.993  17.207  0.00  0.00    +0.000 A 
ATOM      9  C   UNL     1      49.243   6.209  16.693  0.00  0.00    +0.000 A 
ATOM     10  C   UNL     1      48.824   6.656  15.434  0.00  0.00    +0.000 A 
BRANCH   8  11
ATOM     11  C   UNL     1      49.245   4.515  18.560  0.00  0.00    +0.000 C 
BRANCH  11  12
ATOM     12  N   UNL     1      50.183   3.421  18.455  0.00  0.00    +0.000 N 
ATOM     13  C   UNL     1      51.518   3.641  18.183  0.00  0.00    +0.000 C 
ATOM     14  O   UNL     1      51.978   4.759  18.002  0.00  0.00    +0.000 OA
ATOM     15  H   UNL     1      49.857   2.487  18.653  0.00  0.00    +0.000 HD
BRANCH  13  16
ATOM     16  C   UNL     1      52.328   2.451  18.140  0.00  0.00    +0.000 A 
ATOM     17  C   UNL     1      53.692   2.238  18.096  0.00  0.00    +0.000 A 
ATOM     18  C   UNL     1      53.853   0.840  18.058  0.00  0.00    +0.000 A 
ATOM     19  N   UNL     1      52.684   0.199  18.087  0.00  0.00    +0.000 NA
ATOM     20  N   UNL     1      51.777   1.192  18.149  0.00  0.00    +0.000 N 
ATOM     21  H   UNL     1      50.791   0.952  18.191  0.00  0.00    +0.000 HD
ENDBRANCH  13  16
ENDBRANCH  11  12
ENDBRANCH   8  11
ENDBRANCH   2   5
BRANCH   1  23
ATOM     22  C   UNL     1      44.812   8.097  11.627  0.00  0.00    +0.000 C 
ATOM     23  C   UNL     1      45.912   7.024  11.613  0.00  0.00    +0.000 C 
BRANCH  23  24
ATOM     24  C   UNL     1      45.437   5.822  10.813  0.00  0.00    +0.000 A 
ATOM     25  C   UNL     1      45.811   5.566   9.501  0.00  0.00    +0.000 A 
ATOM     26  S   UNL     1      45.235   4.073   8.909  0.00  0.00    +0.000 S 
ATOM     27  C   UNL     1      44.471   3.711  10.386  0.00  0.00    +0.000 A 
ATOM     28  N   UNL     1      43.812   2.536  10.565  0.00  0.00    +0.000 NA
ATOM     29  C   UNL     1      43.306   2.385  11.745  0.00  0.00    +0.000 A 
ATOM     30  N   UNL     1      43.388   3.309  12.755  0.00  0.00    +0.000 N 
ATOM     31  C   UNL     1      44.033   4.518  12.619  0.00  0.00    +0.000 A 
ATOM     32  O   UNL     1      44.073   5.326  13.541  0.00  0.00    +0.000 OA
ATOM     33  C   UNL     1      44.638   4.726  11.313  0.00  0.00    +0.000 A 
ATOM     34  H   UNL     1      42.961   3.134  13.652  0.00  0.00    +0.000 HD
ENDBRANCH  23  24
ENDBRANCH   1  23
TORSDOF 6
ENDMDL
MODEL 8
REMARK VINA RESULT:    -6.754      2.951      9.902
REMARK INTER + INTRA:          -9.991
REMARK INTER:                  -9.124
REMARK INTRA:                  -0.866
REMARK UNBOUND:                -0.867
REMARK  Name = 
REMARK  7 active torsions:
REMARK  status: ('A' for Active; 'I' for Inactive)
REMARK    1  A    between atoms: C_1  and  C_2
REMARK    2  A    between atoms: C_2  and  N_3
REMARK    3  A    between atoms: C_2  and  C_21
REMARK    4  A    between atoms: C_4  and  C_6
REMARK    5  A    between atoms: C_9  and  C_10
REMARK    6  A    between atoms: C_10  and  N_11
REMARK    7  A    between atoms: C_12  and  C_14
REMARK                            x       y       z     vdW  Elec       q    Type
REMARK                         _______ _______ _______ _____ _____    ______ ____
ROOT
ATOM      1  N   UNL     1      46.434   6.196  13.706  0.00  0.00    +0.000 N 
ATOM      2  C   UNL     1      47.785   5.993  13.921  0.00  0.00    +0.000 C 
ATOM      3  O   UNL     1      48.608   5.942  13.012  0.00  0.00    +0.000 OA
ATOM      4  H   UNL     1      45.786   6.189  14.479  0.00  0.00    +0.000 HD
ENDROOT
BRANCH   2   5
ATOM      5  C   UNL     1      48.267   5.843  15.324  0.00  0.00    +0.000 A 
ATOM      6  C   UNL     1      47.897   4.777  16.149  0.00  0.00    +0.000 A 
ATOM      7  C   UNL     1      48.466   4.645  17.427  0.00  0.00    +0.000 A 
ATOM      8  C   UNL     1      49.400   5.580  17.903  0.00  0.00    +0.000 A 
ATOM      9  C   UNL     1      49.764   6.647  17.072  0.00  0.00    +0.000 A 
ATOM     10  C   UNL     1      49.199   6.778  15.798  0.00  0.00    +0.000 A 
BRANCH   8  11
ATOM     11  C   UNL     1      50.025   5.442  19.271  0.00  0.00    +0.000 C 
BRANCH  11  12
ATOM     12  N   UNL     1      50.969   4.348  19.329  0.00  0.00    +0.000 N 
ATOM     13  C   UNL     1      52.292   4.520  18.978  0.00  0.00    +0.000 C 
ATOM     14  O   UNL     1      52.737   5.589  18.588  0.00  0.00    +0.000 OA
ATOM     15  H   UNL     1      50.656   3.463  19.700  0.00  0.00    +0.000 HD
BRANCH  13  16
ATOM     16  C   UNL     1      53.109   3.342  19.119  0.00  0.00    +0.000 A 
ATOM     17  C   UNL     1      54.293   3.088  19.785  0.00  0.00    +0.000 A 
ATOM     18  C   UNL     1      54.587   1.736  19.526  0.00  0.00    +0.000 A 
ATOM     19  N   UNL     1      53.660   1.158  18.762  0.00  0.00    +0.000 NA
ATOM     20  N   UNL     1      52.770   2.144  18.538  0.00  0.00    +0.000 N 
ATOM     21  H   UNL     1      51.949   1.943  17.976  0.00  0.00    +0.000 HD
ENDBRANCH  13  16
ENDBRANCH  11  12
ENDBRANCH   8  11
ENDBRANCH   2   5
BRANCH   1  23
ATOM     22  C   UNL     1      44.892   7.449  12.201  0.00  0.00    +0.000 C 
ATOM     23  C   UNL     1      45.900   6.299  12.349  0.00  0.00    +0.000 C 
BRANCH  23  24
ATOM     24  C   UNL     1      45.233   4.987  11.971  0.00  0.00    +0.000 A 
ATOM     25  C   UNL     1      44.527   4.191  12.862  0.00  0.00    +0.000 A 
ATOM     26  S   UNL     1      43.771   2.850  12.125  0.00  0.00    +0.000 S 
ATOM     27  C   UNL     1      44.355   3.289  10.587  0.00  0.00    +0.000 A 
ATOM     28  N   UNL     1      44.035   2.563   9.483  0.00  0.00    +0.000 NA
ATOM     29  C   UNL     1      44.525   3.029   8.381  0.00  0.00    +0.000 A 
ATOM     30  N   UNL     1      45.316   4.146   8.288  0.00  0.00    +0.000 N 
ATOM     31  C   UNL     1      45.677   4.907   9.377  0.00  0.00    +0.000 A 
ATOM     32  O   UNL     1      46.397   5.891   9.255  0.00  0.00    +0.000 OA
ATOM     33  C   UNL     1      45.132   4.433  10.640  0.00  0.00    +0.000 A 
ATOM     34  H   UNL     1      45.675   4.452   7.396  0.00  0.00    +0.000 HD
ENDBRANCH  23  24
ENDBRANCH   1  23
TORSDOF 6
ENDMDL
MODEL 9
REMARK VINA RESULT:    -6.667      2.993      3.896
REMARK INTER + INTRA:          -9.873
REMARK INTER:                  -8.958
REMARK INTRA:                  -0.915
REMARK UNBOUND:                -0.867
REMARK  Name = 
REMARK  7 active torsions:
REMARK  status: ('A' for Active; 'I' for Inactive)
REMARK    1  A    between atoms: C_1  and  C_2
REMARK    2  A    between atoms: C_2  and  N_3
REMARK    3  A    between atoms: C_2  and  C_21
REMARK    4  A    between atoms: C_4  and  C_6
REMARK    5  A    between atoms: C_9  and  C_10
REMARK    6  A    between atoms: C_10  and  N_11
REMARK    7  A    between atoms: C_12  and  C_14
REMARK                            x       y       z     vdW  Elec       q    Type
REMARK                         _______ _______ _______ _____ _____    ______ ____
ROOT
ATOM      1  N   UNL     1      48.274   6.043  16.308  0.00  0.00    +0.000 N 
ATOM      2  C   UNL     1      48.634   6.379  15.015  0.00  0.00    +0.000 C 
ATOM      3  O   UNL     1      49.700   6.918  14.735  0.00  0.00    +0.000 OA
ATOM      4  H   UNL     1      47.370   5.639  16.499  0.00  0.00    +0.000 HD
ENDROOT
BRANCH   2   5
ATOM      5  C   UNL     1      47.687   6.061  13.908  0.00  0.00    +0.000 A 
ATOM      6  C   UNL     1      46.673   5.107  14.021  0.00  0.00    +0.000 A 
ATOM      7  C   UNL     1      45.755   4.927  12.972  0.00  0.00    +0.000 A 
ATOM      8  C   UNL     1      45.844   5.687  11.794  0.00  0.00    +0.000 A 
ATOM      9  C   UNL     1      46.866   6.640  11.687  0.00  0.00    +0.000 A 
ATOM     10  C   UNL     1      47.779   6.821  12.732  0.00  0.00    +0.000 A 
BRANCH   8  11
ATOM     11  C   UNL     1      44.857   5.509  10.665  0.00  0.00    +0.000 C 
BRANCH  11  12
ATOM     12  N   UNL     1      45.448   4.843   9.527  0.00  0.00    +0.000 N 
ATOM     13  C   UNL     1      45.263   3.493   9.307  0.00  0.00    +0.000 C 
ATOM     14  O   UNL     1      44.611   2.786  10.060  0.00  0.00    +0.000 OA
ATOM     15  H   UNL     1      45.947   5.399   8.849  0.00  0.00    +0.000 HD
BRANCH  13  16
ATOM     16  C   UNL     1      45.892   2.986   8.114  0.00  0.00    +0.000 A 
ATOM     17  C   UNL     1      46.206   3.558   6.897  0.00  0.00    +0.000 A 
ATOM     18  C   UNL     1      46.803   2.530   6.143  0.00  0.00    +0.000 A 
ATOM     19  N   UNL     1      46.879   1.386   6.823  0.00  0.00    +0.000 NA
ATOM     20  N   UNL     1      46.333   1.689   8.017  0.00  0.00    +0.000 N 
ATOM     21  H   UNL     1      46.285   0.967   8.729  0.00  0.00    +0.000 HD
ENDBRANCH  13  16
ENDBRANCH  11  12
ENDBRANCH   8  11
ENDBRANCH   2   5
BRANCH   1  23
ATOM     22  C   UNL     1      49.230   5.240  18.465  0.00  0.00    +0.000 C 
ATOM     23  C   UNL     1      49.142   6.377  17.436  0.00  0.00    +0.000 C 
BRANCH  23  24
ATOM     24  C   UNL     1      48.623   7.635  18.112  0.00  0.00    +0.000 A 
ATOM     25  C   UNL     1      47.469   7.682  18.883  0.00  0.00    +0.000 A 
ATOM     26  S   UNL     1      47.212   9.196  19.629  0.00  0.00    +0.000 S 
ATOM     27  C   UNL     1      48.635   9.840  18.954  0.00  0.00    +0.000 A 
ATOM     28  N   UNL     1      49.029  11.112  19.230  0.00  0.00    +0.000 NA
ATOM     29  C   UNL     1      50.142  11.457  18.671  0.00  0.00    +0.000 A 
ATOM     30  N   UNL     1      50.888  10.649  17.851  0.00  0.00    +0.000 N 
ATOM     31  C   UNL     1      50.526   9.359  17.532  0.00  0.00    +0.000 A 
ATOM     32  O   UNL     1      51.213   8.672  16.783  0.00  0.00    +0.000 OA
ATOM     33  C   UNL     1      49.288   8.918  18.154  0.00  0.00    +0.000 A 
ATOM     34  H   UNL     1      51.746  10.983  17.437  0.00  0.00    +0.000 HD
ENDBRANCH  23  24
ENDBRANCH   1  23
TORSDOF 6
ENDMDL
