MODEL 1
REMARK VINA RESULT:    -8.550      0.000      0.000
REMARK INTER + INTRA:         -12.378
REMARK INTER:                 -11.549
REMARK INTRA:                  -0.829
REMARK UNBOUND:                -0.829
REMARK  Name = 
REMARK  6 active torsions:
REMARK  status: ('A' for Active; 'I' for Inactive)
REMARK    1  A    between atoms: C_2  and  C_25
REMARK    2  A    between atoms: N_3  and  C_4
REMARK    3  A    between atoms: C_4  and  C_5
REMARK    4  A    between atoms: C_8  and  C_9
REMARK    5  A    between atoms: C_9  and  N_10
REMARK    6  A    between atoms: C_11  and  C_13
REMARK                            x       y       z     vdW  Elec       q    Type
REMARK                         _______ _______ _______ _____ _____    ______ ____
ROOT
ATOM      1  C   UNL     1      45.574   4.294  12.894  0.00  0.00    +0.000 A 
ATOM      2  C   UNL     1      45.615   5.658  12.576  0.00  0.00    +0.000 A 
ATOM      3  C   UNL     1      46.469   6.531  13.263  0.00  0.00    +0.000 A 
ATOM      4  C   UNL     1      47.315   6.055  14.276  0.00  0.00    +0.000 A 
ATOM      5  C   UNL     1      47.263   4.692  14.599  0.00  0.00    +0.000 A 
ATOM      6  C   UNL     1      46.414   3.819  13.909  0.00  0.00    +0.000 A 
ENDROOT
BRANCH   1   7
ATOM      7  C   UNL     1      44.671   3.358  12.133  0.00  0.00    +0.000 C 
BRANCH   7  10
ATOM      8  O   UNL     1      43.925   4.147   9.550  0.00  0.00    +0.000 OA
ATOM      9  C   UNL     1      44.860   3.369   9.690  0.00  0.00    +0.000 C 
ATOM     10  N   UNL     1      45.295   2.906  10.913  0.00  0.00    +0.000 N 
ATOM     11  H   UNL     1      46.199   2.457  10.984  0.00  0.00    +0.000 HD
BRANCH   9  12
ATOM     12  C   UNL     1      45.644   2.908   8.513  0.00  0.00    +0.000 A 
ATOM     13  C   UNL     1      45.978   3.843   7.522  0.00  0.00    +0.000 A 
ATOM     14  C   UNL     1      46.777   3.458   6.444  0.00  0.00    +0.000 A 
ATOM     15  C   UNL     1      47.220   2.142   6.354  0.00  0.00    +0.000 A 
ATOM     16  F   UNL     1      48.007   1.780   5.333  0.00  0.00    +0.000 F 
ATOM     17  C   UNL     1      46.860   1.196   7.308  0.00  0.00    +0.000 A 
ATOM     18  C   UNL     1      46.063   1.575   8.389  0.00  0.00    +0.000 A 
ENDBRANCH   9  12
ENDBRANCH   7  10
ENDBRANCH   1   7
BRANCH   4  19
ATOM     19  C   UNL     1      48.269   6.971  15.009  0.00  0.00    +0.000 C 
BRANCH  19  20
ATOM     20  N   UNL     1      49.379   6.257  15.590  0.00  0.00    +0.000 N 
ATOM     21  C   UNL     1      49.403   5.915  16.922  0.00  0.00    +0.000 C 
ATOM     22  O   UNL     1      48.483   6.178  17.684  0.00  0.00    +0.000 OA
ATOM     23  H   UNL     1      50.262   6.310  15.088  0.00  0.00    +0.000 HD
BRANCH  21  24
ATOM     24  C   UNL     1      50.580   5.150  17.361  0.00  0.00    +0.000 A 
ATOM     25  C   UNL     1      51.699   5.810  17.848  0.00  0.00    +0.000 A 
ATOM     26  S   UNL     1      52.948   4.758  18.349  0.00  0.00    +0.000 S 
ATOM     27  C   UNL     1      52.056   3.387  17.883  0.00  0.00    +0.000 A 
ATOM     28  N   UNL     1      52.570   2.134  18.012  0.00  0.00    +0.000 NA
ATOM     29  C   UNL     1      51.799   1.191  17.592  0.00  0.00    +0.000 A 
ATOM     30  N   UNL     1      50.546   1.386  17.063  0.00  0.00    +0.000 N 
ATOM     31  C   UNL     1      49.966   2.625  16.962  0.00  0.00    +0.000 A 
ATOM     32  O   UNL     1      48.815   2.757  16.564  0.00  0.00    +0.000 OA
ATOM     33  C   UNL     1      50.812   3.724  17.386  0.00  0.00    +0.000 A 
ATOM     34  H   UNL     1      49.979   0.603  16.774  0.00  0.00    +0.000 HD
ENDBRANCH  21  24
ENDBRANCH  19  20
ENDBRANCH   4  19
TORSDOF 6
ENDMDL
MODEL 2
REMARK VINA RESULT:    -8.512      2.221      2.484
REMARK INTER + INTRA:         -12.326
REMARK INTER:                 -11.293
REMARK INTRA:                  -1.033
REMARK UNBOUND:                -0.829
REMARK  Name = 
REMARK  6 active torsions:
REMARK  status: ('A' for Active; 'I' for Inactive)
REMARK    1  A    between atoms: C_2  and  C_25
REMARK    2  A    between atoms: N_3  and  C_4
REMARK    3  A    between atoms: C_4  and  C_5
REMARK    4  A    between atoms: C_8  and  C_9
REMARK    5  A    between atoms: C_9  and  N_10
REMARK    6  A    between atoms: C_11  and  C_13
REMARK                            x       y       z     vdW  Elec       q    Type
REMARK                         _______ _______ _______ _____ _____    ______ ____
ROOT
ATOM      1  C   UNL     1      45.052   6.403  11.543  0.00  0.00    +0.000 A 
ATOM      2  C   UNL     1      44.727   7.743  11.792  0.00  0.00    +0.000 A 
ATOM      3  C   UNL     1      45.526   8.532  12.631  0.00  0.00    +0.000 A 
ATOM      4  C   UNL     1      46.679   8.001  13.228  0.00  0.00    +0.000 A 
ATOM      5  C   UNL     1      46.994   6.656  12.985  0.00  0.00    +0.000 A 
ATOM      6  C   UNL     1      46.200   5.870  12.143  0.00  0.00    +0.000 A 
ENDROOT
BRANCH   1   7
ATOM      7  C   UNL     1      44.201   5.569  10.619  0.00  0.00    +0.000 C 
BRANCH   7  10
ATOM      8  O   UNL     1      43.975   2.844  10.005  0.00  0.00    +0.000 OA
ATOM      9  C   UNL     1      44.808   3.522   9.416  0.00  0.00    +0.000 C 
ATOM     10  N   UNL     1      45.011   4.864   9.655  0.00  0.00    +0.000 N 
ATOM     11  H   UNL     1      45.540   5.415   8.991  0.00  0.00    +0.000 HD
BRANCH   9  12
ATOM     12  C   UNL     1      45.636   2.930   8.332  0.00  0.00    +0.000 A 
ATOM     13  C   UNL     1      46.019   3.747   7.258  0.00  0.00    +0.000 A 
ATOM     14  C   UNL     1      46.858   3.241   6.264  0.00  0.00    +0.000 A 
ATOM     15  C   UNL     1      47.293   1.922   6.340  0.00  0.00    +0.000 A 
ATOM     16  F   UNL     1      48.119   1.445   5.400  0.00  0.00    +0.000 F 
ATOM     17  C   UNL     1      46.886   1.089   7.377  0.00  0.00    +0.000 A 
ATOM     18  C   UNL     1      46.049   1.590   8.375  0.00  0.00    +0.000 A 
ENDBRANCH   9  12
ENDBRANCH   7  10
ENDBRANCH   1   7
BRANCH   4  19
ATOM     19  C   UNL     1      47.575   8.840  14.110  0.00  0.00    +0.000 C 
BRANCH  19  20
ATOM     20  N   UNL     1      47.914   8.174  15.342  0.00  0.00    +0.000 N 
ATOM     21  C   UNL     1      49.211   7.832  15.648  0.00  0.00    +0.000 C 
ATOM     22  O   UNL     1      50.150   8.086  14.906  0.00  0.00    +0.000 OA
ATOM     23  H   UNL     1      47.160   7.676  15.808  0.00  0.00    +0.000 HD
BRANCH  21  24
ATOM     24  C   UNL     1      49.409   7.197  16.961  0.00  0.00    +0.000 A 
ATOM     25  C   UNL     1      50.061   7.883  17.976  0.00  0.00    +0.000 A 
ATOM     26  S   UNL     1      50.159   7.006  19.438  0.00  0.00    +0.000 S 
ATOM     27  C   UNL     1      49.379   5.661  18.749  0.00  0.00    +0.000 A 
ATOM     28  N   UNL     1      49.169   4.524  19.466  0.00  0.00    +0.000 NA
ATOM     29  C   UNL     1      48.595   3.575  18.810  0.00  0.00    +0.000 A 
ATOM     30  N   UNL     1      48.198   3.662  17.498  0.00  0.00    +0.000 N 
ATOM     31  C   UNL     1      48.341   4.804  16.753  0.00  0.00    +0.000 A 
ATOM     32  O   UNL     1      47.900   4.877  15.611  0.00  0.00    +0.000 OA
ATOM     33  C   UNL     1      49.018   5.889  17.435  0.00  0.00    +0.000 A 
ATOM     34  H   UNL     1      47.729   2.890  17.047  0.00  0.00    +0.000 HD
ENDBRANCH  21  24
ENDBRANCH  19  20
ENDBRANCH   4  19
TORSDOF 6
ENDMDL
MODEL 3
REMARK VINA RESULT:    -8.278      3.231      3.988
REMARK INTER + INTRA:         -12.010
REMARK INTER:                 -11.086
REMARK INTRA:                  -0.924
REMARK UNBOUND:                -0.829
REMARK  Name = 
REMARK  6 active torsions:
REMARK  status: ('A' for Active; 'I' for Inactive)
REMARK    1  A    between atoms: C_2  and  C_25
REMARK    2  A    between atoms: N_3  and  C_4
REMARK    3  A    between atoms: C_4  and  C_5
REMARK    4  A    between atoms: C_8  and  C_9
REMARK    5  A    between atoms: C_9  and  N_10
REMARK    6  A    between atoms: C_11  and  C_13
REMARK                            x       y       z     vdW  Elec       q    Type
REMARK                         _______ _______ _______ _____ _____    ______ ____
ROOT
ATOM      1  C   UNL     1      45.314   6.434  11.739  0.00  0.00    +0.000 A 
ATOM      2  C   UNL     1      46.597   6.046  12.147  0.00  0.00    +0.000 A 
ATOM      3  C   UNL     1      47.403   6.909  12.902  0.00  0.00    +0.000 A 
ATOM      4  C   UNL     1      46.936   8.177  13.280  0.00  0.00    +0.000 A 
ATOM      5  C   UNL     1      45.656   8.566  12.859  0.00  0.00    +0.000 A 
ATOM      6  C   UNL     1      44.849   7.701  12.110  0.00  0.00    +0.000 A 
ENDROOT
BRANCH   1   7
ATOM      7  C   UNL     1      44.445   5.489  10.949  0.00  0.00    +0.000 C 
BRANCH   7  10
ATOM      8  O   UNL     1      43.889   2.914   9.993  0.00  0.00    +0.000 OA
ATOM      9  C   UNL     1      44.840   3.531   9.529  0.00  0.00    +0.000 C 
ATOM     10  N   UNL     1      45.208   4.794   9.941  0.00  0.00    +0.000 N 
ATOM     11  H   UNL     1      45.845   5.338   9.374  0.00  0.00    +0.000 HD
BRANCH   9  12
ATOM     12  C   UNL     1      45.643   2.958   8.416  0.00  0.00    +0.000 A 
ATOM     13  C   UNL     1      46.003   3.794   7.349  0.00  0.00    +0.000 A 
ATOM     14  C   UNL     1      46.820   3.306   6.328  0.00  0.00    +0.000 A 
ATOM     15  C   UNL     1      47.256   1.985   6.371  0.00  0.00    +0.000 A 
ATOM     16  F   UNL     1      48.061   1.525   5.405  0.00  0.00    +0.000 F 
ATOM     17  C   UNL     1      46.871   1.134   7.402  0.00  0.00    +0.000 A 
ATOM     18  C   UNL     1      46.056   1.617   8.427  0.00  0.00    +0.000 A 
ENDBRANCH   9  12
ENDBRANCH   7  10
ENDBRANCH   1   7
BRANCH   4  19
ATOM     19  C   UNL     1      47.772   9.113  14.122  0.00  0.00    +0.000 C 
BRANCH  19  20
ATOM     20  N   UNL     1      47.550   8.930  15.533  0.00  0.00    +0.000 N 
ATOM     21  C   UNL     1      48.370   9.505  16.477  0.00  0.00    +0.000 C 
ATOM     22  O   UNL     1      49.319  10.215  16.177  0.00  0.00    +0.000 OA
ATOM     23  H   UNL     1      46.998   8.119  15.802  0.00  0.00    +0.000 HD
BRANCH  21  24
ATOM     24  C   UNL     1      47.992   9.265  17.879  0.00  0.00    +0.000 A 
ATOM     25  C   UNL     1      47.598  10.323  18.685  0.00  0.00    +0.000 A 
ATOM     26  S   UNL     1      47.156   9.850  20.265  0.00  0.00    +0.000 S 
ATOM     27  C   UNL     1      47.525   8.222  19.941  0.00  0.00    +0.000 A 
ATOM     28  N   UNL     1      47.400   7.265  20.900  0.00  0.00    +0.000 NA
ATOM     29  C   UNL     1      47.742   6.081  20.525  0.00  0.00    +0.000 A 
ATOM     30  N   UNL     1      48.190   5.760  19.267  0.00  0.00    +0.000 N 
ATOM     31  C   UNL     1      48.283   6.680  18.254  0.00  0.00    +0.000 A 
ATOM     32  O   UNL     1      48.606   6.345  17.120  0.00  0.00    +0.000 OA
ATOM     33  C   UNL     1      47.946   8.037  18.637  0.00  0.00    +0.000 A 
ATOM     34  H   UNL     1      48.419   4.807  19.027  0.00  0.00    +0.000 HD
ENDBRANCH  21  24
ENDBRANCH  19  20
ENDBRANCH   4  19
TORSDOF 6
ENDMDL
MODEL 4
REMARK VINA RESULT:    -7.915      4.634      5.398
REMARK INTER + INTRA:         -11.520
REMARK INTER:                 -10.418
REMARK INTRA:                  -1.102
REMARK UNBOUND:                -0.829
REMARK  Name = 
REMARK  6 active torsions:
REMARK  status: ('A' for Active; 'I' for Inactive)
REMARK    1  A    between atoms: C_2  and  C_25
REMARK    2  A    between atoms: N_3  and  C_4
REMARK    3  A    between atoms: C_4  and  C_5
REMARK    4  A    between atoms: C_8  and  C_9
REMARK    5  A    between atoms: C_9  and  N_10
REMARK    6  A    between atoms: C_11  and  C_13
REMARK                            x       y       z     vdW  Elec       q    Type
REMARK                         _______ _______ _______ _____ _____    ______ ____
ROOT
ATOM      1  C   UNL     1      45.071   4.852  12.341  0.00  0.00    +0.000 A 
ATOM      2  C   UNL     1      44.288   5.970  12.025  0.00  0.00    +0.000 A 
ATOM      3  C   UNL     1      44.738   7.266  12.312  0.00  0.00    +0.000 A 
ATOM      4  C   UNL     1      45.990   7.474  12.909  0.00  0.00    +0.000 A 
ATOM      5  C   UNL     1      46.765   6.351  13.234  0.00  0.00    +0.000 A 
ATOM      6  C   UNL     1      46.319   5.057  12.943  0.00  0.00    +0.000 A 
ENDROOT
BRANCH   1   7
ATOM      7  C   UNL     1      44.592   3.463  12.005  0.00  0.00    +0.000 C 
BRANCH   7  10
ATOM      8  O   UNL     1      43.806   3.931   9.356  0.00  0.00    +0.000 OA
ATOM      9  C   UNL     1      44.800   3.249   9.573  0.00  0.00    +0.000 C 
ATOM     10  N   UNL     1      45.261   2.946  10.836  0.00  0.00    +0.000 N 
ATOM     11  H   UNL     1      46.198   2.582  10.952  0.00  0.00    +0.000 HD
BRANCH   9  12
ATOM     12  C   UNL     1      45.629   2.742   8.448  0.00  0.00    +0.000 A 
ATOM     13  C   UNL     1      45.997   3.634   7.430  0.00  0.00    +0.000 A 
ATOM     14  C   UNL     1      46.838   3.206   6.401  0.00  0.00    +0.000 A 
ATOM     15  C   UNL     1      47.288   1.890   6.386  0.00  0.00    +0.000 A 
ATOM     16  F   UNL     1      48.115   1.487   5.412  0.00  0.00    +0.000 F 
ATOM     17  C   UNL     1      46.895   0.984   7.366  0.00  0.00    +0.000 A 
ATOM     18  C   UNL     1      46.057   1.406   8.399  0.00  0.00    +0.000 A 
ENDBRANCH   9  12
ENDBRANCH   7  10
ENDBRANCH   1   7
BRANCH   4  19
ATOM     19  C   UNL     1      46.511   8.863  13.198  0.00  0.00    +0.000 C 
BRANCH  19  20
ATOM     20  N   UNL     1      47.683   9.183  12.424  0.00  0.00    +0.000 N 
ATOM     21  C   UNL     1      48.678   9.996  12.916  0.00  0.00    +0.000 C 
ATOM     22  O   UNL     1      48.635  10.479  14.039  0.00  0.00    +0.000 OA
ATOM     23  H   UNL     1      47.602   9.075  11.416  0.00  0.00    +0.000 HD
BRANCH  21  24
ATOM     24  C   UNL     1      49.834  10.196  12.028  0.00  0.00    +0.000 A 
ATOM     25  C   UNL     1      50.231  11.478  11.678  0.00  0.00    +0.000 A 
ATOM     26  S   UNL     1      51.615  11.516  10.678  0.00  0.00    +0.000 S 
ATOM     27  C   UNL     1      51.700   9.818  10.637  0.00  0.00    +0.000 A 
ATOM     28  N   UNL     1      52.657   9.177   9.913  0.00  0.00    +0.000 NA
ATOM     29  C   UNL     1      52.584   7.891   9.948  0.00  0.00    +0.000 A 
ATOM     30  N   UNL     1      51.644   7.181  10.654  0.00  0.00    +0.000 N 
ATOM     31  C   UNL     1      50.694   7.783  11.439  0.00  0.00    +0.000 A 
ATOM     32  O   UNL     1      49.923   7.120  12.123  0.00  0.00    +0.000 OA
ATOM     33  C   UNL     1      50.709   9.232  11.402  0.00  0.00    +0.000 A 
ATOM     34  H   UNL     1      51.655   6.172  10.662  0.00  0.00    +0.000 HD
ENDBRANCH  21  24
ENDBRANCH  19  20
ENDBRANCH   4  19
TORSDOF 6
ENDMDL
MODEL 5
REMARK VINA RESULT:    -7.114      5.479      8.268
REMARK INTER + INTRA:         -10.438
REMARK INTER:                  -9.412
REMARK INTRA:                  -1.027
REMARK UNBOUND:                -0.829
REMARK  Name = 
REMARK  6 active torsions:
REMARK  status: ('A' for Active; 'I' for Inactive)
REMARK    1  A    between atoms: C_2  and  C_25
REMARK    2  A    between atoms: N_3  and  C_4
REMARK    3  A    between atoms: C_4  and  C_5
REMARK    4  A    between atoms: C_8  and  C_9
REMARK    5  A    between atoms: C_9  and  N_10
REMARK    6  A    between atoms: C_11  and  C_13
REMARK                            x       y       z     vdW  Elec       q    Type
REMARK                         _______ _______ _______ _____ _____    ______ ____
ROOT
ATOM      1  C   UNL     1      50.201   9.050  11.472  0.00  0.00    +0.000 A 
ATOM      2  C   UNL     1      49.227  10.054  11.565  0.00  0.00    +0.000 A 
ATOM      3  C   UNL     1      47.936   9.761  12.024  0.00  0.00    +0.000 A 
ATOM      4  C   UNL     1      47.594   8.458  12.417  0.00  0.00    +0.000 A 
ATOM      5  C   UNL     1      48.568   7.455  12.311  0.00  0.00    +0.000 A 
ATOM      6  C   UNL     1      49.860   7.748  11.858  0.00  0.00    +0.000 A 
ENDROOT
BRANCH   1   7
ATOM      7  C   UNL     1      51.595   9.379  11.001  0.00  0.00    +0.000 C 
BRANCH   7  10
ATOM      8  O   UNL     1      53.650   7.508  11.360  0.00  0.00    +0.000 OA
ATOM      9  C   UNL     1      53.058   7.547  10.288  0.00  0.00    +0.000 C 
ATOM     10  N   UNL     1      52.046   8.439  10.004  0.00  0.00    +0.000 N 
ATOM     11  H   UNL     1      51.448   8.277   9.204  0.00  0.00    +0.000 HD
BRANCH   9  12
ATOM     12  C   UNL     1      53.368   6.564   9.217  0.00  0.00    +0.000 A 
ATOM     13  C   UNL     1      52.642   6.627   8.018  0.00  0.00    +0.000 A 
ATOM     14  C   UNL     1      52.962   5.767   6.966  0.00  0.00    +0.000 A 
ATOM     15  C   UNL     1      53.988   4.841   7.124  0.00  0.00    +0.000 A 
ATOM     16  F   UNL     1      54.310   4.034   6.106  0.00  0.00    +0.000 F 
ATOM     17  C   UNL     1      54.686   4.739   8.323  0.00  0.00    +0.000 A 
ATOM     18  C   UNL     1      54.373   5.598   9.378  0.00  0.00    +0.000 A 
ENDBRANCH   9  12
ENDBRANCH   7  10
ENDBRANCH   1   7
BRANCH   4  19
ATOM     19  C   UNL     1      46.218   8.124  12.947  0.00  0.00    +0.000 C 
BRANCH  19  20
ATOM     20  N   UNL     1      45.795   6.797  12.578  0.00  0.00    +0.000 N 
ATOM     21  C   UNL     1      44.733   6.584  11.730  0.00  0.00    +0.000 C 
ATOM     22  O   UNL     1      44.101   7.502  11.227  0.00  0.00    +0.000 OA
ATOM     23  H   UNL     1      46.071   6.045  13.204  0.00  0.00    +0.000 HD
BRANCH  21  24
ATOM     24  C   UNL     1      44.446   5.177  11.410  0.00  0.00    +0.000 A 
ATOM     25  C   UNL     1      43.672   4.410  12.269  0.00  0.00    +0.000 A 
ATOM     26  S   UNL     1      43.410   2.817  11.713  0.00  0.00    +0.000 S 
ATOM     27  C   UNL     1      44.365   3.082  10.331  0.00  0.00    +0.000 A 
ATOM     28  N   UNL     1      44.587   2.090   9.427  0.00  0.00    +0.000 NA
ATOM     29  C   UNL     1      45.353   2.421   8.445  0.00  0.00    +0.000 A 
ATOM     30  N   UNL     1      45.911   3.665   8.276  0.00  0.00    +0.000 N 
ATOM     31  C   UNL     1      45.673   4.709   9.132  0.00  0.00    +0.000 A 
ATOM     32  O   UNL     1      46.118   5.829   8.908  0.00  0.00    +0.000 OA
ATOM     33  C   UNL     1      44.848   4.376  10.276  0.00  0.00    +0.000 A 
ATOM     34  H   UNL     1      46.484   3.870   7.470  0.00  0.00    +0.000 HD
ENDBRANCH  21  24
ENDBRANCH  19  20
ENDBRANCH   4  19
TORSDOF 6
ENDMDL
MODEL 6
REMARK VINA RESULT:    -6.777      2.731      4.323
REMARK INTER + INTRA:          -9.983
REMARK INTER:                  -9.182
REMARK INTRA:                  -0.801
REMARK UNBOUND:                -0.829
REMARK  Name = 
REMARK  6 active torsions:
REMARK  status: ('A' for Active; 'I' for Inactive)
REMARK    1  A    between atoms: C_2  and  C_25
REMARK    2  A    between atoms: N_3  and  C_4
REMARK    3  A    between atoms: C_4  and  C_5
REMARK    4  A    between atoms: C_8  and  C_9
REMARK    5  A    between atoms: C_9  and  N_10
REMARK    6  A    between atoms: C_11  and  C_13
REMARK                            x       y       z     vdW  Elec       q    Type
REMARK                         _______ _______ _______ _____ _____    ______ ____
ROOT
ATOM      1  C   UNL     1      45.193   4.719  11.922  0.00  0.00    +0.000 A 
ATOM      2  C   UNL     1      45.597   5.950  12.457  0.00  0.00    +0.000 A 
ATOM      3  C   UNL     1      46.352   6.007  13.637  0.00  0.00    +0.000 A 
ATOM      4  C   UNL     1      46.734   4.832  14.300  0.00  0.00    +0.000 A 
ATOM      5  C   UNL     1      46.318   3.603  13.768  0.00  0.00    +0.000 A 
ATOM      6  C   UNL     1      45.569   3.545  12.587  0.00  0.00    +0.000 A 
ENDROOT
BRANCH   1   7
ATOM      7  C   UNL     1      44.404   4.665  10.639  0.00  0.00    +0.000 C 
BRANCH   7  10
ATOM      8  O   UNL     1      44.632   2.102   9.529  0.00  0.00    +0.000 OA
ATOM      9  C   UNL     1      45.274   3.024   9.040  0.00  0.00    +0.000 C 
ATOM     10  N   UNL     1      45.246   4.315   9.520  0.00  0.00    +0.000 N 
ATOM     11  H   UNL     1      45.606   5.069   8.949  0.00  0.00    +0.000 HD
BRANCH   9  12
ATOM     12  C   UNL     1      46.102   2.808   7.824  0.00  0.00    +0.000 A 
ATOM     13  C   UNL     1      46.748   1.573   7.663  0.00  0.00    +0.000 A 
ATOM     14  C   UNL     1      47.470   1.314   6.497  0.00  0.00    +0.000 A 
ATOM     15  C   UNL     1      47.556   2.292   5.512  0.00  0.00    +0.000 A 
ATOM     16  F   UNL     1      48.228   2.033   4.382  0.00  0.00    +0.000 F 
ATOM     17  C   UNL     1      46.956   3.536   5.679  0.00  0.00    +0.000 A 
ATOM     18  C   UNL     1      46.231   3.801   6.841  0.00  0.00    +0.000 A 
ENDBRANCH   9  12
ENDBRANCH   7  10
ENDBRANCH   1   7
BRANCH   4  19
ATOM     19  C   UNL     1      47.576   4.867  15.555  0.00  0.00    +0.000 C 
BRANCH  19  20
ATOM     20  N   UNL     1      48.214   6.143  15.754  0.00  0.00    +0.000 N 
ATOM     21  C   UNL     1      48.787   6.488  16.956  0.00  0.00    +0.000 C 
ATOM     22  O   UNL     1      48.803   5.731  17.917  0.00  0.00    +0.000 OA
ATOM     23  H   UNL     1      47.944   6.887  15.116  0.00  0.00    +0.000 HD
BRANCH  21  24
ATOM     24  C   UNL     1      49.440   7.805  16.995  0.00  0.00    +0.000 A 
ATOM     25  C   UNL     1      50.590   8.036  16.253  0.00  0.00    +0.000 A 
ATOM     26  S   UNL     1      51.181   9.632  16.388  0.00  0.00    +0.000 S 
ATOM     27  C   UNL     1      49.951  10.055  17.484  0.00  0.00    +0.000 A 
ATOM     28  N   UNL     1      49.891  11.299  18.031  0.00  0.00    +0.000 NA
ATOM     29  C   UNL     1      48.926  11.471  18.867  0.00  0.00    +0.000 A 
ATOM     30  N   UNL     1      48.001  10.511  19.200  0.00  0.00    +0.000 N 
ATOM     31  C   UNL     1      47.991   9.262  18.635  0.00  0.00    +0.000 A 
ATOM     32  O   UNL     1      47.103   8.456  18.891  0.00  0.00    +0.000 OA
ATOM     33  C   UNL     1      49.082   9.005  17.716  0.00  0.00    +0.000 A 
ATOM     34  H   UNL     1      47.251  10.716  19.844  0.00  0.00    +0.000 HD
ENDBRANCH  21  24
ENDBRANCH  19  20
ENDBRANCH   4  19
TORSDOF 6
ENDMDL
MODEL 7
REMARK VINA RESULT:    -6.557      5.279     10.078
REMARK INTER + INTRA:          -9.685
REMARK INTER:                  -8.891
REMARK INTRA:                  -0.795
REMARK UNBOUND:                -0.829
REMARK  Name = 
REMARK  6 active torsions:
REMARK  status: ('A' for Active; 'I' for Inactive)
REMARK    1  A    between atoms: C_2  and  C_25
REMARK    2  A    between atoms: N_3  and  C_4
REMARK    3  A    between atoms: C_4  and  C_5
REMARK    4  A    between atoms: C_8  and  C_9
REMARK    5  A    between atoms: C_9  and  N_10
REMARK    6  A    between atoms: C_11  and  C_13
REMARK                            x       y       z     vdW  Elec       q    Type
REMARK                         _______ _______ _______ _____ _____    ______ ____
ROOT
ATOM      1  C   UNL     1      46.201   7.238  12.867  0.00  0.00    +0.000 A 
ATOM      2  C   UNL     1      45.100   7.222  12.001  0.00  0.00    +0.000 A 
ATOM      3  C   UNL     1      44.456   6.019  11.679  0.00  0.00    +0.000 A 
ATOM      4  C   UNL     1      44.891   4.805  12.231  0.00  0.00    +0.000 A 
ATOM      5  C   UNL     1      46.001   4.824  13.088  0.00  0.00    +0.000 A 
ATOM      6  C   UNL     1      46.640   6.025  13.414  0.00  0.00    +0.000 A 
ENDROOT
BRANCH   1   7
ATOM      7  C   UNL     1      46.871   8.539  13.228  0.00  0.00    +0.000 C 
BRANCH   7  10
ATOM      8  O   UNL     1      49.413   8.546  14.409  0.00  0.00    +0.000 OA
ATOM      9  C   UNL     1      48.422   8.631  15.124  0.00  0.00    +0.000 C 
ATOM     10  N   UNL     1      47.129   8.619  14.646  0.00  0.00    +0.000 N 
ATOM     11  H   UNL     1      46.372   8.920  15.246  0.00  0.00    +0.000 HD
BRANCH   9  12
ATOM     12  C   UNL     1      48.562   8.817  16.592  0.00  0.00    +0.000 A 
ATOM     13  C   UNL     1      48.196  10.050  17.151  0.00  0.00    +0.000 A 
ATOM     14  C   UNL     1      48.245  10.229  18.534  0.00  0.00    +0.000 A 
ATOM     15  C   UNL     1      48.674   9.184  19.346  0.00  0.00    +0.000 A 
ATOM     16  F   UNL     1      48.696   9.348  20.675  0.00  0.00    +0.000 F 
ATOM     17  C   UNL     1      49.081   7.970  18.801  0.00  0.00    +0.000 A 
ATOM     18  C   UNL     1      49.032   7.785  17.419  0.00  0.00    +0.000 A 
ENDBRANCH   9  12
ENDBRANCH   7  10
ENDBRANCH   1   7
BRANCH   4  19
ATOM     19  C   UNL     1      44.194   3.499  11.925  0.00  0.00    +0.000 C 
BRANCH  19  20
ATOM     20  N   UNL     1      44.889   2.724  10.928  0.00  0.00    +0.000 N 
ATOM     21  C   UNL     1      44.694   2.933   9.582  0.00  0.00    +0.000 C 
ATOM     22  O   UNL     1      43.938   3.794   9.154  0.00  0.00    +0.000 OA
ATOM     23  H   UNL     1      45.255   1.825  11.230  0.00  0.00    +0.000 HD
BRANCH  21  24
ATOM     24  C   UNL     1      45.506   2.097   8.685  0.00  0.00    +0.000 A 
ATOM     25  C   UNL     1      45.399   0.714   8.732  0.00  0.00    +0.000 A 
ATOM     26  S   UNL     1      46.384  -0.087   7.590  0.00  0.00    +0.000 S 
ATOM     27  C   UNL     1      47.026   1.385   7.029  0.00  0.00    +0.000 A 
ATOM     28  N   UNL     1      47.972   1.414   6.052  0.00  0.00    +0.000 NA
ATOM     29  C   UNL     1      48.391   2.594   5.746  0.00  0.00    +0.000 A 
ATOM     30  N   UNL     1      47.937   3.756   6.321  0.00  0.00    +0.000 N 
ATOM     31  C   UNL     1      46.948   3.779   7.270  0.00  0.00    +0.000 A 
ATOM     32  O   UNL     1      46.507   4.838   7.702  0.00  0.00    +0.000 OA
ATOM     33  C   UNL     1      46.472   2.472   7.678  0.00  0.00    +0.000 A 
ATOM     34  H   UNL     1      48.287   4.653   6.019  0.00  0.00    +0.000 HD
ENDBRANCH  21  24
ENDBRANCH  19  20
ENDBRANCH   4  19
TORSDOF 6
ENDMDL
MODEL 8
REMARK VINA RESULT:    -6.535      3.868      4.684
REMARK INTER + INTRA:          -9.657
REMARK INTER:                  -8.634
REMARK INTRA:                  -1.023
REMARK UNBOUND:                -0.829
REMARK  Name = 
REMARK  6 active torsions:
REMARK  status: ('A' for Active; 'I' for Inactive)
REMARK    1  A    between atoms: C_2  and  C_25
REMARK    2  A    between atoms: N_3  and  C_4
REMARK    3  A    between atoms: C_4  and  C_5
REMARK    4  A    between atoms: C_8  and  C_9
REMARK    5  A    between atoms: C_9  and  N_10
REMARK    6  A    between atoms: C_11  and  C_13
REMARK                            x       y       z     vdW  Elec       q    Type
REMARK                         _______ _______ _______ _____ _____    ______ ____
ROOT
ATOM      1  C   UNL     1      45.280   6.114  11.961  0.00  0.00    +0.000 A 
ATOM      2  C   UNL     1      46.120   5.208  12.622  0.00  0.00    +0.000 A 
ATOM      3  C   UNL     1      47.170   5.662  13.433  0.00  0.00    +0.000 A 
ATOM      4  C   UNL     1      47.393   7.035  13.613  0.00  0.00    +0.000 A 
ATOM      5  C   UNL     1      46.557   7.938  12.941  0.00  0.00    +0.000 A 
ATOM      6  C   UNL     1      45.506   7.486  12.136  0.00  0.00    +0.000 A 
ENDROOT
BRANCH   1   7
ATOM      7  C   UNL     1      44.138   5.618  11.112  0.00  0.00    +0.000 C 
BRANCH   7  10
ATOM      8  O   UNL     1      45.739   5.792   8.819  0.00  0.00    +0.000 OA
ATOM      9  C   UNL     1      45.345   4.693   9.191  0.00  0.00    +0.000 C 
ATOM     10  N   UNL     1      44.541   4.501  10.293  0.00  0.00    +0.000 N 
ATOM     11  H   UNL     1      44.439   3.572  10.681  0.00  0.00    +0.000 HD
BRANCH   9  12
ATOM     12  C   UNL     1      45.774   3.457   8.485  0.00  0.00    +0.000 A 
ATOM     13  C   UNL     1      46.590   3.581   7.350  0.00  0.00    +0.000 A 
ATOM     14  C   UNL     1      47.071   2.437   6.712  0.00  0.00    +0.000 A 
ATOM     15  C   UNL     1      46.721   1.181   7.198  0.00  0.00    +0.000 A 
ATOM     16  F   UNL     1      47.203   0.084   6.600  0.00  0.00    +0.000 F 
ATOM     17  C   UNL     1      45.878   1.045   8.297  0.00  0.00    +0.000 A 
ATOM     18  C   UNL     1      45.396   2.185   8.941  0.00  0.00    +0.000 A 
ENDBRANCH   9  12
ENDBRANCH   7  10
ENDBRANCH   1   7
BRANCH   4  19
ATOM     19  C   UNL     1      48.498   7.549  14.508  0.00  0.00    +0.000 C 
BRANCH  19  20
ATOM     20  N   UNL     1      49.765   7.629  13.827  0.00  0.00    +0.000 N 
ATOM     21  C   UNL     1      50.274   8.826  13.381  0.00  0.00    +0.000 C 
ATOM     22  O   UNL     1      49.693   9.890  13.550  0.00  0.00    +0.000 OA
ATOM     23  H   UNL     1      50.102   6.771  13.398  0.00  0.00    +0.000 HD
BRANCH  21  24
ATOM     24  C   UNL     1      51.598   8.757  12.744  0.00  0.00    +0.000 A 
ATOM     25  C   UNL     1      51.748   9.100  11.408  0.00  0.00    +0.000 A 
ATOM     26  S   UNL     1      53.360   9.001  10.854  0.00  0.00    +0.000 S 
ATOM     27  C   UNL     1      53.905   8.446  12.367  0.00  0.00    +0.000 A 
ATOM     28  N   UNL     1      55.211   8.129  12.574  0.00  0.00    +0.000 NA
ATOM     29  C   UNL     1      55.477   7.693  13.757  0.00  0.00    +0.000 A 
ATOM     30  N   UNL     1      54.553   7.556  14.763  0.00  0.00    +0.000 N 
ATOM     31  C   UNL     1      53.237   7.911  14.617  0.00  0.00    +0.000 A 
ATOM     32  O   UNL     1      52.455   7.855  15.560  0.00  0.00    +0.000 OA
ATOM     33  C   UNL     1      52.879   8.371  13.290  0.00  0.00    +0.000 A 
ATOM     34  H   UNL     1      54.829   7.232  15.679  0.00  0.00    +0.000 HD
ENDBRANCH  21  24
ENDBRANCH  19  20
ENDBRANCH   4  19
TORSDOF 6
ENDMDL
MODEL 9
REMARK VINA RESULT:    -6.383      3.517      4.603
REMARK INTER + INTRA:          -9.451
REMARK INTER:                  -8.324
REMARK INTRA:                  -1.127
REMARK UNBOUND:                -0.829
REMARK  Name = 
REMARK  6 active torsions:
REMARK  status: ('A' for Active; 'I' for Inactive)
REMARK    1  A    between atoms: C_2  and  C_25
REMARK    2  A    between atoms: N_3  and  C_4
REMARK    3  A    between atoms: C_4  and  C_5
REMARK    4  A    between atoms: C_8  and  C_9
REMARK    5  A    between atoms: C_9  and  N_10
REMARK    6  A    between atoms: C_11  and  C_13
REMARK                            x       y       z     vdW  Elec       q    Type
REMARK                         _______ _______ _______ _____ _____    ______ ____
ROOT
ATOM      1  C   UNL     1      44.848   5.074  11.604  0.00  0.00    +0.000 A 
ATOM      2  C   UNL     1      44.850   6.172  10.734  0.00  0.00    +0.000 A 
ATOM      3  C   UNL     1      45.006   7.477  11.223  0.00  0.00    +0.000 A 
ATOM      4  C   UNL     1      45.180   7.710  12.596  0.00  0.00    +0.000 A 
ATOM      5  C   UNL     1      45.166   6.609  13.464  0.00  0.00    +0.000 A 
ATOM      6  C   UNL     1      45.016   5.307  12.975  0.00  0.00    +0.000 A 
ENDROOT
BRANCH   1   7
ATOM      7  C   UNL     1      44.706   3.673  11.067  0.00  0.00    +0.000 C 
BRANCH   7  10
ATOM      8  O   UNL     1      44.348   1.635   9.176  0.00  0.00    +0.000 OA
ATOM      9  C   UNL     1      45.249   2.450   9.014  0.00  0.00    +0.000 C 
ATOM     10  N   UNL     1      45.519   3.478   9.891  0.00  0.00    +0.000 N 
ATOM     11  H   UNL     1      46.112   4.243   9.597  0.00  0.00    +0.000 HD
BRANCH   9  12
ATOM     12  C   UNL     1      46.092   2.411   7.790  0.00  0.00    +0.000 A 
ATOM     13  C   UNL     1      46.907   1.290   7.572  0.00  0.00    +0.000 A 
ATOM     14  C   UNL     1      47.652   1.189   6.396  0.00  0.00    +0.000 A 
ATOM     15  C   UNL     1      47.592   2.215   5.458  0.00  0.00    +0.000 A 
ATOM     16  F   UNL     1      48.288   2.106   4.318  0.00  0.00    +0.000 F 
ATOM     17  C   UNL     1      46.822   3.351   5.682  0.00  0.00    +0.000 A 
ATOM     18  C   UNL     1      46.073   3.456   6.854  0.00  0.00    +0.000 A 
ENDBRANCH   9  12
ENDBRANCH   7  10
ENDBRANCH   1   7
BRANCH   4  19
ATOM     19  C   UNL     1      45.383   9.104  13.144  0.00  0.00    +0.000 C 
BRANCH  19  20
ATOM     20  N   UNL     1      46.728   9.319  13.615  0.00  0.00    +0.000 N 
ATOM     21  C   UNL     1      47.700   9.863  12.808  0.00  0.00    +0.000 C 
ATOM     22  O   UNL     1      47.479  10.211  11.656  0.00  0.00    +0.000 OA
ATOM     23  H   UNL     1      47.019   8.767  14.417  0.00  0.00    +0.000 HD
BRANCH  21  24
ATOM     24  C   UNL     1      49.013  10.064  13.441  0.00  0.00    +0.000 A 
ATOM     25  C   UNL     1      49.597  11.322  13.450  0.00  0.00    +0.000 A 
ATOM     26  S   UNL     1      51.097  11.373  14.265  0.00  0.00    +0.000 S 
ATOM     27  C   UNL     1      51.041   9.704  14.588  0.00  0.00    +0.000 A 
ATOM     28  N   UNL     1      52.056   9.078  15.242  0.00  0.00    +0.000 NA
ATOM     29  C   UNL     1      51.895   7.808  15.392  0.00  0.00    +0.000 A 
ATOM     30  N   UNL     1      50.799   7.104  14.957  0.00  0.00    +0.000 N 
ATOM     31  C   UNL     1      49.729   7.700  14.340  0.00  0.00    +0.000 A 
ATOM     32  O   UNL     1      48.730   7.057  14.039  0.00  0.00    +0.000 OA
ATOM     33  C   UNL     1      49.880   9.124  14.113  0.00  0.00    +0.000 A 
ATOM     34  H   UNL     1      50.720   6.112  15.127  0.00  0.00    +0.000 HD
ENDBRANCH  21  24
ENDBRANCH  19  20
ENDBRANCH   4  19
TORSDOF 6
ENDMDL
