MODEL 1
REMARK VINA RESULT:    -7.170      0.000      0.000
REMARK INTER + INTRA:         -12.347
REMARK INTER:                 -11.151
REMARK INTRA:                  -1.196
REMARK UNBOUND:                -1.196
REMARK  Name = 
REMARK  10 active torsions:
REMARK  status: ('A' for Active; 'I' for Inactive)
REMARK    1  A    between atoms: N_1  and  C_2
REMARK    2  A    between atoms: C_2  and  C_3
REMARK    3  A    between atoms: C_3  and  N_4
REMARK    4  A    between atoms: N_4  and  C_5
REMARK    5  A    between atoms: C_5  and  C_6
REMARK    6  A    between atoms: C_9  and  C_10
REMARK    7  A    between atoms: C_10  and  C_11
REMARK    8  A    between atoms: C_14  and  C_15
REMARK    9  A    between atoms: C_15  and  N_16
REMARK   10  A    between atoms: C_17  and  C_19
REMARK                            x       y       z     vdW  Elec       q    Type
REMARK                         _______ _______ _______ _____ _____    ______ ____
ROOT
ATOM      1  C   UNL     1      44.945   6.860  12.035  0.00  0.00    +0.000 A 
ATOM      2  C   UNL     1      45.971   6.076  12.582  0.00  0.00    +0.000 A 
ATOM      3  C   UNL     1      47.031   6.672  13.272  0.00  0.00    +0.000 A 
ATOM      4  C   UNL     1      47.079   8.061  13.441  0.00  0.00    +0.000 A 
ATOM      5  C   UNL     1      46.087   8.848  12.841  0.00  0.00    +0.000 A 
ATOM      6  C   UNL     1      45.026   8.253  12.152  0.00  0.00    +0.000 A 
ENDROOT
BRANCH   1   7
ATOM      7  C   UNL     1      43.756   6.213  11.362  0.00  0.00    +0.000 C 
BRANCH   7  11
ATOM      8  C   UNL     1      44.665   2.674   9.150  0.00  0.00    +0.000 A 
ATOM      9  C   UNL     1      45.242   3.877   8.748  0.00  0.00    +0.000 A 
ATOM     10  C   UNL     1      44.961   5.035   9.467  0.00  0.00    +0.000 A 
ATOM     11  C   UNL     1      44.100   4.981  10.566  0.00  0.00    +0.000 A 
ATOM     12  C   UNL     1      43.586   3.734  10.905  0.00  0.00    +0.000 A 
ATOM     13  N   UNL     1      43.840   2.590  10.229  0.00  0.00    +0.000 NA
BRANCH   8  14
ATOM     14  C   UNL     1      45.005   1.391   8.424  0.00  0.00    +0.000 C 
BRANCH  14  15
ATOM     15  N   UNL     1      46.439   1.032   8.445  0.00  0.00    +0.000 NA
ATOM     16  H   UNL     1      46.920   1.796   8.930  0.00  0.00    +0.000 HD
BRANCH  15  17
ATOM     17  C   UNL     1      47.021   0.996   7.089  0.00  0.00    +0.000 C 
BRANCH  17  18
ATOM     18  C   UNL     1      47.937   2.195   6.773  0.00  0.00    +0.000 C 
BRANCH  18  19
ATOM     19  N   UNL     1      48.409   2.148   5.383  0.00  0.00    +0.000 NA
ATOM     20  H   UNL     1      48.157   3.022   4.924  0.00  0.00    +0.000 HD
ATOM     21  H   UNL     1      47.901   1.413   4.890  0.00  0.00    +0.000 HD
ENDBRANCH  18  19
ENDBRANCH  17  18
ENDBRANCH  15  17
ENDBRANCH  14  15
ENDBRANCH   8  14
ENDBRANCH   7  11
ENDBRANCH   1   7
BRANCH   4  22
ATOM     22  C   UNL     1      48.175   8.705  14.248  0.00  0.00    +0.000 C 
BRANCH  22  23
ATOM     23  N   UNL     1      48.438   7.976  15.460  0.00  0.00    +0.000 N 
ATOM     24  C   UNL     1      49.668   7.414  15.692  0.00  0.00    +0.000 C 
ATOM     25  O   UNL     1      50.605   7.554  14.911  0.00  0.00    +0.000 OA
ATOM     26  H   UNL     1      47.633   7.657  15.988  0.00  0.00    +0.000 HD
BRANCH  24  27
ATOM     27  C   UNL     1      49.826   6.686  16.956  0.00  0.00    +0.000 A 
ATOM     28  C   UNL     1      50.700   7.168  17.921  0.00  0.00    +0.000 A 
ATOM     29  S   UNL     1      50.716   6.243  19.353  0.00  0.00    +0.000 S 
ATOM     30  C   UNL     1      49.595   5.133  18.712  0.00  0.00    +0.000 A 
ATOM     31  N   UNL     1      49.186   4.058  19.436  0.00  0.00    +0.000 NA
ATOM     32  C   UNL     1      48.361   3.283  18.816  0.00  0.00    +0.000 A 
ATOM     33  N   UNL     1      47.907   3.484  17.539  0.00  0.00    +0.000 N 
ATOM     34  C   UNL     1      48.275   4.570  16.778  0.00  0.00    +0.000 A 
ATOM     35  O   UNL     1      47.822   4.738  15.650  0.00  0.00    +0.000 OA
ATOM     36  C   UNL     1      49.206   5.471  17.428  0.00  0.00    +0.000 A 
ATOM     37  H   UNL     1      47.258   2.839  17.112  0.00  0.00    +0.000 HD
ENDBRANCH  24  27
ENDBRANCH  22  23
ENDBRANCH   4  22
TORSDOF 10
ENDMDL
MODEL 2
REMARK VINA RESULT:    -6.612      4.150      9.245
REMARK INTER + INTRA:         -11.480
REMARK INTER:                 -10.370
REMARK INTRA:                  -1.110
REMARK UNBOUND:                -1.196
REMARK  Name = 
REMARK  10 active torsions:
REMARK  status: ('A' for Active; 'I' for Inactive)
REMARK    1  A    between atoms: N_1  and  C_2
REMARK    2  A    between atoms: C_2  and  C_3
REMARK    3  A    between atoms: C_3  and  N_4
REMARK    4  A    between atoms: N_4  and  C_5
REMARK    5  A    between atoms: C_5  and  C_6
REMARK    6  A    between atoms: C_9  and  C_10
REMARK    7  A    between atoms: C_10  and  C_11
REMARK    8  A    between atoms: C_14  and  C_15
REMARK    9  A    between atoms: C_15  and  N_16
REMARK   10  A    between atoms: C_17  and  C_19
REMARK                            x       y       z     vdW  Elec       q    Type
REMARK                         _______ _______ _______ _____ _____    ______ ____
ROOT
ATOM      1  C   UNL     1      49.588   5.950  16.788  0.00  0.00    +0.000 A 
ATOM      2  C   UNL     1      48.356   5.640  16.195  0.00  0.00    +0.000 A 
ATOM      3  C   UNL     1      48.020   6.159  14.940  0.00  0.00    +0.000 A 
ATOM      4  C   UNL     1      48.915   6.985  14.248  0.00  0.00    +0.000 A 
ATOM      5  C   UNL     1      50.119   7.343  14.869  0.00  0.00    +0.000 A 
ATOM      6  C   UNL     1      50.456   6.825  16.122  0.00  0.00    +0.000 A 
ENDROOT
BRANCH   1   7
ATOM      7  C   UNL     1      49.988   5.324  18.105  0.00  0.00    +0.000 C 
BRANCH   7  11
ATOM      8  C   UNL     1      52.353   1.785  17.748  0.00  0.00    +0.000 A 
ATOM      9  C   UNL     1      51.037   1.756  17.289  0.00  0.00    +0.000 A 
ATOM     10  C   UNL     1      50.260   2.906  17.391  0.00  0.00    +0.000 A 
ATOM     11  C   UNL     1      50.799   4.062  17.960  0.00  0.00    +0.000 A 
ATOM     12  C   UNL     1      52.126   4.004  18.373  0.00  0.00    +0.000 A 
ATOM     13  N   UNL     1      52.908   2.904  18.287  0.00  0.00    +0.000 NA
BRANCH   8  14
ATOM     14  C   UNL     1      53.237   0.567  17.590  0.00  0.00    +0.000 C 
BRANCH  14  15
ATOM     15  N   UNL     1      52.921  -0.546  18.510  0.00  0.00    +0.000 NA
ATOM     16  H   UNL     1      52.693  -0.119  19.412  0.00  0.00    +0.000 HD
BRANCH  15  17
ATOM     17  C   UNL     1      54.094  -1.404  18.764  0.00  0.00    +0.000 C 
BRANCH  17  18
ATOM     18  C   UNL     1      53.797  -2.613  19.675  0.00  0.00    +0.000 C 
BRANCH  18  19
ATOM     19  N   UNL     1      53.916  -2.249  21.092  0.00  0.00    +0.000 NA
ATOM     20  H   UNL     1      52.984  -2.242  21.506  0.00  0.00    +0.000 HD
ATOM     21  H   UNL     1      54.260  -1.291  21.156  0.00  0.00    +0.000 HD
ENDBRANCH  18  19
ENDBRANCH  17  18
ENDBRANCH  15  17
ENDBRANCH  14  15
ENDBRANCH   8  14
ENDBRANCH   7  11
ENDBRANCH   1   7
BRANCH   4  22
ATOM     22  C   UNL     1      48.595   7.485  12.865  0.00  0.00    +0.000 C 
BRANCH  22  23
ATOM     23  N   UNL     1      47.813   6.530  12.125  0.00  0.00    +0.000 N 
ATOM     24  C   UNL     1      46.514   6.801  11.778  0.00  0.00    +0.000 C 
ATOM     25  O   UNL     1      45.983   7.879  12.031  0.00  0.00    +0.000 OA
ATOM     26  H   UNL     1      48.146   5.572  12.117  0.00  0.00    +0.000 HD
BRANCH  24  27
ATOM     27  C   UNL     1      45.806   5.755  11.031  0.00  0.00    +0.000 A 
ATOM     28  C   UNL     1      45.907   5.713   9.646  0.00  0.00    +0.000 A 
ATOM     29  S   UNL     1      45.079   4.400   8.940  0.00  0.00    +0.000 S 
ATOM     30  C   UNL     1      44.511   3.873  10.456  0.00  0.00    +0.000 A 
ATOM     31  N   UNL     1      43.708   2.781  10.558  0.00  0.00    +0.000 NA
ATOM     32  C   UNL     1      43.326   2.514  11.762  0.00  0.00    +0.000 A 
ATOM     33  N   UNL     1      43.672   3.239  12.872  0.00  0.00    +0.000 N 
ATOM     34  C   UNL     1      44.502   4.335  12.819  0.00  0.00    +0.000 A 
ATOM     35  O   UNL     1      44.820   4.940  13.838  0.00  0.00    +0.000 OA
ATOM     36  C   UNL     1      44.957   4.681  11.487  0.00  0.00    +0.000 A 
ATOM     37  H   UNL     1      43.341   2.973  13.789  0.00  0.00    +0.000 HD
ENDBRANCH  24  27
ENDBRANCH  22  23
ENDBRANCH   4  22
TORSDOF 10
ENDMDL
MODEL 3
REMARK VINA RESULT:    -6.602      5.057      8.018
REMARK INTER + INTRA:         -11.465
REMARK INTER:                 -10.673
REMARK INTRA:                  -0.792
REMARK UNBOUND:                -1.196
REMARK  Name = 
REMARK  10 active torsions:
REMARK  status: ('A' for Active; 'I' for Inactive)
REMARK    1  A    between atoms: N_1  and  C_2
REMARK    2  A    between atoms: C_2  and  C_3
REMARK    3  A    between atoms: C_3  and  N_4
REMARK    4  A    between atoms: N_4  and  C_5
REMARK    5  A    between atoms: C_5  and  C_6
REMARK    6  A    between atoms: C_9  and  C_10
REMARK    7  A    between atoms: C_10  and  C_11
REMARK    8  A    between atoms: C_14  and  C_15
REMARK    9  A    between atoms: C_15  and  N_16
REMARK   10  A    between atoms: C_17  and  C_19
REMARK                            x       y       z     vdW  Elec       q    Type
REMARK                         _______ _______ _______ _____ _____    ______ ____
ROOT
ATOM      1  C   UNL     1      50.395   9.037  11.537  0.00  0.00    +0.000 A 
ATOM      2  C   UNL     1      49.393  10.013  11.433  0.00  0.00    +0.000 A 
ATOM      3  C   UNL     1      48.076   9.723  11.803  0.00  0.00    +0.000 A 
ATOM      4  C   UNL     1      47.738   8.457  12.298  0.00  0.00    +0.000 A 
ATOM      5  C   UNL     1      48.726   7.465  12.343  0.00  0.00    +0.000 A 
ATOM      6  C   UNL     1      50.043   7.754  11.974  0.00  0.00    +0.000 A 
ENDROOT
BRANCH   1   7
ATOM      7  C   UNL     1      51.834   9.372  11.217  0.00  0.00    +0.000 C 
BRANCH   7  11
ATOM      8  C   UNL     1      53.280   7.387   7.723  0.00  0.00    +0.000 A 
ATOM      9  C   UNL     1      53.270   8.781   7.740  0.00  0.00    +0.000 A 
ATOM     10  C   UNL     1      52.810   9.438   8.877  0.00  0.00    +0.000 A 
ATOM     11  C   UNL     1      52.355   8.701   9.973  0.00  0.00    +0.000 A 
ATOM     12  C   UNL     1      52.420   7.315   9.872  0.00  0.00    +0.000 A 
ATOM     13  N   UNL     1      52.862   6.645   8.784  0.00  0.00    +0.000 NA
BRANCH   8  14
ATOM     14  C   UNL     1      53.834   6.649   6.523  0.00  0.00    +0.000 C 
BRANCH  14  15
ATOM     15  N   UNL     1      53.322   5.273   6.356  0.00  0.00    +0.000 NA
ATOM     16  H   UNL     1      53.219   4.887   7.299  0.00  0.00    +0.000 HD
BRANCH  15  17
ATOM     17  C   UNL     1      54.295   4.399   5.673  0.00  0.00    +0.000 C 
BRANCH  17  18
ATOM     18  C   UNL     1      54.420   2.997   6.302  0.00  0.00    +0.000 C 
BRANCH  18  19
ATOM     19  N   UNL     1      53.126   2.527   6.811  0.00  0.00    +0.000 NA
ATOM     20  H   UNL     1      52.392   2.851   6.181  0.00  0.00    +0.000 HD
ATOM     21  H   UNL     1      52.945   2.975   7.709  0.00  0.00    +0.000 HD
ENDBRANCH  18  19
ENDBRANCH  17  18
ENDBRANCH  15  17
ENDBRANCH  14  15
ENDBRANCH   8  14
ENDBRANCH   7  11
ENDBRANCH   1   7
BRANCH   4  22
ATOM     22  C   UNL     1      46.341   8.160  12.771  0.00  0.00    +0.000 C 
BRANCH  22  23
ATOM     23  N   UNL     1      45.939   6.821  12.430  0.00  0.00    +0.000 N 
ATOM     24  C   UNL     1      44.802   6.591  11.698  0.00  0.00    +0.000 C 
ATOM     25  O   UNL     1      44.114   7.508  11.258  0.00  0.00    +0.000 OA
ATOM     26  H   UNL     1      46.350   6.067  12.971  0.00  0.00    +0.000 HD
BRANCH  24  27
ATOM     27  C   UNL     1      44.481   5.188  11.414  0.00  0.00    +0.000 A 
ATOM     28  C   UNL     1      43.733   4.456  12.327  0.00  0.00    +0.000 A 
ATOM     29  S   UNL     1      43.394   2.865  11.815  0.00  0.00    +0.000 S 
ATOM     30  C   UNL     1      44.283   3.082  10.379  0.00  0.00    +0.000 A 
ATOM     31  N   UNL     1      44.412   2.070   9.480  0.00  0.00    +0.000 NA
ATOM     32  C   UNL     1      45.138   2.361   8.453  0.00  0.00    +0.000 A 
ATOM     33  N   UNL     1      45.748   3.570   8.243  0.00  0.00    +0.000 N 
ATOM     34  C   UNL     1      45.624   4.630   9.113  0.00  0.00    +0.000 A 
ATOM     35  O   UNL     1      46.154   5.711   8.875  0.00  0.00    +0.000 OA
ATOM     36  C   UNL     1      44.820   4.353  10.287  0.00  0.00    +0.000 A 
ATOM     37  H   UNL     1      46.301   3.735   7.414  0.00  0.00    +0.000 HD
ENDBRANCH  24  27
ENDBRANCH  22  23
ENDBRANCH   4  22
TORSDOF 10
ENDMDL
MODEL 4
REMARK VINA RESULT:    -6.518      1.673      2.210
REMARK INTER + INTRA:         -11.334
REMARK INTER:                 -10.734
REMARK INTRA:                  -0.600
REMARK UNBOUND:                -1.196
REMARK  Name = 
REMARK  10 active torsions:
REMARK  status: ('A' for Active; 'I' for Inactive)
REMARK    1  A    between atoms: N_1  and  C_2
REMARK    2  A    between atoms: C_2  and  C_3
REMARK    3  A    between atoms: C_3  and  N_4
REMARK    4  A    between atoms: N_4  and  C_5
REMARK    5  A    between atoms: C_5  and  C_6
REMARK    6  A    between atoms: C_9  and  C_10
REMARK    7  A    between atoms: C_10  and  C_11
REMARK    8  A    between atoms: C_14  and  C_15
REMARK    9  A    between atoms: C_15  and  N_16
REMARK   10  A    between atoms: C_17  and  C_19
REMARK                            x       y       z     vdW  Elec       q    Type
REMARK                         _______ _______ _______ _____ _____    ______ ____
ROOT
ATOM      1  C   UNL     1      45.298   5.977  12.202  0.00  0.00    +0.000 A 
ATOM      2  C   UNL     1      46.376   5.470  12.942  0.00  0.00    +0.000 A 
ATOM      3  C   UNL     1      47.228   6.331  13.642  0.00  0.00    +0.000 A 
ATOM      4  C   UNL     1      47.009   7.715  13.627  0.00  0.00    +0.000 A 
ATOM      5  C   UNL     1      45.969   8.224  12.838  0.00  0.00    +0.000 A 
ATOM      6  C   UNL     1      45.118   7.364  12.140  0.00  0.00    +0.000 A 
ENDROOT
BRANCH   1   7
ATOM      7  C   UNL     1      44.329   5.043  11.515  0.00  0.00    +0.000 C 
BRANCH   7  11
ATOM      8  C   UNL     1      45.754   3.687   7.723  0.00  0.00    +0.000 A 
ATOM      9  C   UNL     1      44.841   2.892   8.415  0.00  0.00    +0.000 A 
ATOM     10  C   UNL     1      44.363   3.329   9.647  0.00  0.00    +0.000 A 
ATOM     11  C   UNL     1      44.808   4.541  10.178  0.00  0.00    +0.000 A 
ATOM     12  C   UNL     1      45.705   5.275   9.409  0.00  0.00    +0.000 A 
ATOM     13  N   UNL     1      46.188   4.881   8.209  0.00  0.00    +0.000 NA
BRANCH   8  14
ATOM     14  C   UNL     1      46.240   3.265   6.354  0.00  0.00    +0.000 C 
BRANCH  14  15
ATOM     15  N   UNL     1      47.679   2.931   6.288  0.00  0.00    +0.000 NA
ATOM     16  H   UNL     1      47.890   2.761   5.300  0.00  0.00    +0.000 HD
BRANCH  15  17
ATOM     17  C   UNL     1      47.987   1.666   6.982  0.00  0.00    +0.000 C 
BRANCH  17  18
ATOM     18  C   UNL     1      46.825   0.651   6.972  0.00  0.00    +0.000 C 
BRANCH  18  19
ATOM     19  N   UNL     1      47.107  -0.484   7.859  0.00  0.00    +0.000 NA
ATOM     20  H   UNL     1      48.023  -0.344   8.286  0.00  0.00    +0.000 HD
ATOM     21  H   UNL     1      47.186  -1.329   7.294  0.00  0.00    +0.000 HD
ENDBRANCH  18  19
ENDBRANCH  17  18
ENDBRANCH  15  17
ENDBRANCH  14  15
ENDBRANCH   8  14
ENDBRANCH   7  11
ENDBRANCH   1   7
BRANCH   4  22
ATOM     22  C   UNL     1      47.873   8.643  14.438  0.00  0.00    +0.000 C 
BRANCH  22  23
ATOM     23  N   UNL     1      48.235   8.060  15.703  0.00  0.00    +0.000 N 
ATOM     24  C   UNL     1      48.648   8.846  16.749  0.00  0.00    +0.000 C 
ATOM     25  O   UNL     1      48.672  10.071  16.672  0.00  0.00    +0.000 OA
ATOM     26  H   UNL     1      48.444   7.067  15.707  0.00  0.00    +0.000 HD
BRANCH  24  27
ATOM     27  C   UNL     1      49.001   8.148  17.990  0.00  0.00    +0.000 A 
ATOM     28  C   UNL     1      48.665   8.712  19.214  0.00  0.00    +0.000 A 
ATOM     29  S   UNL     1      49.089   7.744  20.552  0.00  0.00    +0.000 S 
ATOM     30  C   UNL     1      49.785   6.562  19.545  0.00  0.00    +0.000 A 
ATOM     31  N   UNL     1      50.363   5.450  20.071  0.00  0.00    +0.000 NA
ATOM     32  C   UNL     1      50.880   4.655  19.195  0.00  0.00    +0.000 A 
ATOM     33  N   UNL     1      50.873   4.869  17.842  0.00  0.00    +0.000 N 
ATOM     34  C   UNL     1      50.279   5.968  17.264  0.00  0.00    +0.000 A 
ATOM     35  O   UNL     1      50.260   6.111  16.045  0.00  0.00    +0.000 OA
ATOM     36  C   UNL     1      49.686   6.896  18.206  0.00  0.00    +0.000 A 
ATOM     37  H   UNL     1      51.293   4.204  17.209  0.00  0.00    +0.000 HD
ENDBRANCH  24  27
ENDBRANCH  22  23
ENDBRANCH   4  22
TORSDOF 10
ENDMDL
MODEL 5
REMARK VINA RESULT:    -6.508      5.275      7.548
REMARK INTER + INTRA:         -11.318
REMARK INTER:                  -9.890
REMARK INTRA:                  -1.428
REMARK UNBOUND:                -1.196
REMARK  Name = 
REMARK  10 active torsions:
REMARK  status: ('A' for Active; 'I' for Inactive)
REMARK    1  A    between atoms: N_1  and  C_2
REMARK    2  A    between atoms: C_2  and  C_3
REMARK    3  A    between atoms: C_3  and  N_4
REMARK    4  A    between atoms: N_4  and  C_5
REMARK    5  A    between atoms: C_5  and  C_6
REMARK    6  A    between atoms: C_9  and  C_10
REMARK    7  A    between atoms: C_10  and  C_11
REMARK    8  A    between atoms: C_14  and  C_15
REMARK    9  A    between atoms: C_15  and  N_16
REMARK   10  A    between atoms: C_17  and  C_19
REMARK                            x       y       z     vdW  Elec       q    Type
REMARK                         _______ _______ _______ _____ _____    ______ ____
ROOT
ATOM      1  C   UNL     1      48.042   8.280  12.817  0.00  0.00    +0.000 A 
ATOM      2  C   UNL     1      48.879   9.165  13.512  0.00  0.00    +0.000 A 
ATOM      3  C   UNL     1      50.209   9.344  13.119  0.00  0.00    +0.000 A 
ATOM      4  C   UNL     1      50.724   8.654  12.015  0.00  0.00    +0.000 A 
ATOM      5  C   UNL     1      49.906   7.725  11.360  0.00  0.00    +0.000 A 
ATOM      6  C   UNL     1      48.577   7.545  11.751  0.00  0.00    +0.000 A 
ENDROOT
BRANCH   1   7
ATOM      7  C   UNL     1      46.583   8.147  13.188  0.00  0.00    +0.000 C 
BRANCH   7  11
ATOM      8  C   UNL     1      44.746   4.578  11.727  0.00  0.00    +0.000 A 
ATOM      9  C   UNL     1      45.509   4.506  12.891  0.00  0.00    +0.000 A 
ATOM     10  C   UNL     1      46.103   5.664  13.382  0.00  0.00    +0.000 A 
ATOM     11  C   UNL     1      45.943   6.873  12.701  0.00  0.00    +0.000 A 
ATOM     12  C   UNL     1      45.151   6.852  11.558  0.00  0.00    +0.000 A 
ATOM     13  N   UNL     1      44.558   5.746  11.055  0.00  0.00    +0.000 NA
BRANCH   8  14
ATOM     14  C   UNL     1      44.037   3.346  11.208  0.00  0.00    +0.000 C 
BRANCH  14  15
ATOM     15  N   UNL     1      44.866   2.475  10.347  0.00  0.00    +0.000 NA
ATOM     16  H   UNL     1      45.827   2.819  10.429  0.00  0.00    +0.000 HD
BRANCH  15  17
ATOM     17  C   UNL     1      44.517   2.615   8.920  0.00  0.00    +0.000 C 
BRANCH  17  18
ATOM     18  C   UNL     1      45.590   3.342   8.085  0.00  0.00    +0.000 C 
BRANCH  18  19
ATOM     19  N   UNL     1      45.508   4.797   8.270  0.00  0.00    +0.000 NA
ATOM     20  H   UNL     1      45.757   5.251   7.391  0.00  0.00    +0.000 HD
ATOM     21  H   UNL     1      46.216   5.081   8.946  0.00  0.00    +0.000 HD
ENDBRANCH  18  19
ENDBRANCH  17  18
ENDBRANCH  15  17
ENDBRANCH  14  15
ENDBRANCH   8  14
ENDBRANCH   7  11
ENDBRANCH   1   7
BRANCH   4  22
ATOM     22  C   UNL     1      52.130   8.899  11.537  0.00  0.00    +0.000 C 
BRANCH  22  23
ATOM     23  N   UNL     1      52.351   8.339  10.230  0.00  0.00    +0.000 N 
ATOM     24  C   UNL     1      53.403   8.754   9.454  0.00  0.00    +0.000 C 
ATOM     25  O   UNL     1      54.228   9.571   9.857  0.00  0.00    +0.000 OA
ATOM     26  H   UNL     1      51.569   7.856   9.800  0.00  0.00    +0.000 HD
BRANCH  24  27
ATOM     27  C   UNL     1      53.531   8.124   8.135  0.00  0.00    +0.000 A 
ATOM     28  C   UNL     1      53.527   8.915   6.994  0.00  0.00    +0.000 A 
ATOM     29  S   UNL     1      53.749   8.034   5.551  0.00  0.00    +0.000 S 
ATOM     30  C   UNL     1      53.803   6.558   6.397  0.00  0.00    +0.000 A 
ATOM     31  N   UNL     1      53.956   5.381   5.736  0.00  0.00    +0.000 NA
ATOM     32  C   UNL     1      53.947   4.338   6.498  0.00  0.00    +0.000 A 
ATOM     33  N   UNL     1      53.798   4.365   7.860  0.00  0.00    +0.000 N 
ATOM     34  C   UNL     1      53.665   5.535   8.573  0.00  0.00    +0.000 A 
ATOM     35  O   UNL     1      53.569   5.525   9.796  0.00  0.00    +0.000 OA
ATOM     36  C   UNL     1      53.665   6.737   7.762  0.00  0.00    +0.000 A 
ATOM     37  H   UNL     1      53.803   3.512   8.399  0.00  0.00    +0.000 HD
ENDBRANCH  24  27
ENDBRANCH  22  23
ENDBRANCH   4  22
TORSDOF 10
ENDMDL
MODEL 6
REMARK VINA RESULT:    -5.991      4.395      9.381
REMARK INTER + INTRA:         -10.514
REMARK INTER:                  -9.510
REMARK INTRA:                  -1.005
REMARK UNBOUND:                -1.196
REMARK  Name = 
REMARK  10 active torsions:
REMARK  status: ('A' for Active; 'I' for Inactive)
REMARK    1  A    between atoms: N_1  and  C_2
REMARK    2  A    between atoms: C_2  and  C_3
REMARK    3  A    between atoms: C_3  and  N_4
REMARK    4  A    between atoms: N_4  and  C_5
REMARK    5  A    between atoms: C_5  and  C_6
REMARK    6  A    between atoms: C_9  and  C_10
REMARK    7  A    between atoms: C_10  and  C_11
REMARK    8  A    between atoms: C_14  and  C_15
REMARK    9  A    between atoms: C_15  and  N_16
REMARK   10  A    between atoms: C_17  and  C_19
REMARK                            x       y       z     vdW  Elec       q    Type
REMARK                         _______ _______ _______ _____ _____    ______ ____
ROOT
ATOM      1  C   UNL     1      49.224   5.274  17.209  0.00  0.00    +0.000 A 
ATOM      2  C   UNL     1      48.063   4.705  16.665  0.00  0.00    +0.000 A 
ATOM      3  C   UNL     1      47.527   5.190  15.468  0.00  0.00    +0.000 A 
ATOM      4  C   UNL     1      48.148   6.242  14.784  0.00  0.00    +0.000 A 
ATOM      5  C   UNL     1      49.272   6.850  15.360  0.00  0.00    +0.000 A 
ATOM      6  C   UNL     1      49.809   6.366  16.555  0.00  0.00    +0.000 A 
ENDROOT
BRANCH   1   7
ATOM      7  C   UNL     1      49.852   4.698  18.457  0.00  0.00    +0.000 C 
BRANCH   7  11
ATOM      8  C   UNL     1      52.612   1.539  17.649  0.00  0.00    +0.000 A 
ATOM      9  C   UNL     1      53.102   2.735  18.172  0.00  0.00    +0.000 A 
ATOM     10  C   UNL     1      52.211   3.767  18.449  0.00  0.00    +0.000 A 
ATOM     11  C   UNL     1      50.849   3.601  18.188  0.00  0.00    +0.000 A 
ATOM     12  C   UNL     1      50.449   2.368  17.683  0.00  0.00    +0.000 A 
ATOM     13  N   UNL     1      51.288   1.344  17.405  0.00  0.00    +0.000 NA
BRANCH   8  14
ATOM     14  C   UNL     1      53.551   0.380  17.400  0.00  0.00    +0.000 C 
BRANCH  14  15
ATOM     15  N   UNL     1      53.315  -0.800  18.257  0.00  0.00    +0.000 NA
ATOM     16  H   UNL     1      53.202  -0.446  19.212  0.00  0.00    +0.000 HD
BRANCH  15  17
ATOM     17  C   UNL     1      54.486  -1.696  18.303  0.00  0.00    +0.000 C 
BRANCH  17  18
ATOM     18  C   UNL     1      54.904  -2.248  16.925  0.00  0.00    +0.000 C 
BRANCH  18  19
ATOM     19  N   UNL     1      54.212  -3.509  16.629  0.00  0.00    +0.000 NA
ATOM     20  H   UNL     1      53.474  -3.645  17.319  0.00  0.00    +0.000 HD
ATOM     21  H   UNL     1      54.867  -4.279  16.760  0.00  0.00    +0.000 HD
ENDBRANCH  18  19
ENDBRANCH  17  18
ENDBRANCH  15  17
ENDBRANCH  14  15
ENDBRANCH   8  14
ENDBRANCH   7  11
ENDBRANCH   1   7
BRANCH   4  22
ATOM     22  C   UNL     1      47.623   6.719  13.457  0.00  0.00    +0.000 C 
BRANCH  22  23
ATOM     23  N   UNL     1      46.920   5.675  12.759  0.00  0.00    +0.000 N 
ATOM     24  C   UNL     1      45.561   5.735  12.583  0.00  0.00    +0.000 C 
ATOM     25  O   UNL     1      44.898   6.698  12.959  0.00  0.00    +0.000 OA
ATOM     26  H   UNL     1      47.401   4.787  12.656  0.00  0.00    +0.000 HD
BRANCH  24  27
ATOM     27  C   UNL     1      44.945   4.613  11.865  0.00  0.00    +0.000 A 
ATOM     28  C   UNL     1      44.170   3.695  12.561  0.00  0.00    +0.000 A 
ATOM     29  S   UNL     1      43.476   2.495  11.568  0.00  0.00    +0.000 S 
ATOM     30  C   UNL     1      44.233   3.128  10.181  0.00  0.00    +0.000 A 
ATOM     31  N   UNL     1      44.067   2.540   8.967  0.00  0.00    +0.000 NA
ATOM     32  C   UNL     1      44.724   3.105   8.009  0.00  0.00    +0.000 A 
ATOM     33  N   UNL     1      45.531   4.203   8.155  0.00  0.00    +0.000 N 
ATOM     34  C   UNL     1      45.709   4.845   9.359  0.00  0.00    +0.000 A 
ATOM     35  O   UNL     1      46.411   5.847   9.447  0.00  0.00    +0.000 OA
ATOM     36  C   UNL     1      44.995   4.246  10.470  0.00  0.00    +0.000 A 
ATOM     37  H   UNL     1      46.016   4.599   7.362  0.00  0.00    +0.000 HD
ENDBRANCH  24  27
ENDBRANCH  22  23
ENDBRANCH   4  22
TORSDOF 10
ENDMDL
MODEL 7
REMARK VINA RESULT:    -5.901      4.175      9.221
REMARK INTER + INTRA:         -10.374
REMARK INTER:                  -9.119
REMARK INTRA:                  -1.255
REMARK UNBOUND:                -1.196
REMARK  Name = 
REMARK  10 active torsions:
REMARK  status: ('A' for Active; 'I' for Inactive)
REMARK    1  A    between atoms: N_1  and  C_2
REMARK    2  A    between atoms: C_2  and  C_3
REMARK    3  A    between atoms: C_3  and  N_4
REMARK    4  A    between atoms: N_4  and  C_5
REMARK    5  A    between atoms: C_5  and  C_6
REMARK    6  A    between atoms: C_9  and  C_10
REMARK    7  A    between atoms: C_10  and  C_11
REMARK    8  A    between atoms: C_14  and  C_15
REMARK    9  A    between atoms: C_15  and  N_16
REMARK   10  A    between atoms: C_17  and  C_19
REMARK                            x       y       z     vdW  Elec       q    Type
REMARK                         _______ _______ _______ _____ _____    ______ ____
ROOT
ATOM      1  C   UNL     1      49.909   5.641  17.869  0.00  0.00    +0.000 A 
ATOM      2  C   UNL     1      48.658   5.317  17.324  0.00  0.00    +0.000 A 
ATOM      3  C   UNL     1      48.253   5.859  16.099  0.00  0.00    +0.000 A 
ATOM      4  C   UNL     1      49.097   6.722  15.389  0.00  0.00    +0.000 A 
ATOM      5  C   UNL     1      50.319   7.093  15.963  0.00  0.00    +0.000 A 
ATOM      6  C   UNL     1      50.725   6.552  17.186  0.00  0.00    +0.000 A 
ENDROOT
BRANCH   1   7
ATOM      7  C   UNL     1      50.383   4.993  19.149  0.00  0.00    +0.000 C 
BRANCH   7  11
ATOM      8  C   UNL     1      53.625   2.281  18.536  0.00  0.00    +0.000 A 
ATOM      9  C   UNL     1      53.711   3.195  19.584  0.00  0.00    +0.000 A 
ATOM     10  C   UNL     1      52.656   4.076  19.800  0.00  0.00    +0.000 A 
ATOM     11  C   UNL     1      51.539   4.046  18.962  0.00  0.00    +0.000 A 
ATOM     12  C   UNL     1      51.534   3.088  17.953  0.00  0.00    +0.000 A 
ATOM     13  N   UNL     1      52.540   2.216  17.717  0.00  0.00    +0.000 NA
BRANCH   8  14
ATOM     14  C   UNL     1      54.730   1.270  18.320  0.00  0.00    +0.000 C 
BRANCH  14  15
ATOM     15  N   UNL     1      54.560   0.003  19.063  0.00  0.00    +0.000 NA
ATOM     16  H   UNL     1      55.351  -0.060  19.711  0.00  0.00    +0.000 HD
BRANCH  15  17
ATOM     17  C   UNL     1      54.675  -1.175  18.183  0.00  0.00    +0.000 C 
BRANCH  17  18
ATOM     18  C   UNL     1      55.134  -0.840  16.749  0.00  0.00    +0.000 C 
BRANCH  18  19
ATOM     19  N   UNL     1      54.091  -1.168  15.769  0.00  0.00    +0.000 NA
ATOM     20  H   UNL     1      53.581  -0.315  15.540  0.00  0.00    +0.000 HD
ATOM     21  H   UNL     1      53.414  -1.792  16.209  0.00  0.00    +0.000 HD
ENDBRANCH  18  19
ENDBRANCH  17  18
ENDBRANCH  15  17
ENDBRANCH  14  15
ENDBRANCH   8  14
ENDBRANCH   7  11
ENDBRANCH   1   7
BRANCH   4  22
ATOM     22  C   UNL     1      48.702   7.248  14.035  0.00  0.00    +0.000 C 
BRANCH  22  23
ATOM     23  N   UNL     1      47.410   6.760  13.633  0.00  0.00    +0.000 N 
ATOM     24  C   UNL     1      47.000   6.843  12.326  0.00  0.00    +0.000 C 
ATOM     25  O   UNL     1      47.731   7.280  11.441  0.00  0.00    +0.000 OA
ATOM     26  H   UNL     1      46.723   6.621  14.367  0.00  0.00    +0.000 HD
BRANCH  24  27
ATOM     27  C   UNL     1      45.661   6.323  12.027  0.00  0.00    +0.000 A 
ATOM     28  C   UNL     1      44.693   7.175  11.513  0.00  0.00    +0.000 A 
ATOM     29  S   UNL     1      43.216   6.399  11.161  0.00  0.00    +0.000 S 
ATOM     30  C   UNL     1      43.802   4.907  11.735  0.00  0.00    +0.000 A 
ATOM     31  N   UNL     1      43.011   3.801  11.735  0.00  0.00    +0.000 NA
ATOM     32  C   UNL     1      43.571   2.748  12.228  0.00  0.00    +0.000 A 
ATOM     33  N   UNL     1      44.849   2.699  12.722  0.00  0.00    +0.000 N 
ATOM     34  C   UNL     1      45.692   3.786  12.719  0.00  0.00    +0.000 A 
ATOM     35  O   UNL     1      46.843   3.698  13.136  0.00  0.00    +0.000 OA
ATOM     36  C   UNL     1      45.109   4.998  12.178  0.00  0.00    +0.000 A 
ATOM     37  H   UNL     1      45.229   1.839  13.091  0.00  0.00    +0.000 HD
ENDBRANCH  24  27
ENDBRANCH  22  23
ENDBRANCH   4  22
TORSDOF 10
ENDMDL
MODEL 8
REMARK VINA RESULT:    -5.656      6.481      9.276
REMARK INTER + INTRA:          -9.993
REMARK INTER:                  -8.860
REMARK INTRA:                  -1.133
REMARK UNBOUND:                -1.196
REMARK  Name = 
REMARK  10 active torsions:
REMARK  status: ('A' for Active; 'I' for Inactive)
REMARK    1  A    between atoms: N_1  and  C_2
REMARK    2  A    between atoms: C_2  and  C_3
REMARK    3  A    between atoms: C_3  and  N_4
REMARK    4  A    between atoms: N_4  and  C_5
REMARK    5  A    between atoms: C_5  and  C_6
REMARK    6  A    between atoms: C_9  and  C_10
REMARK    7  A    between atoms: C_10  and  C_11
REMARK    8  A    between atoms: C_14  and  C_15
REMARK    9  A    between atoms: C_15  and  N_16
REMARK   10  A    between atoms: C_17  and  C_19
REMARK                            x       y       z     vdW  Elec       q    Type
REMARK                         _______ _______ _______ _____ _____    ______ ____
ROOT
ATOM      1  C   UNL     1      50.339   3.471  18.028  0.00  0.00    +0.000 A 
ATOM      2  C   UNL     1      51.580   3.966  18.457  0.00  0.00    +0.000 A 
ATOM      3  C   UNL     1      52.743   3.208  18.292  0.00  0.00    +0.000 A 
ATOM      4  C   UNL     1      52.692   1.948  17.682  0.00  0.00    +0.000 A 
ATOM      5  C   UNL     1      51.444   1.429  17.311  0.00  0.00    +0.000 A 
ATOM      6  C   UNL     1      50.281   2.186  17.474  0.00  0.00    +0.000 A 
ENDROOT
BRANCH   1   7
ATOM      7  C   UNL     1      49.094   4.322  18.129  0.00  0.00    +0.000 C 
BRANCH   7  11
ATOM      8  C   UNL     1      47.392   5.330  14.343  0.00  0.00    +0.000 A 
ATOM      9  C   UNL     1      46.988   4.147  14.961  0.00  0.00    +0.000 A 
ATOM     10  C   UNL     1      47.529   3.814  16.199  0.00  0.00    +0.000 A 
ATOM     11  C   UNL     1      48.471   4.653  16.797  0.00  0.00    +0.000 A 
ATOM     12  C   UNL     1      48.800   5.820  16.115  0.00  0.00    +0.000 A 
ATOM     13  N   UNL     1      48.293   6.174  14.912  0.00  0.00    +0.000 NA
BRANCH   8  14
ATOM     14  C   UNL     1      46.772   5.746  13.026  0.00  0.00    +0.000 C 
BRANCH  14  15
ATOM     15  N   UNL     1      45.392   6.265  13.132  0.00  0.00    +0.000 NA
ATOM     16  H   UNL     1      44.864   5.572  13.672  0.00  0.00    +0.000 HD
BRANCH  15  17
ATOM     17  C   UNL     1      44.725   6.335  11.818  0.00  0.00    +0.000 C 
BRANCH  17  18
ATOM     18  C   UNL     1      43.258   5.860  11.839  0.00  0.00    +0.000 C 
BRANCH  18  19
ATOM     19  N   UNL     1      42.831   5.518  13.201  0.00  0.00    +0.000 NA
ATOM     20  H   UNL     1      43.603   5.706  13.840  0.00  0.00    +0.000 HD
ATOM     21  H   UNL     1      42.664   4.513  13.249  0.00  0.00    +0.000 HD
ENDBRANCH  18  19
ENDBRANCH  17  18
ENDBRANCH  15  17
ENDBRANCH  14  15
ENDBRANCH   8  14
ENDBRANCH   7  11
ENDBRANCH   1   7
BRANCH   4  22
ATOM     22  C   UNL     1      53.948   1.159  17.431  0.00  0.00    +0.000 C 
BRANCH  22  23
ATOM     23  N   UNL     1      53.736  -0.251  17.625  0.00  0.00    +0.000 N 
ATOM     24  C   UNL     1      54.205  -0.887  18.747  0.00  0.00    +0.000 C 
ATOM     25  O   UNL     1      54.769  -0.279  19.652  0.00  0.00    +0.000 OA
ATOM     26  H   UNL     1      53.492  -0.795  16.805  0.00  0.00    +0.000 HD
BRANCH  24  27
ATOM     27  C   UNL     1      53.941  -2.327  18.840  0.00  0.00    +0.000 A 
ATOM     28  C   UNL     1      53.195  -2.821  19.902  0.00  0.00    +0.000 A 
ATOM     29  S   UNL     1      52.926  -4.503  19.825  0.00  0.00    +0.000 S 
ATOM     30  C   UNL     1      53.844  -4.638  18.397  0.00  0.00    +0.000 A 
ATOM     31  N   UNL     1      54.032  -5.846  17.801  0.00  0.00    +0.000 NA
ATOM     32  C   UNL     1      54.775  -5.807  16.746  0.00  0.00    +0.000 A 
ATOM     33  N   UNL     1      55.347  -4.673  16.232  0.00  0.00    +0.000 N 
ATOM     34  C   UNL     1      55.164  -3.427  16.788  0.00  0.00    +0.000 A 
ATOM     35  O   UNL     1      55.662  -2.426  16.281  0.00  0.00    +0.000 OA
ATOM     36  C   UNL     1      54.339  -3.416  17.980  0.00  0.00    +0.000 A 
ATOM     37  H   UNL     1      55.916  -4.711  15.399  0.00  0.00    +0.000 HD
ENDBRANCH  24  27
ENDBRANCH  22  23
ENDBRANCH   4  22
TORSDOF 10
ENDMDL
MODEL 9
REMARK VINA RESULT:    -5.561      2.506      3.622
REMARK INTER + INTRA:          -9.846
REMARK INTER:                  -8.932
REMARK INTRA:                  -0.913
REMARK UNBOUND:                -1.196
REMARK  Name = 
REMARK  10 active torsions:
REMARK  status: ('A' for Active; 'I' for Inactive)
REMARK    1  A    between atoms: N_1  and  C_2
REMARK    2  A    between atoms: C_2  and  C_3
REMARK    3  A    between atoms: C_3  and  N_4
REMARK    4  A    between atoms: N_4  and  C_5
REMARK    5  A    between atoms: C_5  and  C_6
REMARK    6  A    between atoms: C_9  and  C_10
REMARK    7  A    between atoms: C_10  and  C_11
REMARK    8  A    between atoms: C_14  and  C_15
REMARK    9  A    between atoms: C_15  and  N_16
REMARK   10  A    between atoms: C_17  and  C_19
REMARK                            x       y       z     vdW  Elec       q    Type
REMARK                         _______ _______ _______ _____ _____    ______ ____
ROOT
ATOM      1  C   UNL     1      45.569   5.279  12.273  0.00  0.00    +0.000 A 
ATOM      2  C   UNL     1      45.595   3.992  12.829  0.00  0.00    +0.000 A 
ATOM      3  C   UNL     1      46.373   3.721  13.959  0.00  0.00    +0.000 A 
ATOM      4  C   UNL     1      47.129   4.733  14.563  0.00  0.00    +0.000 A 
ATOM      5  C   UNL     1      47.150   6.003  13.970  0.00  0.00    +0.000 A 
ATOM      6  C   UNL     1      46.372   6.275  12.842  0.00  0.00    +0.000 A 
ENDROOT
BRANCH   1   7
ATOM      7  C   UNL     1      44.665   5.595  11.104  0.00  0.00    +0.000 C 
BRANCH   7  11
ATOM      8  C   UNL     1      46.096   4.029   7.396  0.00  0.00    +0.000 A 
ATOM      9  C   UNL     1      44.932   3.490   7.942  0.00  0.00    +0.000 A 
ATOM     10  C   UNL     1      44.451   3.999   9.144  0.00  0.00    +0.000 A 
ATOM     11  C   UNL     1      45.141   5.026   9.792  0.00  0.00    +0.000 A 
ATOM     12  C   UNL     1      46.283   5.514   9.164  0.00  0.00    +0.000 A 
ATOM     13  N   UNL     1      46.776   5.043   7.996  0.00  0.00    +0.000 NA
BRANCH   8  14
ATOM     14  C   UNL     1      46.604   3.536   6.059  0.00  0.00    +0.000 C 
BRANCH  14  15
ATOM     15  N   UNL     1      46.518   2.073   5.869  0.00  0.00    +0.000 NA
ATOM     16  H   UNL     1      45.576   1.799   6.162  0.00  0.00    +0.000 HD
BRANCH  15  17
ATOM     17  C   UNL     1      47.439   1.343   6.762  0.00  0.00    +0.000 C 
BRANCH  17  18
ATOM     18  C   UNL     1      46.725   0.508   7.844  0.00  0.00    +0.000 C 
BRANCH  18  19
ATOM     19  N   UNL     1      46.775  -0.924   7.525  0.00  0.00    +0.000 NA
ATOM     20  H   UNL     1      47.554  -1.088   6.887  0.00  0.00    +0.000 HD
ATOM     21  H   UNL     1      45.931  -1.174   7.010  0.00  0.00    +0.000 HD
ENDBRANCH  18  19
ENDBRANCH  17  18
ENDBRANCH  15  17
ENDBRANCH  14  15
ENDBRANCH   8  14
ENDBRANCH   7  11
ENDBRANCH   1   7
BRANCH   4  22
ATOM     22  C   UNL     1      47.908   4.470  15.823  0.00  0.00    +0.000 C 
BRANCH  22  23
ATOM     23  N   UNL     1      48.081   5.668  16.600  0.00  0.00    +0.000 N 
ATOM     24  C   UNL     1      48.253   5.608  17.960  0.00  0.00    +0.000 C 
ATOM     25  O   UNL     1      48.324   4.539  18.561  0.00  0.00    +0.000 OA
ATOM     26  H   UNL     1      47.794   6.540  16.168  0.00  0.00    +0.000 HD
BRANCH  24  27
ATOM     27  C   UNL     1      48.412   6.890  18.656  0.00  0.00    +0.000 A 
ATOM     28  C   UNL     1      47.305   7.707  18.851  0.00  0.00    +0.000 A 
ATOM     29  S   UNL     1      47.650   9.126  19.731  0.00  0.00    +0.000 S 
ATOM     30  C   UNL     1      49.301   8.725  19.834  0.00  0.00    +0.000 A 
ATOM     31  N   UNL     1      50.181   9.551  20.460  0.00  0.00    +0.000 NA
ATOM     32  C   UNL     1      51.405   9.140  20.436  0.00  0.00    +0.000 A 
ATOM     33  N   UNL     1      51.829   7.980  19.843  0.00  0.00    +0.000 N 
ATOM     34  C   UNL     1      50.971   7.102  19.220  0.00  0.00    +0.000 A 
ATOM     35  O   UNL     1      51.380   6.054  18.730  0.00  0.00    +0.000 OA
ATOM     36  C   UNL     1      49.583   7.520  19.216  0.00  0.00    +0.000 A 
ATOM     37  H   UNL     1      52.803   7.714  19.862  0.00  0.00    +0.000 HD
ENDBRANCH  24  27
ENDBRANCH  22  23
ENDBRANCH   4  22
TORSDOF 10
ENDMDL
