MODEL 1
REMARK VINA RESULT:    -7.234      0.000      0.000
REMARK INTER + INTRA:         -12.454
REMARK INTER:                 -11.463
REMARK INTRA:                  -0.990
REMARK UNBOUND:                -0.990
REMARK  Name = 
REMARK  12 active torsions:
REMARK  status: ('A' for Active; 'I' for Inactive)
REMARK    1  A    between atoms: C_1  and  C_2
REMARK    2  A    between atoms: C_2  and  N_3
REMARK    3  A    between atoms: C_2  and  C_22
REMARK    4  A    between atoms: N_3  and  C_4
REMARK    5  A    between atoms: C_4  and  C_5
REMARK    6  A    between atoms: C_8  and  C_9
REMARK    7  A    between atoms: C_9  and  C_10
REMARK    8  A    between atoms: C_9  and  C_12
REMARK    9  A    between atoms: C_10  and  O_11
REMARK   10  A    between atoms: C_12  and  N_13
REMARK   11  A    between atoms: C_17  and  C_18
REMARK   12  A    between atoms: C_18  and  O_19
REMARK                            x       y       z     vdW  Elec       q    Type
REMARK                         _______ _______ _______ _____ _____    ______ ____
ROOT
ATOM      1  C   UNL     1      47.007   5.134  14.090  0.00  0.00    +0.000 A 
ATOM      2  C   UNL     1      46.802   3.798  13.747  0.00  0.00    +0.000 A 
ATOM      3  C   UNL     1      46.064   3.478  12.606  0.00  0.00    +0.000 A 
ATOM      4  C   UNL     1      45.533   4.508  11.825  0.00  0.00    +0.000 A 
ATOM      5  N   UNL     1      45.754   5.812  12.139  0.00  0.00    +0.000 NA
ATOM      6  C   UNL     1      46.483   6.095  13.239  0.00  0.00    +0.000 A 
ENDROOT
BRANCH   1   7
ATOM      7  C   UNL     1      47.787   5.540  15.300  0.00  0.00    +0.000 C 
BRANCH   7   8
ATOM      8  N   UNL     1      48.438   4.385  15.920  0.00  0.00    +0.000 NA
ATOM      9  H   UNL     1      49.416   4.369  15.632  0.00  0.00    +0.000 HD
BRANCH   8  11
ATOM     10  C   UNL     1      47.461   3.327  17.944  0.00  0.00    +0.000 C 
ATOM     11  C   UNL     1      48.382   4.416  17.388  0.00  0.00    +0.000 C 
BRANCH  11  12
ATOM     12  C   UNL     1      49.811   4.257  17.878  0.00  0.00    +0.000 A 
ATOM     13  C   UNL     1      50.484   5.185  18.658  0.00  0.00    +0.000 A 
ATOM     14  S   UNL     1      52.055   4.689  19.108  0.00  0.00    +0.000 S 
ATOM     15  C   UNL     1      51.883   3.206  18.297  0.00  0.00    +0.000 A 
ATOM     16  N   UNL     1      52.866   2.262  18.331  0.00  0.00    +0.000 NA
ATOM     17  C   UNL     1      52.581   1.172  17.696  0.00  0.00    +0.000 A 
ATOM     18  N   UNL     1      51.418   0.954  17.006  0.00  0.00    +0.000 N 
ATOM     19  C   UNL     1      50.432   1.905  16.879  0.00  0.00    +0.000 A 
ATOM     20  O   UNL     1      49.456   1.721  16.151  0.00  0.00    +0.000 OA
ATOM     21  C   UNL     1      50.667   3.113  17.645  0.00  0.00    +0.000 A 
ATOM     22  H   UNL     1      51.274   0.095  16.492  0.00  0.00    +0.000 HD
ENDBRANCH  11  12
ENDBRANCH   8  11
ENDBRANCH   7   8
ENDBRANCH   1   7
BRANCH   4  23
ATOM     23  C   UNL     1      44.674   4.226  10.584  0.00  0.00    +0.000 C 
BRANCH  23  24
ATOM     24  C   UNL     1      43.214   4.643  10.854  0.00  0.00    +0.000 C 
BRANCH  24  25
ATOM     25  O   UNL     1      42.995   6.039  10.653  0.00  0.00    +0.000 OA
ATOM     26  H   UNL     1      42.633   6.359  11.510  0.00  0.00    +0.000 HD
ENDBRANCH  24  25
ENDBRANCH  23  24
BRANCH  23  27
ATOM     27  C   UNL     1      44.797   2.740  10.149  0.00  0.00    +0.000 C 
BRANCH  27  28
ATOM     28  N   UNL     1      45.188   2.355   8.790  0.00  0.00    +0.000 NA
ATOM     29  C   UNL     1      45.061   0.975   8.355  0.00  0.00    +0.000 C 
ATOM     30  C   UNL     1      46.465   0.551   7.966  0.00  0.00    +0.000 C 
ATOM     31  C   UNL     1      47.074   1.827   7.416  0.00  0.00    +0.000 C 
ATOM     32  C   UNL     1      46.407   2.952   8.216  0.00  0.00    +0.000 C 
BRANCH  32  33
ATOM     33  C   UNL     1      46.017   4.117   7.287  0.00  0.00    +0.000 C 
BRANCH  33  34
ATOM     34  O   UNL     1      46.899   4.218   6.172  0.00  0.00    +0.000 OA
ATOM     35  H   UNL     1      47.121   3.302   5.945  0.00  0.00    +0.000 HD
ENDBRANCH  33  34
ENDBRANCH  32  33
ENDBRANCH  27  28
ENDBRANCH  23  27
ENDBRANCH   4  23
TORSDOF 11
ENDMDL
MODEL 2
REMARK VINA RESULT:    -6.850      3.037      4.243
REMARK INTER + INTRA:         -11.844
REMARK INTER:                  -9.269
REMARK INTRA:                  -2.575
REMARK UNBOUND:                -0.990
REMARK  Name = 
REMARK  12 active torsions:
REMARK  status: ('A' for Active; 'I' for Inactive)
REMARK    1  A    between atoms: C_1  and  C_2
REMARK    2  A    between atoms: C_2  and  N_3
REMARK    3  A    between atoms: C_2  and  C_22
REMARK    4  A    between atoms: N_3  and  C_4
REMARK    5  A    between atoms: C_4  and  C_5
REMARK    6  A    between atoms: C_8  and  C_9
REMARK    7  A    between atoms: C_9  and  C_10
REMARK    8  A    between atoms: C_9  and  C_12
REMARK    9  A    between atoms: C_10  and  O_11
REMARK   10  A    between atoms: C_12  and  N_13
REMARK   11  A    between atoms: C_17  and  C_18
REMARK   12  A    between atoms: C_18  and  O_19
REMARK                            x       y       z     vdW  Elec       q    Type
REMARK                         _______ _______ _______ _____ _____    ______ ____
ROOT
ATOM      1  C   UNL     1      49.234   8.213  15.629  0.00  0.00    +0.000 A 
ATOM      2  C   UNL     1      49.572   7.190  14.745  0.00  0.00    +0.000 A 
ATOM      3  C   UNL     1      48.887   7.062  13.535  0.00  0.00    +0.000 A 
ATOM      4  C   UNL     1      47.862   7.961  13.232  0.00  0.00    +0.000 A 
ATOM      5  N   UNL     1      47.548   8.978  14.077  0.00  0.00    +0.000 NA
ATOM      6  C   UNL     1      48.235   9.090  15.233  0.00  0.00    +0.000 A 
ENDROOT
BRANCH   1   7
ATOM      7  C   UNL     1      49.930   8.402  16.940  0.00  0.00    +0.000 C 
BRANCH   7   8
ATOM      8  N   UNL     1      50.412   7.126  17.469  0.00  0.00    +0.000 NA
ATOM      9  H   UNL     1      51.305   7.284  17.938  0.00  0.00    +0.000 HD
BRANCH   8  11
ATOM     10  C   UNL     1      48.288   7.429  18.721  0.00  0.00    +0.000 C 
ATOM     11  C   UNL     1      49.482   6.515  18.429  0.00  0.00    +0.000 C 
BRANCH  11  12
ATOM     12  C   UNL     1      49.049   5.189  17.828  0.00  0.00    +0.000 A 
ATOM     13  C   UNL     1      47.806   4.950  17.262  0.00  0.00    +0.000 A 
ATOM     14  S   UNL     1      47.644   3.381  16.608  0.00  0.00    +0.000 S 
ATOM     15  C   UNL     1      49.237   2.974  17.035  0.00  0.00    +0.000 A 
ATOM     16  N   UNL     1      49.771   1.762  16.709  0.00  0.00    +0.000 NA
ATOM     17  C   UNL     1      51.002   1.607  17.070  0.00  0.00    +0.000 A 
ATOM     18  N   UNL     1      51.736   2.539  17.755  0.00  0.00    +0.000 N 
ATOM     19  C   UNL     1      51.217   3.742  18.174  0.00  0.00    +0.000 A 
ATOM     20  O   UNL     1      51.866   4.503  18.892  0.00  0.00    +0.000 OA
ATOM     21  C   UNL     1      49.866   4.000  17.718  0.00  0.00    +0.000 A 
ATOM     22  H   UNL     1      52.683   2.339  18.049  0.00  0.00    +0.000 HD
ENDBRANCH  11  12
ENDBRANCH   8  11
ENDBRANCH   7   8
ENDBRANCH   1   7
BRANCH   4  23
ATOM     23  C   UNL     1      47.038   7.849  11.941  0.00  0.00    +0.000 C 
BRANCH  23  24
ATOM     24  C   UNL     1      45.710   8.615  12.101  0.00  0.00    +0.000 C 
BRANCH  24  25
ATOM     25  O   UNL     1      44.928   8.136  13.195  0.00  0.00    +0.000 OA
ATOM     26  H   UNL     1      45.582   7.957  13.908  0.00  0.00    +0.000 HD
ENDBRANCH  24  25
ENDBRANCH  23  24
BRANCH  23  27
ATOM     27  C   UNL     1      46.823   6.362  11.546  0.00  0.00    +0.000 C 
BRANCH  27  28
ATOM     28  N   UNL     1      45.792   5.530  12.172  0.00  0.00    +0.000 NA
ATOM     29  C   UNL     1      46.123   4.681  13.304  0.00  0.00    +0.000 C 
ATOM     30  C   UNL     1      45.784   3.272  12.854  0.00  0.00    +0.000 C 
ATOM     31  C   UNL     1      44.589   3.474  11.943  0.00  0.00    +0.000 C 
ATOM     32  C   UNL     1      44.819   4.848  11.301  0.00  0.00    +0.000 C 
BRANCH  32  33
ATOM     33  C   UNL     1      43.507   5.655  11.269  0.00  0.00    +0.000 C 
BRANCH  33  34
ATOM     34  O   UNL     1      43.020   5.919  12.582  0.00  0.00    +0.000 OA
ATOM     35  H   UNL     1      43.197   6.861  12.729  0.00  0.00    +0.000 HD
ENDBRANCH  33  34
ENDBRANCH  32  33
ENDBRANCH  27  28
ENDBRANCH  23  27
ENDBRANCH   4  23
TORSDOF 11
ENDMDL
MODEL 3
REMARK VINA RESULT:    -6.790      3.013      4.090
REMARK INTER + INTRA:         -11.749
REMARK INTER:                 -10.090
REMARK INTRA:                  -1.659
REMARK UNBOUND:                -0.990
REMARK  Name = 
REMARK  12 active torsions:
REMARK  status: ('A' for Active; 'I' for Inactive)
REMARK    1  A    between atoms: C_1  and  C_2
REMARK    2  A    between atoms: C_2  and  N_3
REMARK    3  A    between atoms: C_2  and  C_22
REMARK    4  A    between atoms: N_3  and  C_4
REMARK    5  A    between atoms: C_4  and  C_5
REMARK    6  A    between atoms: C_8  and  C_9
REMARK    7  A    between atoms: C_9  and  C_10
REMARK    8  A    between atoms: C_9  and  C_12
REMARK    9  A    between atoms: C_10  and  O_11
REMARK   10  A    between atoms: C_12  and  N_13
REMARK   11  A    between atoms: C_17  and  C_18
REMARK   12  A    between atoms: C_18  and  O_19
REMARK                            x       y       z     vdW  Elec       q    Type
REMARK                         _______ _______ _______ _____ _____    ______ ____
ROOT
ATOM      1  C   UNL     1      47.369   7.065  13.141  0.00  0.00    +0.000 A 
ATOM      2  C   UNL     1      46.457   7.726  12.320  0.00  0.00    +0.000 A 
ATOM      3  C   UNL     1      45.262   7.099  11.964  0.00  0.00    +0.000 A 
ATOM      4  C   UNL     1      45.000   5.809  12.433  0.00  0.00    +0.000 A 
ATOM      5  N   UNL     1      45.872   5.173  13.257  0.00  0.00    +0.000 NA
ATOM      6  C   UNL     1      47.015   5.805  13.599  0.00  0.00    +0.000 A 
ENDROOT
BRANCH   1   7
ATOM      7  C   UNL     1      48.667   7.682  13.557  0.00  0.00    +0.000 C 
BRANCH   7   8
ATOM      8  N   UNL     1      49.510   6.715  14.261  0.00  0.00    +0.000 NA
ATOM      9  H   UNL     1      50.029   6.171  13.571  0.00  0.00    +0.000 HD
BRANCH   8  11
ATOM     10  C   UNL     1      51.182   8.534  14.516  0.00  0.00    +0.000 C 
ATOM     11  C   UNL     1      50.470   7.349  15.175  0.00  0.00    +0.000 C 
BRANCH  11  12
ATOM     12  C   UNL     1      49.684   7.770  16.404  0.00  0.00    +0.000 A 
ATOM     13  C   UNL     1      49.581   9.074  16.865  0.00  0.00    +0.000 A 
ATOM     14  S   UNL     1      48.569   9.239  18.230  0.00  0.00    +0.000 S 
ATOM     15  C   UNL     1      48.212   7.578  18.240  0.00  0.00    +0.000 A 
ATOM     16  N   UNL     1      47.338   7.046  19.142  0.00  0.00    +0.000 NA
ATOM     17  C   UNL     1      47.140   5.776  19.007  0.00  0.00    +0.000 A 
ATOM     18  N   UNL     1      47.759   4.986  18.076  0.00  0.00    +0.000 N 
ATOM     19  C   UNL     1      48.705   5.462  17.198  0.00  0.00    +0.000 A 
ATOM     20  O   UNL     1      49.331   4.702  16.458  0.00  0.00    +0.000 OA
ATOM     21  C   UNL     1      48.899   6.897  17.251  0.00  0.00    +0.000 A 
ATOM     22  H   UNL     1      47.595   3.988  18.051  0.00  0.00    +0.000 HD
ENDBRANCH  11  12
ENDBRANCH   8  11
ENDBRANCH   7   8
ENDBRANCH   1   7
BRANCH   4  23
ATOM     23  C   UNL     1      43.726   5.046  12.043  0.00  0.00    +0.000 C 
BRANCH  23  24
ATOM     24  C   UNL     1      43.614   3.756  12.880  0.00  0.00    +0.000 C 
BRANCH  24  25
ATOM     25  O   UNL     1      44.593   2.781  12.521  0.00  0.00    +0.000 OA
ATOM     26  H   UNL     1      45.324   2.914  13.167  0.00  0.00    +0.000 HD
ENDBRANCH  24  25
ENDBRANCH  23  24
BRANCH  23  27
ATOM     27  C   UNL     1      43.692   4.767  10.515  0.00  0.00    +0.000 C 
BRANCH  27  28
ATOM     28  N   UNL     1      44.802   4.116   9.815  0.00  0.00    +0.000 NA
ATOM     29  C   UNL     1      45.980   4.880   9.438  0.00  0.00    +0.000 C 
ATOM     30  C   UNL     1      46.069   4.750   7.929  0.00  0.00    +0.000 C 
ATOM     31  C   UNL     1      45.531   3.357   7.666  0.00  0.00    +0.000 C 
ATOM     32  C   UNL     1      44.487   3.130   8.767  0.00  0.00    +0.000 C 
BRANCH  32  33
ATOM     33  C   UNL     1      44.614   1.708   9.346  0.00  0.00    +0.000 C 
BRANCH  33  34
ATOM     34  O   UNL     1      45.615   0.952   8.669  0.00  0.00    +0.000 OA
ATOM     35  H   UNL     1      45.969   1.553   7.995  0.00  0.00    +0.000 HD
ENDBRANCH  33  34
ENDBRANCH  32  33
ENDBRANCH  27  28
ENDBRANCH  23  27
ENDBRANCH   4  23
TORSDOF 11
ENDMDL
MODEL 4
REMARK VINA RESULT:    -6.751      3.206      4.678
REMARK INTER + INTRA:         -11.688
REMARK INTER:                  -9.196
REMARK INTRA:                  -2.492
REMARK UNBOUND:                -0.990
REMARK  Name = 
REMARK  12 active torsions:
REMARK  status: ('A' for Active; 'I' for Inactive)
REMARK    1  A    between atoms: C_1  and  C_2
REMARK    2  A    between atoms: C_2  and  N_3
REMARK    3  A    between atoms: C_2  and  C_22
REMARK    4  A    between atoms: N_3  and  C_4
REMARK    5  A    between atoms: C_4  and  C_5
REMARK    6  A    between atoms: C_8  and  C_9
REMARK    7  A    between atoms: C_9  and  C_10
REMARK    8  A    between atoms: C_9  and  C_12
REMARK    9  A    between atoms: C_10  and  O_11
REMARK   10  A    between atoms: C_12  and  N_13
REMARK   11  A    between atoms: C_17  and  C_18
REMARK   12  A    between atoms: C_18  and  O_19
REMARK                            x       y       z     vdW  Elec       q    Type
REMARK                         _______ _______ _______ _____ _____    ______ ____
ROOT
ATOM      1  C   UNL     1      49.715   7.971  14.247  0.00  0.00    +0.000 A 
ATOM      2  C   UNL     1      49.758   7.464  12.950  0.00  0.00    +0.000 A 
ATOM      3  C   UNL     1      48.625   7.536  12.137  0.00  0.00    +0.000 A 
ATOM      4  C   UNL     1      47.457   8.112  12.643  0.00  0.00    +0.000 A 
ATOM      5  N   UNL     1      47.419   8.635  13.896  0.00  0.00    +0.000 NA
ATOM      6  C   UNL     1      48.531   8.566  14.658  0.00  0.00    +0.000 A 
ENDROOT
BRANCH   1   7
ATOM      7  C   UNL     1      50.894   7.923  15.167  0.00  0.00    +0.000 C 
BRANCH   7   8
ATOM      8  N   UNL     1      51.085   6.577  15.709  0.00  0.00    +0.000 NA
ATOM      9  H   UNL     1      51.945   6.188  15.322  0.00  0.00    +0.000 HD
BRANCH   8  11
ATOM     10  C   UNL     1      51.793   7.853  17.720  0.00  0.00    +0.000 C 
ATOM     11  C   UNL     1      51.181   6.559  17.176  0.00  0.00    +0.000 C 
BRANCH  11  12
ATOM     12  C   UNL     1      49.774   6.332  17.699  0.00  0.00    +0.000 A 
ATOM     13  C   UNL     1      48.986   7.309  18.288  0.00  0.00    +0.000 A 
ATOM     14  S   UNL     1      47.423   6.764  18.711  0.00  0.00    +0.000 S 
ATOM     15  C   UNL     1      47.736   5.210  18.100  0.00  0.00    +0.000 A 
ATOM     16  N   UNL     1      46.775   4.243  18.099  0.00  0.00    +0.000 NA
ATOM     17  C   UNL     1      47.146   3.122  17.572  0.00  0.00    +0.000 A 
ATOM     18  N   UNL     1      48.399   2.872  17.078  0.00  0.00    +0.000 N 
ATOM     19  C   UNL     1      49.422   3.789  17.129  0.00  0.00    +0.000 A 
ATOM     20  O   UNL     1      50.567   3.489  16.789  0.00  0.00    +0.000 OA
ATOM     21  C   UNL     1      49.032   5.091  17.631  0.00  0.00    +0.000 A 
ATOM     22  H   UNL     1      48.641   1.957  16.720  0.00  0.00    +0.000 HD
ENDBRANCH  11  12
ENDBRANCH   8  11
ENDBRANCH   7   8
ENDBRANCH   1   7
BRANCH   4  23
ATOM     23  C   UNL     1      46.163   8.182  11.819  0.00  0.00    +0.000 C 
BRANCH  23  24
ATOM     24  C   UNL     1      45.501   9.562  12.002  0.00  0.00    +0.000 C 
BRANCH  24  25
ATOM     25  O   UNL     1      44.488   9.556  13.008  0.00  0.00    +0.000 OA
ATOM     26  H   UNL     1      44.778  10.236  13.657  0.00  0.00    +0.000 HD
ENDBRANCH  24  25
ENDBRANCH  23  24
BRANCH  23  27
ATOM     27  C   UNL     1      45.209   7.012  12.184  0.00  0.00    +0.000 C 
BRANCH  27  28
ATOM     28  N   UNL     1      45.609   5.608  12.051  0.00  0.00    +0.000 NA
ATOM     29  C   UNL     1      45.266   4.858  10.855  0.00  0.00    +0.000 C 
ATOM     30  C   UNL     1      44.432   3.690  11.346  0.00  0.00    +0.000 C 
ATOM     31  C   UNL     1      45.030   3.381  12.705  0.00  0.00    +0.000 C 
ATOM     32  C   UNL     1      45.510   4.737  13.236  0.00  0.00    +0.000 C 
BRANCH  32  33
ATOM     33  C   UNL     1      46.899   4.600  13.888  0.00  0.00    +0.000 C 
BRANCH  33  34
ATOM     34  O   UNL     1      47.259   3.234  14.076  0.00  0.00    +0.000 OA
ATOM     35  H   UNL     1      46.484   2.729  13.785  0.00  0.00    +0.000 HD
ENDBRANCH  33  34
ENDBRANCH  32  33
ENDBRANCH  27  28
ENDBRANCH  23  27
ENDBRANCH   4  23
TORSDOF 11
ENDMDL
MODEL 5
REMARK VINA RESULT:    -6.381      1.714      2.366
REMARK INTER + INTRA:         -11.101
REMARK INTER:                 -10.401
REMARK INTRA:                  -0.700
REMARK UNBOUND:                -0.990
REMARK  Name = 
REMARK  12 active torsions:
REMARK  status: ('A' for Active; 'I' for Inactive)
REMARK    1  A    between atoms: C_1  and  C_2
REMARK    2  A    between atoms: C_2  and  N_3
REMARK    3  A    between atoms: C_2  and  C_22
REMARK    4  A    between atoms: N_3  and  C_4
REMARK    5  A    between atoms: C_4  and  C_5
REMARK    6  A    between atoms: C_8  and  C_9
REMARK    7  A    between atoms: C_9  and  C_10
REMARK    8  A    between atoms: C_9  and  C_12
REMARK    9  A    between atoms: C_10  and  O_11
REMARK   10  A    between atoms: C_12  and  N_13
REMARK   11  A    between atoms: C_17  and  C_18
REMARK   12  A    between atoms: C_18  and  O_19
REMARK                            x       y       z     vdW  Elec       q    Type
REMARK                         _______ _______ _______ _____ _____    ______ ____
ROOT
ATOM      1  C   UNL     1      47.063   4.760  14.696  0.00  0.00    +0.000 A 
ATOM      2  C   UNL     1      47.905   5.547  13.912  0.00  0.00    +0.000 A 
ATOM      3  C   UNL     1      47.383   6.260  12.832  0.00  0.00    +0.000 A 
ATOM      4  C   UNL     1      46.018   6.166  12.547  0.00  0.00    +0.000 A 
ATOM      5  N   UNL     1      45.189   5.423  13.325  0.00  0.00    +0.000 NA
ATOM      6  C   UNL     1      45.715   4.755  14.372  0.00  0.00    +0.000 A 
ENDROOT
BRANCH   1   7
ATOM      7  C   UNL     1      47.563   3.972  15.866  0.00  0.00    +0.000 C 
BRANCH   7   8
ATOM      8  N   UNL     1      48.874   4.452  16.304  0.00  0.00    +0.000 NA
ATOM      9  H   UNL     1      49.028   5.381  15.912  0.00  0.00    +0.000 HD
BRANCH   8  11
ATOM     10  C   UNL     1      48.061   3.547  18.470  0.00  0.00    +0.000 C 
ATOM     11  C   UNL     1      48.994   4.537  17.767  0.00  0.00    +0.000 C 
BRANCH  11  12
ATOM     12  C   UNL     1      50.453   4.274  18.096  0.00  0.00    +0.000 A 
ATOM     13  C   UNL     1      51.276   5.156  18.780  0.00  0.00    +0.000 A 
ATOM     14  S   UNL     1      52.847   4.547  19.059  0.00  0.00    +0.000 S 
ATOM     15  C   UNL     1      52.475   3.074  18.299  0.00  0.00    +0.000 A 
ATOM     16  N   UNL     1      53.384   2.059  18.239  0.00  0.00    +0.000 NA
ATOM     17  C   UNL     1      52.949   0.988  17.660  0.00  0.00    +0.000 A 
ATOM     18  N   UNL     1      51.703   0.852  17.108  0.00  0.00    +0.000 N 
ATOM     19  C   UNL     1      50.782   1.874  17.075  0.00  0.00    +0.000 A 
ATOM     20  O   UNL     1      49.719   1.757  16.464  0.00  0.00    +0.000 OA
ATOM     21  C   UNL     1      51.190   3.067  17.789  0.00  0.00    +0.000 A 
ATOM     22  H   UNL     1      51.439   0.002  16.628  0.00  0.00    +0.000 HD
ENDBRANCH  11  12
ENDBRANCH   8  11
ENDBRANCH   7   8
ENDBRANCH   1   7
BRANCH   4  23
ATOM     23  C   UNL     1      45.388   6.887  11.346  0.00  0.00    +0.000 C 
BRANCH  23  24
ATOM     24  C   UNL     1      45.333   8.403  11.617  0.00  0.00    +0.000 C 
BRANCH  24  25
ATOM     25  O   UNL     1      44.912   8.709  12.947  0.00  0.00    +0.000 OA
ATOM     26  H   UNL     1      45.340   9.572  13.150  0.00  0.00    +0.000 HD
ENDBRANCH  24  25
ENDBRANCH  23  24
BRANCH  23  27
ATOM     27  C   UNL     1      43.992   6.292  11.012  0.00  0.00    +0.000 C 
BRANCH  27  28
ATOM     28  N   UNL     1      43.826   4.927  10.506  0.00  0.00    +0.000 NA
ATOM     29  C   UNL     1      42.991   3.977  11.221  0.00  0.00    +0.000 C 
ATOM     30  C   UNL     1      43.914   2.825  11.573  0.00  0.00    +0.000 C 
ATOM     31  C   UNL     1      44.878   2.780  10.403  0.00  0.00    +0.000 C 
ATOM     32  C   UNL     1      45.003   4.240   9.947  0.00  0.00    +0.000 C 
BRANCH  32  33
ATOM     33  C   UNL     1      44.966   4.329   8.410  0.00  0.00    +0.000 C 
BRANCH  33  34
ATOM     34  O   UNL     1      46.232   4.708   7.875  0.00  0.00    +0.000 OA
ATOM     35  H   UNL     1      46.032   5.407   7.233  0.00  0.00    +0.000 HD
ENDBRANCH  33  34
ENDBRANCH  32  33
ENDBRANCH  27  28
ENDBRANCH  23  27
ENDBRANCH   4  23
TORSDOF 11
ENDMDL
MODEL 6
REMARK VINA RESULT:    -6.379      3.832      8.948
REMARK INTER + INTRA:         -11.099
REMARK INTER:                  -8.911
REMARK INTRA:                  -2.188
REMARK UNBOUND:                -0.990
REMARK  Name = 
REMARK  12 active torsions:
REMARK  status: ('A' for Active; 'I' for Inactive)
REMARK    1  A    between atoms: C_1  and  C_2
REMARK    2  A    between atoms: C_2  and  N_3
REMARK    3  A    between atoms: C_2  and  C_22
REMARK    4  A    between atoms: N_3  and  C_4
REMARK    5  A    between atoms: C_4  and  C_5
REMARK    6  A    between atoms: C_8  and  C_9
REMARK    7  A    between atoms: C_9  and  C_10
REMARK    8  A    between atoms: C_9  and  C_12
REMARK    9  A    between atoms: C_10  and  O_11
REMARK   10  A    between atoms: C_12  and  N_13
REMARK   11  A    between atoms: C_17  and  C_18
REMARK   12  A    between atoms: C_18  and  O_19
REMARK                            x       y       z     vdW  Elec       q    Type
REMARK                         _______ _______ _______ _____ _____    ______ ____
ROOT
ATOM      1  C   UNL     1      48.740   8.843  15.444  0.00  0.00    +0.000 A 
ATOM      2  C   UNL     1      47.952   9.171  16.546  0.00  0.00    +0.000 A 
ATOM      3  C   UNL     1      48.243   8.622  17.797  0.00  0.00    +0.000 A 
ATOM      4  C   UNL     1      49.320   7.742  17.923  0.00  0.00    +0.000 A 
ATOM      5  N   UNL     1      50.108   7.441  16.858  0.00  0.00    +0.000 NA
ATOM      6  C   UNL     1      49.816   7.995  15.663  0.00  0.00    +0.000 A 
ENDROOT
BRANCH   1   7
ATOM      7  C   UNL     1      48.479   9.396  14.079  0.00  0.00    +0.000 C 
BRANCH   7   8
ATOM      8  N   UNL     1      47.167   8.980  13.583  0.00  0.00    +0.000 NA
ATOM      9  H   UNL     1      46.622   9.814  13.362  0.00  0.00    +0.000 HD
BRANCH   8  11
ATOM     10  C   UNL     1      48.661   8.136  11.787  0.00  0.00    +0.000 C 
ATOM     11  C   UNL     1      47.249   8.141  12.379  0.00  0.00    +0.000 C 
BRANCH  11  12
ATOM     12  C   UNL     1      46.800   6.750  12.790  0.00  0.00    +0.000 A 
ATOM     13  C   UNL     1      47.612   5.810  13.407  0.00  0.00    +0.000 A 
ATOM     14  S   UNL     1      46.800   4.363  13.808  0.00  0.00    +0.000 S 
ATOM     15  C   UNL     1      45.328   4.949  13.195  0.00  0.00    +0.000 A 
ATOM     16  N   UNL     1      44.183   4.213  13.278  0.00  0.00    +0.000 NA
ATOM     17  C   UNL     1      43.136   4.801  12.799  0.00  0.00    +0.000 A 
ATOM     18  N   UNL     1      43.136   6.041  12.218  0.00  0.00    +0.000 N 
ATOM     19  C   UNL     1      44.279   6.787  12.043  0.00  0.00    +0.000 A 
ATOM     20  O   UNL     1      44.263   7.842  11.407  0.00  0.00    +0.000 OA
ATOM     21  C   UNL     1      45.466   6.209  12.640  0.00  0.00    +0.000 A 
ATOM     22  H   UNL     1      42.290   6.427  11.821  0.00  0.00    +0.000 HD
ENDBRANCH  11  12
ENDBRANCH   8  11
ENDBRANCH   7   8
ENDBRANCH   1   7
BRANCH   4  23
ATOM     23  C   UNL     1      49.666   7.067  19.258  0.00  0.00    +0.000 C 
BRANCH  23  24
ATOM     24  C   UNL     1      51.194   7.063  19.460  0.00  0.00    +0.000 C 
BRANCH  24  25
ATOM     25  O   UNL     1      51.701   5.771  19.797  0.00  0.00    +0.000 OA
ATOM     26  H   UNL     1      52.677   5.891  19.841  0.00  0.00    +0.000 HD
ENDBRANCH  24  25
ENDBRANCH  23  24
BRANCH  23  27
ATOM     27  C   UNL     1      49.052   5.642  19.337  0.00  0.00    +0.000 C 
BRANCH  27  28
ATOM     28  N   UNL     1      48.896   4.794  18.152  0.00  0.00    +0.000 NA
ATOM     29  C   UNL     1      47.642   4.785  17.418  0.00  0.00    +0.000 C 
ATOM     30  C   UNL     1      47.167   3.344  17.465  0.00  0.00    +0.000 C 
ATOM     31  C   UNL     1      48.458   2.550  17.447  0.00  0.00    +0.000 C 
ATOM     32  C   UNL     1      49.471   3.438  18.182  0.00  0.00    +0.000 C 
BRANCH  32  33
ATOM     33  C   UNL     1      50.823   3.438  17.445  0.00  0.00    +0.000 C 
BRANCH  33  34
ATOM     34  O   UNL     1      51.174   4.742  16.990  0.00  0.00    +0.000 OA
ATOM     35  H   UNL     1      50.747   5.348  17.615  0.00  0.00    +0.000 HD
ENDBRANCH  33  34
ENDBRANCH  32  33
ENDBRANCH  27  28
ENDBRANCH  23  27
ENDBRANCH   4  23
TORSDOF 11
ENDMDL
MODEL 7
REMARK VINA RESULT:    -6.363      2.985      4.420
REMARK INTER + INTRA:         -11.073
REMARK INTER:                  -9.315
REMARK INTRA:                  -1.758
REMARK UNBOUND:                -0.990
REMARK  Name = 
REMARK  12 active torsions:
REMARK  status: ('A' for Active; 'I' for Inactive)
REMARK    1  A    between atoms: C_1  and  C_2
REMARK    2  A    between atoms: C_2  and  N_3
REMARK    3  A    between atoms: C_2  and  C_22
REMARK    4  A    between atoms: N_3  and  C_4
REMARK    5  A    between atoms: C_4  and  C_5
REMARK    6  A    between atoms: C_8  and  C_9
REMARK    7  A    between atoms: C_9  and  C_10
REMARK    8  A    between atoms: C_9  and  C_12
REMARK    9  A    between atoms: C_10  and  O_11
REMARK   10  A    between atoms: C_12  and  N_13
REMARK   11  A    between atoms: C_17  and  C_18
REMARK   12  A    between atoms: C_18  and  O_19
REMARK                            x       y       z     vdW  Elec       q    Type
REMARK                         _______ _______ _______ _____ _____    ______ ____
ROOT
ATOM      1  C   UNL     1      49.740   7.754  13.734  0.00  0.00    +0.000 A 
ATOM      2  C   UNL     1      49.737   7.905  12.348  0.00  0.00    +0.000 A 
ATOM      3  C   UNL     1      48.593   7.582  11.616  0.00  0.00    +0.000 A 
ATOM      4  C   UNL     1      47.465   7.105  12.288  0.00  0.00    +0.000 A 
ATOM      5  N   UNL     1      47.453   6.984  13.641  0.00  0.00    +0.000 NA
ATOM      6  C   UNL     1      48.567   7.315  14.327  0.00  0.00    +0.000 A 
ENDROOT
BRANCH   1   7
ATOM      7  C   UNL     1      50.935   8.081  14.573  0.00  0.00    +0.000 C 
BRANCH   7   8
ATOM      8  N   UNL     1      50.565   8.918  15.714  0.00  0.00    +0.000 NA
ATOM      9  H   UNL     1      49.550   9.020  15.728  0.00  0.00    +0.000 HD
BRANCH   8  11
ATOM     10  C   UNL     1      51.870   9.339  17.785  0.00  0.00    +0.000 C 
ATOM     11  C   UNL     1      50.997   8.355  17.002  0.00  0.00    +0.000 C 
BRANCH  11  12
ATOM     12  C   UNL     1      49.732   7.989  17.759  0.00  0.00    +0.000 A 
ATOM     13  C   UNL     1      48.956   8.888  18.476  0.00  0.00    +0.000 A 
ATOM     14  S   UNL     1      47.558   8.187  19.162  0.00  0.00    +0.000 S 
ATOM     15  C   UNL     1      47.926   6.665  18.504  0.00  0.00    +0.000 A 
ATOM     16  N   UNL     1      47.089   5.601  18.668  0.00  0.00    +0.000 NA
ATOM     17  C   UNL     1      47.484   4.517  18.085  0.00  0.00    +0.000 A 
ATOM     18  N   UNL     1      48.653   4.392  17.383  0.00  0.00    +0.000 N 
ATOM     19  C   UNL     1      49.565   5.414  17.257  0.00  0.00    +0.000 A 
ATOM     20  O   UNL     1      50.660   5.231  16.724  0.00  0.00    +0.000 OA
ATOM     21  C   UNL     1      49.128   6.676  17.820  0.00  0.00    +0.000 A 
ATOM     22  H   UNL     1      48.927   3.502  16.987  0.00  0.00    +0.000 HD
ENDBRANCH  11  12
ENDBRANCH   8  11
ENDBRANCH   7   8
ENDBRANCH   1   7
BRANCH   4  23
ATOM     23  C   UNL     1      46.189   6.689  11.540  0.00  0.00    +0.000 C 
BRANCH  23  24
ATOM     24  C   UNL     1      45.177   7.851  11.548  0.00  0.00    +0.000 C 
BRANCH  24  25
ATOM     25  O   UNL     1      44.925   8.351  12.861  0.00  0.00    +0.000 OA
ATOM     26  H   UNL     1      45.816   8.565  13.221  0.00  0.00    +0.000 HD
ENDBRANCH  24  25
ENDBRANCH  23  24
BRANCH  23  27
ATOM     27  C   UNL     1      45.598   5.381  12.136  0.00  0.00    +0.000 C 
BRANCH  27  28
ATOM     28  N   UNL     1      44.502   4.655  11.489  0.00  0.00    +0.000 NA
ATOM     29  C   UNL     1      43.422   4.097  12.285  0.00  0.00    +0.000 C 
ATOM     30  C   UNL     1      43.447   2.608  11.997  0.00  0.00    +0.000 C 
ATOM     31  C   UNL     1      43.895   2.540  10.550  0.00  0.00    +0.000 C 
ATOM     32  C   UNL     1      44.824   3.747  10.374  0.00  0.00    +0.000 C 
BRANCH  32  33
ATOM     33  C   UNL     1      44.540   4.456   9.037  0.00  0.00    +0.000 C 
BRANCH  33  34
ATOM     34  O   UNL     1      45.718   5.048   8.495  0.00  0.00    +0.000 OA
ATOM     35  H   UNL     1      46.450   4.532   8.866  0.00  0.00    +0.000 HD
ENDBRANCH  33  34
ENDBRANCH  32  33
ENDBRANCH  27  28
ENDBRANCH  23  27
ENDBRANCH   4  23
TORSDOF 11
ENDMDL
MODEL 8
REMARK VINA RESULT:    -6.213      3.240      9.331
REMARK INTER + INTRA:         -10.835
REMARK INTER:                  -9.682
REMARK INTRA:                  -1.153
REMARK UNBOUND:                -0.990
REMARK  Name = 
REMARK  12 active torsions:
REMARK  status: ('A' for Active; 'I' for Inactive)
REMARK    1  A    between atoms: C_1  and  C_2
REMARK    2  A    between atoms: C_2  and  N_3
REMARK    3  A    between atoms: C_2  and  C_22
REMARK    4  A    between atoms: N_3  and  C_4
REMARK    5  A    between atoms: C_4  and  C_5
REMARK    6  A    between atoms: C_8  and  C_9
REMARK    7  A    between atoms: C_9  and  C_10
REMARK    8  A    between atoms: C_9  and  C_12
REMARK    9  A    between atoms: C_10  and  O_11
REMARK   10  A    between atoms: C_12  and  N_13
REMARK   11  A    between atoms: C_17  and  C_18
REMARK   12  A    between atoms: C_18  and  O_19
REMARK                            x       y       z     vdW  Elec       q    Type
REMARK                         _______ _______ _______ _____ _____    ______ ____
ROOT
ATOM      1  C   UNL     1      47.898   7.711  13.528  0.00  0.00    +0.000 A 
ATOM      2  C   UNL     1      48.029   6.415  14.023  0.00  0.00    +0.000 A 
ATOM      3  C   UNL     1      48.594   6.206  15.282  0.00  0.00    +0.000 A 
ATOM      4  C   UNL     1      49.028   7.305  16.027  0.00  0.00    +0.000 A 
ATOM      5  N   UNL     1      48.877   8.572  15.561  0.00  0.00    +0.000 NA
ATOM      6  C   UNL     1      48.315   8.749  14.347  0.00  0.00    +0.000 A 
ENDROOT
BRANCH   1   7
ATOM      7  C   UNL     1      47.303   8.000  12.186  0.00  0.00    +0.000 C 
BRANCH   7   8
ATOM      8  N   UNL     1      46.600   6.831  11.658  0.00  0.00    +0.000 NA
ATOM      9  H   UNL     1      47.033   5.990  12.040  0.00  0.00    +0.000 HD
BRANCH   8  11
ATOM     10  C   UNL     1      44.366   7.770  11.114  0.00  0.00    +0.000 C 
ATOM     11  C   UNL     1      45.171   6.818  12.002  0.00  0.00    +0.000 C 
BRANCH  11  12
ATOM     12  C   UNL     1      44.705   5.379  11.860  0.00  0.00    +0.000 A 
ATOM     13  C   UNL     1      44.059   4.659  12.854  0.00  0.00    +0.000 A 
ATOM     14  S   UNL     1      43.598   3.088  12.370  0.00  0.00    +0.000 S 
ATOM     15  C   UNL     1      44.223   3.322  10.808  0.00  0.00    +0.000 A 
ATOM     16  N   UNL     1      44.106   2.362   9.847  0.00  0.00    +0.000 NA
ATOM     17  C   UNL     1      44.599   2.693   8.698  0.00  0.00    +0.000 A 
ATOM     18  N   UNL     1      45.227   3.882   8.435  0.00  0.00    +0.000 N 
ATOM     19  C   UNL     1      45.437   4.847   9.391  0.00  0.00    +0.000 A 
ATOM     20  O   UNL     1      46.112   5.849   9.151  0.00  0.00    +0.000 OA
ATOM     21  C   UNL     1      44.826   4.560  10.673  0.00  0.00    +0.000 A 
ATOM     22  H   UNL     1      45.632   4.063   7.526  0.00  0.00    +0.000 HD
ENDBRANCH  11  12
ENDBRANCH   8  11
ENDBRANCH   7   8
ENDBRANCH   1   7
BRANCH   4  23
ATOM     23  C   UNL     1      49.700   7.143  17.399  0.00  0.00    +0.000 C 
BRANCH  23  24
ATOM     24  C   UNL     1      50.506   8.411  17.739  0.00  0.00    +0.000 C 
BRANCH  24  25
ATOM     25  O   UNL     1      51.672   8.130  18.514  0.00  0.00    +0.000 OA
ATOM     26  H   UNL     1      51.489   7.257  18.930  0.00  0.00    +0.000 HD
ENDBRANCH  24  25
ENDBRANCH  23  24
BRANCH  23  27
ATOM     27  C   UNL     1      50.569   5.856  17.443  0.00  0.00    +0.000 C 
BRANCH  27  28
ATOM     28  N   UNL     1      50.086   4.607  18.038  0.00  0.00    +0.000 NA
ATOM     29  C   UNL     1      50.450   3.328  17.454  0.00  0.00    +0.000 C 
ATOM     30  C   UNL     1      49.132   2.670  17.088  0.00  0.00    +0.000 C 
ATOM     31  C   UNL     1      48.188   3.156  18.170  0.00  0.00    +0.000 C 
ATOM     32  C   UNL     1      48.698   4.557  18.530  0.00  0.00    +0.000 C 
BRANCH  32  33
ATOM     33  C   UNL     1      48.688   4.759  20.057  0.00  0.00    +0.000 C 
BRANCH  33  34
ATOM     34  O   UNL     1      48.339   3.560  20.744  0.00  0.00    +0.000 OA
ATOM     35  H   UNL     1      49.134   3.007  20.699  0.00  0.00    +0.000 HD
ENDBRANCH  33  34
ENDBRANCH  32  33
ENDBRANCH  27  28
ENDBRANCH  23  27
ENDBRANCH   4  23
TORSDOF 11
ENDMDL
MODEL 9
REMARK VINA RESULT:    -5.914      3.007      4.509
REMARK INTER + INTRA:         -10.361
REMARK INTER:                  -8.735
REMARK INTRA:                  -1.627
REMARK UNBOUND:                -0.990
REMARK  Name = 
REMARK  12 active torsions:
REMARK  status: ('A' for Active; 'I' for Inactive)
REMARK    1  A    between atoms: C_1  and  C_2
REMARK    2  A    between atoms: C_2  and  N_3
REMARK    3  A    between atoms: C_2  and  C_22
REMARK    4  A    between atoms: N_3  and  C_4
REMARK    5  A    between atoms: C_4  and  C_5
REMARK    6  A    between atoms: C_8  and  C_9
REMARK    7  A    between atoms: C_9  and  C_10
REMARK    8  A    between atoms: C_9  and  C_12
REMARK    9  A    between atoms: C_10  and  O_11
REMARK   10  A    between atoms: C_12  and  N_13
REMARK   11  A    between atoms: C_17  and  C_18
REMARK   12  A    between atoms: C_18  and  O_19
REMARK                            x       y       z     vdW  Elec       q    Type
REMARK                         _______ _______ _______ _____ _____    ______ ____
ROOT
ATOM      1  C   UNL     1      50.024   7.716  13.902  0.00  0.00    +0.000 A 
ATOM      2  C   UNL     1      49.397   7.831  12.663  0.00  0.00    +0.000 A 
ATOM      3  C   UNL     1      48.223   7.119  12.410  0.00  0.00    +0.000 A 
ATOM      4  C   UNL     1      47.697   6.292  13.405  0.00  0.00    +0.000 A 
ATOM      5  N   UNL     1      48.289   6.199  14.625  0.00  0.00    +0.000 NA
ATOM      6  C   UNL     1      49.415   6.908  14.850  0.00  0.00    +0.000 A 
ENDROOT
BRANCH   1   7
ATOM      7  C   UNL     1      51.284   8.452  14.234  0.00  0.00    +0.000 C 
BRANCH   7   8
ATOM      8  N   UNL     1      52.192   7.615  15.019  0.00  0.00    +0.000 NA
ATOM      9  H   UNL     1      52.990   7.362  14.436  0.00  0.00    +0.000 HD
BRANCH   8  11
ATOM     10  C   UNL     1      52.909   9.785  15.993  0.00  0.00    +0.000 C 
ATOM     11  C   UNL     1      52.691   8.287  16.227  0.00  0.00    +0.000 C 
BRANCH  11  12
ATOM     12  C   UNL     1      51.670   8.026  17.321  0.00  0.00    +0.000 A 
ATOM     13  C   UNL     1      50.870   8.999  17.900  0.00  0.00    +0.000 A 
ATOM     14  S   UNL     1      49.771   8.384  19.053  0.00  0.00    +0.000 S 
ATOM     15  C   UNL     1      50.306   6.792  18.801  0.00  0.00    +0.000 A 
ATOM     16  N   UNL     1      49.730   5.739  19.448  0.00  0.00    +0.000 NA
ATOM     17  C   UNL     1      50.219   4.585  19.132  0.00  0.00    +0.000 A 
ATOM     18  N   UNL     1      51.252   4.392  18.253  0.00  0.00    +0.000 N 
ATOM     19  C   UNL     1      51.916   5.427  17.637  0.00  0.00    +0.000 A 
ATOM     20  O   UNL     1      52.918   5.225  16.950  0.00  0.00    +0.000 OA
ATOM     21  C   UNL     1      51.348   6.736  17.892  0.00  0.00    +0.000 A 
ATOM     22  H   UNL     1      51.620   3.465  18.082  0.00  0.00    +0.000 HD
ENDBRANCH  11  12
ENDBRANCH   8  11
ENDBRANCH   7   8
ENDBRANCH   1   7
BRANCH   4  23
ATOM     23  C   UNL     1      46.436   5.446  13.177  0.00  0.00    +0.000 C 
BRANCH  23  24
ATOM     24  C   UNL     1      46.727   3.972  13.520  0.00  0.00    +0.000 C 
BRANCH  24  25
ATOM     25  O   UNL     1      46.762   3.731  14.927  0.00  0.00    +0.000 OA
ATOM     26  H   UNL     1      45.935   4.141  15.269  0.00  0.00    +0.000 HD
ENDBRANCH  24  25
ENDBRANCH  23  24
BRANCH  23  27
ATOM     27  C   UNL     1      45.901   5.626  11.729  0.00  0.00    +0.000 C 
BRANCH  27  28
ATOM     28  N   UNL     1      44.695   4.943  11.253  0.00  0.00    +0.000 NA
ATOM     29  C   UNL     1      43.570   4.734  12.148  0.00  0.00    +0.000 C 
ATOM     30  C   UNL     1      43.375   3.229  12.193  0.00  0.00    +0.000 C 
ATOM     31  C   UNL     1      43.769   2.785  10.798  0.00  0.00    +0.000 C 
ATOM     32  C   UNL     1      44.855   3.778  10.366  0.00  0.00    +0.000 C 
BRANCH  32  33
ATOM     33  C   UNL     1      44.637   4.213   8.904  0.00  0.00    +0.000 C 
BRANCH  33  34
ATOM     34  O   UNL     1      45.615   5.161   8.486  0.00  0.00    +0.000 OA
ATOM     35  H   UNL     1      45.108   5.949   8.236  0.00  0.00    +0.000 HD
ENDBRANCH  33  34
ENDBRANCH  32  33
ENDBRANCH  27  28
ENDBRANCH  23  27
ENDBRANCH   4  23
TORSDOF 11
ENDMDL
