MODEL 1
REMARK VINA RESULT:    -8.668      0.000      0.000
REMARK INTER + INTRA:         -14.133
REMARK INTER:                 -12.722
REMARK INTRA:                  -1.411
REMARK UNBOUND:                -1.411
REMARK  Name = 
REMARK  9 active torsions:
REMARK  status: ('A' for Active; 'I' for Inactive)
REMARK    1  A    between atoms: C_1  and  O_2
REMARK    2  A    between atoms: O_2  and  C_3
REMARK    3  A    between atoms: C_10  and  C_11
REMARK    4  A    between atoms: N_13  and  C_14
REMARK    5  A    between atoms: C_14  and  C_15
REMARK    6  A    between atoms: C_18  and  C_19
REMARK    7  A    between atoms: C_19  and  N_20
REMARK    8  A    between atoms: N_20  and  C_21
REMARK    9  A    between atoms: C_21  and  C_22
REMARK                            x       y       z     vdW  Elec       q    Type
REMARK                         _______ _______ _______ _____ _____    ______ ____
ROOT
ATOM      1  C   UNL     1      46.035   6.860  12.455  0.00  0.00    +0.000 A 
ATOM      2  C   UNL     1      46.451   6.437  11.186  0.00  0.00    +0.000 A 
ATOM      3  C   UNL     1      45.750   5.440  10.502  0.00  0.00    +0.000 A 
ATOM      4  C   UNL     1      44.611   4.847  11.065  0.00  0.00    +0.000 A 
ATOM      5  C   UNL     1      44.190   5.275  12.332  0.00  0.00    +0.000 A 
ATOM      6  C   UNL     1      44.893   6.273  13.017  0.00  0.00    +0.000 A 
ENDROOT
BRANCH   1   7
ATOM      7  C   UNL     1      46.764   7.973  13.166  0.00  0.00    +0.000 C 
BRANCH   7  10
ATOM      8  C   UNL     1      48.601   6.915  14.426  0.00  0.00    +0.000 C 
ATOM      9  O   UNL     1      49.279   6.792  13.406  0.00  0.00    +0.000 OA
ATOM     10  N   UNL     1      47.362   7.490  14.387  0.00  0.00    +0.000 N 
ATOM     11  H   UNL     1      46.843   7.629  15.242  0.00  0.00    +0.000 HD
BRANCH   8  19
ATOM     12  C   UNL     1      47.671   4.314  16.488  0.00  0.00    +0.000 A 
ATOM     13  N   UNL     1      47.570   3.352  17.426  0.00  0.00    +0.000 NA
ATOM     14  C   UNL     1      48.432   3.374  18.446  0.00  0.00    +0.000 A 
ATOM     15  N   UNL     1      49.399   4.262  18.657  0.00  0.00    +0.000 NA
ATOM     16  C   UNL     1      49.472   5.198  17.696  0.00  0.00    +0.000 A 
ATOM     17  S   UNL     1      50.643   6.422  17.808  0.00  0.00    +0.000 S 
ATOM     18  C   UNL     1      50.137   7.109  16.339  0.00  0.00    +0.000 A 
ATOM     19  C   UNL     1      49.085   6.433  15.732  0.00  0.00    +0.000 A 
ATOM     20  C   UNL     1      48.668   5.303  16.563  0.00  0.00    +0.000 A 
BRANCH  12  22
ATOM     21  C   UNL     1      47.155   3.572  14.314  0.00  0.00    +0.000 C 
ATOM     22  O   UNL     1      46.755   4.324  15.457  0.00  0.00    +0.000 OA
ENDBRANCH  12  22
ENDBRANCH   8  19
ENDBRANCH   7  10
ENDBRANCH   1   7
BRANCH   4  23
ATOM     23  C   UNL     1      43.849   3.775  10.311  0.00  0.00    +0.000 C 
BRANCH  23  24
ATOM     24  N   UNL     1      44.599   2.523  10.295  0.00  0.00    +0.000 NA
ATOM     25  H   UNL     1      44.250   1.925  11.042  0.00  0.00    +0.000 HD
BRANCH  24  26
ATOM     26  C   UNL     1      44.462   1.813   9.022  0.00  0.00    +0.000 C 
BRANCH  26  27
ATOM     27  C   UNL     1      45.648   2.106   8.136  0.00  0.00    +0.000 A 
ATOM     28  C   UNL     1      45.915   3.417   7.709  0.00  0.00    +0.000 A 
ATOM     29  C   UNL     1      47.052   3.700   6.949  0.00  0.00    +0.000 A 
ATOM     30  C   UNL     1      47.930   2.676   6.594  0.00  0.00    +0.000 A 
ATOM     31  C   UNL     1      47.659   1.366   6.986  0.00  0.00    +0.000 A 
ATOM     32  C   UNL     1      46.525   1.091   7.747  0.00  0.00    +0.000 A 
ATOM     33  F   UNL     1      46.293  -0.177   8.118  0.00  0.00    +0.000 F 
ENDBRANCH  26  27
ENDBRANCH  24  26
ENDBRANCH  23  24
ENDBRANCH   4  23
TORSDOF 8
ENDMDL
MODEL 2
REMARK VINA RESULT:    -8.487      1.430      1.585
REMARK INTER + INTRA:         -13.867
REMARK INTER:                 -12.462
REMARK INTRA:                  -1.405
REMARK UNBOUND:                -1.411
REMARK  Name = 
REMARK  9 active torsions:
REMARK  status: ('A' for Active; 'I' for Inactive)
REMARK    1  A    between atoms: C_1  and  O_2
REMARK    2  A    between atoms: O_2  and  C_3
REMARK    3  A    between atoms: C_10  and  C_11
REMARK    4  A    between atoms: N_13  and  C_14
REMARK    5  A    between atoms: C_14  and  C_15
REMARK    6  A    between atoms: C_18  and  C_19
REMARK    7  A    between atoms: C_19  and  N_20
REMARK    8  A    between atoms: N_20  and  C_21
REMARK    9  A    between atoms: C_21  and  C_22
REMARK                            x       y       z     vdW  Elec       q    Type
REMARK                         _______ _______ _______ _____ _____    ______ ____
ROOT
ATOM      1  C   UNL     1      46.918   6.020  12.619  0.00  0.00    +0.000 A 
ATOM      2  C   UNL     1      46.309   6.331  11.396  0.00  0.00    +0.000 A 
ATOM      3  C   UNL     1      45.268   5.543  10.898  0.00  0.00    +0.000 A 
ATOM      4  C   UNL     1      44.803   4.429  11.612  0.00  0.00    +0.000 A 
ATOM      5  C   UNL     1      45.408   4.121  12.839  0.00  0.00    +0.000 A 
ATOM      6  C   UNL     1      46.451   4.910  13.338  0.00  0.00    +0.000 A 
ENDROOT
BRANCH   1   7
ATOM      7  C   UNL     1      48.005   6.903  13.178  0.00  0.00    +0.000 C 
BRANCH   7  10
ATOM      8  C   UNL     1      48.969   6.910  15.448  0.00  0.00    +0.000 C 
ATOM      9  O   UNL     1      50.106   6.746  15.005  0.00  0.00    +0.000 OA
ATOM     10  N   UNL     1      47.892   7.003  14.613  0.00  0.00    +0.000 N 
ATOM     11  H   UNL     1      46.974   7.188  14.992  0.00  0.00    +0.000 HD
BRANCH   8  19
ATOM     12  C   UNL     1      48.880   4.574  17.981  0.00  0.00    +0.000 A 
ATOM     13  N   UNL     1      48.860   3.902  19.149  0.00  0.00    +0.000 NA
ATOM     14  C   UNL     1      48.651   4.595  20.272  0.00  0.00    +0.000 A 
ATOM     15  N   UNL     1      48.446   5.905  20.376  0.00  0.00    +0.000 NA
ATOM     16  C   UNL     1      48.483   6.539  19.192  0.00  0.00    +0.000 A 
ATOM     17  S   UNL     1      48.228   8.216  19.135  0.00  0.00    +0.000 S 
ATOM     18  C   UNL     1      48.443   8.241  17.450  0.00  0.00    +0.000 A 
ATOM     19  C   UNL     1      48.715   6.995  16.897  0.00  0.00    +0.000 A 
ATOM     20  C   UNL     1      48.709   5.969  17.941  0.00  0.00    +0.000 A 
BRANCH  12  22
ATOM     21  C   UNL     1      47.845   3.297  16.297  0.00  0.00    +0.000 C 
ATOM     22  O   UNL     1      49.049   3.858  16.815  0.00  0.00    +0.000 OA
ENDBRANCH  12  22
ENDBRANCH   8  19
ENDBRANCH   7  10
ENDBRANCH   1   7
BRANCH   4  23
ATOM     23  C   UNL     1      43.665   3.587  11.070  0.00  0.00    +0.000 C 
BRANCH  23  24
ATOM     24  N   UNL     1      43.872   3.290   9.655  0.00  0.00    +0.000 NA
ATOM     25  H   UNL     1      44.361   4.074   9.227  0.00  0.00    +0.000 HD
BRANCH  24  26
ATOM     26  C   UNL     1      44.664   2.076   9.456  0.00  0.00    +0.000 C 
BRANCH  26  27
ATOM     27  C   UNL     1      45.686   2.298   8.368  0.00  0.00    +0.000 A 
ATOM     28  C   UNL     1      45.979   3.595   7.916  0.00  0.00    +0.000 A 
ATOM     29  C   UNL     1      46.976   3.808   6.961  0.00  0.00    +0.000 A 
ATOM     30  C   UNL     1      47.684   2.727   6.436  0.00  0.00    +0.000 A 
ATOM     31  C   UNL     1      47.381   1.432   6.854  0.00  0.00    +0.000 A 
ATOM     32  C   UNL     1      46.387   1.227   7.809  0.00  0.00    +0.000 A 
ATOM     33  F   UNL     1      46.122  -0.028   8.200  0.00  0.00    +0.000 F 
ENDBRANCH  26  27
ENDBRANCH  24  26
ENDBRANCH  23  24
ENDBRANCH   4  23
TORSDOF 8
ENDMDL
MODEL 3
REMARK VINA RESULT:    -8.125      1.696      2.196
REMARK INTER + INTRA:         -13.337
REMARK INTER:                 -11.863
REMARK INTRA:                  -1.474
REMARK UNBOUND:                -1.411
REMARK  Name = 
REMARK  9 active torsions:
REMARK  status: ('A' for Active; 'I' for Inactive)
REMARK    1  A    between atoms: C_1  and  O_2
REMARK    2  A    between atoms: O_2  and  C_3
REMARK    3  A    between atoms: C_10  and  C_11
REMARK    4  A    between atoms: N_13  and  C_14
REMARK    5  A    between atoms: C_14  and  C_15
REMARK    6  A    between atoms: C_18  and  C_19
REMARK    7  A    between atoms: C_19  and  N_20
REMARK    8  A    between atoms: N_20  and  C_21
REMARK    9  A    between atoms: C_21  and  C_22
REMARK                            x       y       z     vdW  Elec       q    Type
REMARK                         _______ _______ _______ _____ _____    ______ ____
ROOT
ATOM      1  C   UNL     1      45.293   7.418  11.953  0.00  0.00    +0.000 A 
ATOM      2  C   UNL     1      43.924   7.246  11.711  0.00  0.00    +0.000 A 
ATOM      3  C   UNL     1      43.413   5.991  11.371  0.00  0.00    +0.000 A 
ATOM      4  C   UNL     1      44.255   4.874  11.271  0.00  0.00    +0.000 A 
ATOM      5  C   UNL     1      45.624   5.044  11.520  0.00  0.00    +0.000 A 
ATOM      6  C   UNL     1      46.136   6.302  11.861  0.00  0.00    +0.000 A 
ENDROOT
BRANCH   1   7
ATOM      7  C   UNL     1      45.832   8.764  12.372  0.00  0.00    +0.000 C 
BRANCH   7  10
ATOM      8  C   UNL     1      47.846   8.741  13.794  0.00  0.00    +0.000 C 
ATOM      9  O   UNL     1      48.581   8.899  12.819  0.00  0.00    +0.000 OA
ATOM     10  N   UNL     1      46.489   8.671  13.653  0.00  0.00    +0.000 N 
ATOM     11  H   UNL     1      45.900   8.593  14.470  0.00  0.00    +0.000 HD
BRANCH   8  19
ATOM     12  C   UNL     1      48.612   6.025  15.774  0.00  0.00    +0.000 A 
ATOM     13  N   UNL     1      49.063   5.166  16.709  0.00  0.00    +0.000 NA
ATOM     14  C   UNL     1      49.603   5.671  17.821  0.00  0.00    +0.000 A 
ATOM     15  N   UNL     1      49.745   6.957  18.129  0.00  0.00    +0.000 NA
ATOM     16  C   UNL     1      49.293   7.780  17.168  0.00  0.00    +0.000 A 
ATOM     17  S   UNL     1      49.383   9.459  17.396  0.00  0.00    +0.000 S 
ATOM     18  C   UNL     1      48.700   9.754  15.868  0.00  0.00    +0.000 A 
ATOM     19  C   UNL     1      48.396   8.600  15.154  0.00  0.00    +0.000 A 
ATOM     20  C   UNL     1      48.725   7.416  15.949  0.00  0.00    +0.000 A 
BRANCH  12  22
ATOM     21  C   UNL     1      47.140   4.411  14.898  0.00  0.00    +0.000 C 
ATOM     22  O   UNL     1      48.011   5.510  14.645  0.00  0.00    +0.000 OA
ENDBRANCH  12  22
ENDBRANCH   8  19
ENDBRANCH   7  10
ENDBRANCH   1   7
BRANCH   4  23
ATOM     23  C   UNL     1      43.691   3.514  10.914  0.00  0.00    +0.000 C 
BRANCH  23  24
ATOM     24  N   UNL     1      44.761   2.590  10.548  0.00  0.00    +0.000 NA
ATOM     25  H   UNL     1      44.846   1.886  11.279  0.00  0.00    +0.000 HD
BRANCH  24  26
ATOM     26  C   UNL     1      44.499   1.918   9.275  0.00  0.00    +0.000 C 
BRANCH  26  27
ATOM     27  C   UNL     1      45.636   2.165   8.315  0.00  0.00    +0.000 A 
ATOM     28  C   UNL     1      46.518   1.128   7.969  0.00  0.00    +0.000 A 
ATOM     29  C   UNL     1      47.527   1.337   7.026  0.00  0.00    +0.000 A 
ATOM     30  C   UNL     1      47.676   2.588   6.427  0.00  0.00    +0.000 A 
ATOM     31  C   UNL     1      46.827   3.633   6.785  0.00  0.00    +0.000 A 
ATOM     32  C   UNL     1      45.821   3.417   7.724  0.00  0.00    +0.000 A 
ATOM     33  F   UNL     1      45.012   4.438   8.044  0.00  0.00    +0.000 F 
ENDBRANCH  26  27
ENDBRANCH  24  26
ENDBRANCH  23  24
ENDBRANCH   4  23
TORSDOF 8
ENDMDL
MODEL 4
REMARK VINA RESULT:    -8.104      2.326      3.062
REMARK INTER + INTRA:         -13.305
REMARK INTER:                 -11.926
REMARK INTRA:                  -1.379
REMARK UNBOUND:                -1.411
REMARK  Name = 
REMARK  9 active torsions:
REMARK  status: ('A' for Active; 'I' for Inactive)
REMARK    1  A    between atoms: C_1  and  O_2
REMARK    2  A    between atoms: O_2  and  C_3
REMARK    3  A    between atoms: C_10  and  C_11
REMARK    4  A    between atoms: N_13  and  C_14
REMARK    5  A    between atoms: C_14  and  C_15
REMARK    6  A    between atoms: C_18  and  C_19
REMARK    7  A    between atoms: C_19  and  N_20
REMARK    8  A    between atoms: N_20  and  C_21
REMARK    9  A    between atoms: C_21  and  C_22
REMARK                            x       y       z     vdW  Elec       q    Type
REMARK                         _______ _______ _______ _____ _____    ______ ____
ROOT
ATOM      1  C   UNL     1      47.015   6.437  13.024  0.00  0.00    +0.000 A 
ATOM      2  C   UNL     1      46.496   5.291  13.641  0.00  0.00    +0.000 A 
ATOM      3  C   UNL     1      45.612   4.453  12.956  0.00  0.00    +0.000 A 
ATOM      4  C   UNL     1      45.229   4.734  11.636  0.00  0.00    +0.000 A 
ATOM      5  C   UNL     1      45.754   5.876  11.017  0.00  0.00    +0.000 A 
ATOM      6  C   UNL     1      46.640   6.717  11.702  0.00  0.00    +0.000 A 
ENDROOT
BRANCH   1   7
ATOM      7  C   UNL     1      48.011   7.309  13.748  0.00  0.00    +0.000 C 
BRANCH   7  10
ATOM      8  C   UNL     1      49.161   6.683  15.838  0.00  0.00    +0.000 C 
ATOM      9  O   UNL     1      50.251   6.644  15.269  0.00  0.00    +0.000 OA
ATOM     10  N   UNL     1      48.020   7.007  15.158  0.00  0.00    +0.000 N 
ATOM     11  H   UNL     1      47.142   7.084  15.653  0.00  0.00    +0.000 HD
BRANCH   8  19
ATOM     12  C   UNL     1      47.836   8.373  18.535  0.00  0.00    +0.000 A 
ATOM     13  N   UNL     1      47.333   8.765  19.722  0.00  0.00    +0.000 NA
ATOM     14  C   UNL     1      47.438   7.929  20.758  0.00  0.00    +0.000 A 
ATOM     15  N   UNL     1      48.005   6.727  20.761  0.00  0.00    +0.000 NA
ATOM     16  C   UNL     1      48.486   6.369  19.558  0.00  0.00    +0.000 A 
ATOM     17  S   UNL     1      49.255   4.867  19.379  0.00  0.00    +0.000 S 
ATOM     18  C   UNL     1      49.518   5.143  17.724  0.00  0.00    +0.000 A 
ATOM     19  C   UNL     1      49.030   6.364  17.270  0.00  0.00    +0.000 A 
ATOM     20  C   UNL     1      48.437   7.111  18.380  0.00  0.00    +0.000 A 
BRANCH  12  22
ATOM     21  C   UNL     1      48.917  10.088  17.340  0.00  0.00    +0.000 C 
ATOM     22  O   UNL     1      47.772   9.250  17.472  0.00  0.00    +0.000 OA
ENDBRANCH  12  22
ENDBRANCH   8  19
ENDBRANCH   7  10
ENDBRANCH   1   7
BRANCH   4  23
ATOM     23  C   UNL     1      44.279   3.812  10.898  0.00  0.00    +0.000 C 
BRANCH  23  24
ATOM     24  N   UNL     1      44.935   2.550  10.571  0.00  0.00    +0.000 NA
ATOM     25  H   UNL     1      44.683   1.860  11.277  0.00  0.00    +0.000 HD
BRANCH  24  26
ATOM     26  C   UNL     1      44.537   2.045   9.256  0.00  0.00    +0.000 C 
BRANCH  26  27
ATOM     27  C   UNL     1      45.667   2.214   8.272  0.00  0.00    +0.000 A 
ATOM     28  C   UNL     1      46.507   1.134   7.955  0.00  0.00    +0.000 A 
ATOM     29  C   UNL     1      47.508   1.269   6.991  0.00  0.00    +0.000 A 
ATOM     30  C   UNL     1      47.693   2.490   6.340  0.00  0.00    +0.000 A 
ATOM     31  C   UNL     1      46.886   3.578   6.669  0.00  0.00    +0.000 A 
ATOM     32  C   UNL     1      45.887   3.435   7.629  0.00  0.00    +0.000 A 
ATOM     33  F   UNL     1      45.120   4.495   7.920  0.00  0.00    +0.000 F 
ENDBRANCH  26  27
ENDBRANCH  24  26
ENDBRANCH  23  24
ENDBRANCH   4  23
TORSDOF 8
ENDMDL
MODEL 5
REMARK VINA RESULT:    -7.745      2.316      2.983
REMARK INTER + INTRA:         -12.778
REMARK INTER:                 -11.518
REMARK INTRA:                  -1.260
REMARK UNBOUND:                -1.411
REMARK  Name = 
REMARK  9 active torsions:
REMARK  status: ('A' for Active; 'I' for Inactive)
REMARK    1  A    between atoms: C_1  and  O_2
REMARK    2  A    between atoms: O_2  and  C_3
REMARK    3  A    between atoms: C_10  and  C_11
REMARK    4  A    between atoms: N_13  and  C_14
REMARK    5  A    between atoms: C_14  and  C_15
REMARK    6  A    between atoms: C_18  and  C_19
REMARK    7  A    between atoms: C_19  and  N_20
REMARK    8  A    between atoms: N_20  and  C_21
REMARK    9  A    between atoms: C_21  and  C_22
REMARK                            x       y       z     vdW  Elec       q    Type
REMARK                         _______ _______ _______ _____ _____    ______ ____
ROOT
ATOM      1  C   UNL     1      47.847   6.335  14.431  0.00  0.00    +0.000 A 
ATOM      2  C   UNL     1      47.257   5.119  14.800  0.00  0.00    +0.000 A 
ATOM      3  C   UNL     1      46.424   4.433  13.912  0.00  0.00    +0.000 A 
ATOM      4  C   UNL     1      46.164   4.942  12.631  0.00  0.00    +0.000 A 
ATOM      5  C   UNL     1      46.759   6.155  12.259  0.00  0.00    +0.000 A 
ATOM      6  C   UNL     1      47.594   6.842  13.149  0.00  0.00    +0.000 A 
ENDROOT
BRANCH   1   7
ATOM      7  C   UNL     1      48.788   7.044  15.373  0.00  0.00    +0.000 C 
BRANCH   7  10
ATOM      8  C   UNL     1      50.032   6.075  17.269  0.00  0.00    +0.000 C 
ATOM      9  O   UNL     1      49.480   6.833  18.066  0.00  0.00    +0.000 OA
ATOM     10  N   UNL     1      49.739   6.117  15.934  0.00  0.00    +0.000 N 
ATOM     11  H   UNL     1      50.166   5.453  15.303  0.00  0.00    +0.000 HD
BRANCH   8  19
ATOM     12  C   UNL     1      50.272   2.642  17.080  0.00  0.00    +0.000 A 
ATOM     13  N   UNL     1      50.653   1.349  17.074  0.00  0.00    +0.000 NA
ATOM     14  C   UNL     1      51.848   1.042  17.585  0.00  0.00    +0.000 A 
ATOM     15  N   UNL     1      52.728   1.882  18.123  0.00  0.00    +0.000 NA
ATOM     16  C   UNL     1      52.314   3.161  18.101  0.00  0.00    +0.000 A 
ATOM     17  S   UNL     1      53.307   4.370  18.758  0.00  0.00    +0.000 S 
ATOM     18  C   UNL     1      52.186   5.581  18.352  0.00  0.00    +0.000 A 
ATOM     19  C   UNL     1      51.048   5.103  17.711  0.00  0.00    +0.000 A 
ATOM     20  C   UNL     1      51.114   3.646  17.588  0.00  0.00    +0.000 A 
BRANCH  12  22
ATOM     21  C   UNL     1      47.992   2.938  17.583  0.00  0.00    +0.000 C 
ATOM     22  O   UNL     1      49.020   2.959  16.596  0.00  0.00    +0.000 OA
ENDBRANCH  12  22
ENDBRANCH   8  19
ENDBRANCH   7  10
ENDBRANCH   1   7
BRANCH   4  23
ATOM     23  C   UNL     1      45.268   4.185  11.670  0.00  0.00    +0.000 C 
BRANCH  23  24
ATOM     24  N   UNL     1      44.957   5.003  10.502  0.00  0.00    +0.000 NA
ATOM     25  H   UNL     1      45.827   5.369  10.120  0.00  0.00    +0.000 HD
BRANCH  24  26
ATOM     26  C   UNL     1      44.270   4.240   9.460  0.00  0.00    +0.000 C 
BRANCH  26  27
ATOM     27  C   UNL     1      45.272   3.461   8.643  0.00  0.00    +0.000 A 
ATOM     28  C   UNL     1      46.193   4.127   7.818  0.00  0.00    +0.000 A 
ATOM     29  C   UNL     1      47.167   3.412   7.117  0.00  0.00    +0.000 A 
ATOM     30  C   UNL     1      47.226   2.022   7.222  0.00  0.00    +0.000 A 
ATOM     31  C   UNL     1      46.298   1.348   8.013  0.00  0.00    +0.000 A 
ATOM     32  C   UNL     1      45.330   2.067   8.712  0.00  0.00    +0.000 A 
ATOM     33  F   UNL     1      44.455   1.394   9.473  0.00  0.00    +0.000 F 
ENDBRANCH  26  27
ENDBRANCH  24  26
ENDBRANCH  23  24
ENDBRANCH   4  23
TORSDOF 8
ENDMDL
MODEL 6
REMARK VINA RESULT:    -7.733      2.436      3.562
REMARK INTER + INTRA:         -12.762
REMARK INTER:                 -11.523
REMARK INTRA:                  -1.239
REMARK UNBOUND:                -1.411
REMARK  Name = 
REMARK  9 active torsions:
REMARK  status: ('A' for Active; 'I' for Inactive)
REMARK    1  A    between atoms: C_1  and  O_2
REMARK    2  A    between atoms: O_2  and  C_3
REMARK    3  A    between atoms: C_10  and  C_11
REMARK    4  A    between atoms: N_13  and  C_14
REMARK    5  A    between atoms: C_14  and  C_15
REMARK    6  A    between atoms: C_18  and  C_19
REMARK    7  A    between atoms: C_19  and  N_20
REMARK    8  A    between atoms: N_20  and  C_21
REMARK    9  A    between atoms: C_21  and  C_22
REMARK                            x       y       z     vdW  Elec       q    Type
REMARK                         _______ _______ _______ _____ _____    ______ ____
ROOT
ATOM      1  C   UNL     1      46.834   4.460  14.003  0.00  0.00    +0.000 A 
ATOM      2  C   UNL     1      47.280   5.672  13.460  0.00  0.00    +0.000 A 
ATOM      3  C   UNL     1      46.725   6.170  12.279  0.00  0.00    +0.000 A 
ATOM      4  C   UNL     1      45.705   5.475  11.613  0.00  0.00    +0.000 A 
ATOM      5  C   UNL     1      45.254   4.265  12.160  0.00  0.00    +0.000 A 
ATOM      6  C   UNL     1      45.810   3.765  13.343  0.00  0.00    +0.000 A 
ENDROOT
BRANCH   1   7
ATOM      7  C   UNL     1      47.400   3.953  15.306  0.00  0.00    +0.000 C 
BRANCH   7  10
ATOM      8  C   UNL     1      48.224   5.018  17.372  0.00  0.00    +0.000 C 
ATOM      9  O   UNL     1      49.095   4.159  17.510  0.00  0.00    +0.000 OA
ATOM     10  N   UNL     1      47.361   4.985  16.313  0.00  0.00    +0.000 N 
ATOM     11  H   UNL     1      46.686   5.727  16.189  0.00  0.00    +0.000 HD
BRANCH   8  19
ATOM     12  C   UNL     1      48.296   8.456  17.128  0.00  0.00    +0.000 A 
ATOM     13  N   UNL     1      48.198   9.788  17.304  0.00  0.00    +0.000 NA
ATOM     14  C   UNL     1      47.906  10.243  18.525  0.00  0.00    +0.000 A 
ATOM     15  N   UNL     1      47.705   9.518  19.621  0.00  0.00    +0.000 NA
ATOM     16  C   UNL     1      47.803   8.196  19.402  0.00  0.00    +0.000 A 
ATOM     17  S   UNL     1      47.587   7.117  20.694  0.00  0.00    +0.000 S 
ATOM     18  C   UNL     1      47.820   5.775  19.678  0.00  0.00    +0.000 A 
ATOM     19  C   UNL     1      48.059   6.108  18.350  0.00  0.00    +0.000 A 
ATOM     20  C   UNL     1      48.077   7.563  18.192  0.00  0.00    +0.000 A 
BRANCH  12  22
ATOM     21  C   UNL     1      48.316   8.865  14.810  0.00  0.00    +0.000 C 
ATOM     22  O   UNL     1      48.643   7.982  15.880  0.00  0.00    +0.000 OA
ENDBRANCH  12  22
ENDBRANCH   8  19
ENDBRANCH   7  10
ENDBRANCH   1   7
BRANCH   4  23
ATOM     23  C   UNL     1      45.100   6.029  10.339  0.00  0.00    +0.000 C 
BRANCH  23  24
ATOM     24  N   UNL     1      45.704   5.403   9.166  0.00  0.00    +0.000 NA
ATOM     25  H   UNL     1      46.606   5.012   9.434  0.00  0.00    +0.000 HD
BRANCH  24  26
ATOM     26  C   UNL     1      44.870   4.331   8.622  0.00  0.00    +0.000 C 
BRANCH  26  27
ATOM     27  C   UNL     1      45.738   3.256   8.018  0.00  0.00    +0.000 A 
ATOM     28  C   UNL     1      46.677   3.570   7.021  0.00  0.00    +0.000 A 
ATOM     29  C   UNL     1      47.531   2.590   6.512  0.00  0.00    +0.000 A 
ATOM     30  C   UNL     1      47.450   1.279   6.982  0.00  0.00    +0.000 A 
ATOM     31  C   UNL     1      46.502   0.947   7.949  0.00  0.00    +0.000 A 
ATOM     32  C   UNL     1      45.655   1.931   8.454  0.00  0.00    +0.000 A 
ATOM     33  F   UNL     1      44.758   1.587   9.390  0.00  0.00    +0.000 F 
ENDBRANCH  26  27
ENDBRANCH  24  26
ENDBRANCH  23  24
ENDBRANCH   4  23
TORSDOF 8
ENDMDL
MODEL 7
REMARK VINA RESULT:    -7.536      1.964      2.503
REMARK INTER + INTRA:         -12.471
REMARK INTER:                 -11.154
REMARK INTRA:                  -1.318
REMARK UNBOUND:                -1.411
REMARK  Name = 
REMARK  9 active torsions:
REMARK  status: ('A' for Active; 'I' for Inactive)
REMARK    1  A    between atoms: C_1  and  O_2
REMARK    2  A    between atoms: O_2  and  C_3
REMARK    3  A    between atoms: C_10  and  C_11
REMARK    4  A    between atoms: N_13  and  C_14
REMARK    5  A    between atoms: C_14  and  C_15
REMARK    6  A    between atoms: C_18  and  C_19
REMARK    7  A    between atoms: C_19  and  N_20
REMARK    8  A    between atoms: N_20  and  C_21
REMARK    9  A    between atoms: C_21  and  C_22
REMARK                            x       y       z     vdW  Elec       q    Type
REMARK                         _______ _______ _______ _____ _____    ______ ____
ROOT
ATOM      1  C   UNL     1      47.353   6.257  13.263  0.00  0.00    +0.000 A 
ATOM      2  C   UNL     1      46.893   6.634  11.995  0.00  0.00    +0.000 A 
ATOM      3  C   UNL     1      45.950   5.856  11.319  0.00  0.00    +0.000 A 
ATOM      4  C   UNL     1      45.435   4.685  11.896  0.00  0.00    +0.000 A 
ATOM      5  C   UNL     1      45.890   4.312  13.168  0.00  0.00    +0.000 A 
ATOM      6  C   UNL     1      46.836   5.091  13.846  0.00  0.00    +0.000 A 
ENDROOT
BRANCH   1   7
ATOM      7  C   UNL     1      48.331   7.128  14.012  0.00  0.00    +0.000 C 
BRANCH   7  10
ATOM      8  C   UNL     1      48.546   7.618  16.419  0.00  0.00    +0.000 C 
ATOM      9  O   UNL     1      48.582   8.830  16.206  0.00  0.00    +0.000 OA
ATOM     10  N   UNL     1      48.418   6.724  15.393  0.00  0.00    +0.000 N 
ATOM     11  H   UNL     1      48.339   5.736  15.592  0.00  0.00    +0.000 HD
BRANCH   8  19
ATOM     12  C   UNL     1      50.818   5.538  17.965  0.00  0.00    +0.000 A 
ATOM     13  N   UNL     1      51.577   4.824  18.820  0.00  0.00    +0.000 NA
ATOM     14  C   UNL     1      51.188   4.749  20.096  0.00  0.00    +0.000 A 
ATOM     15  N   UNL     1      50.106   5.302  20.636  0.00  0.00    +0.000 NA
ATOM     16  C   UNL     1      49.382   6.012  19.753  0.00  0.00    +0.000 A 
ATOM     17  S   UNL     1      47.958   6.780  20.266  0.00  0.00    +0.000 S 
ATOM     18  C   UNL     1      47.685   7.419  18.716  0.00  0.00    +0.000 A 
ATOM     19  C   UNL     1      48.658   7.075  17.784  0.00  0.00    +0.000 A 
ATOM     20  C   UNL     1      49.660   6.205  18.402  0.00  0.00    +0.000 A 
BRANCH  12  22
ATOM     21  C   UNL     1      52.138   6.598  16.330  0.00  0.00    +0.000 C 
ATOM     22  O   UNL     1      51.189   5.580  16.637  0.00  0.00    +0.000 OA
ENDBRANCH  12  22
ENDBRANCH   8  19
ENDBRANCH   7  10
ENDBRANCH   1   7
BRANCH   4  23
ATOM     23  C   UNL     1      44.403   3.854  11.161  0.00  0.00    +0.000 C 
BRANCH  23  24
ATOM     24  N   UNL     1      44.982   2.591  10.713  0.00  0.00    +0.000 NA
ATOM     25  H   UNL     1      44.719   1.861  11.372  0.00  0.00    +0.000 HD
BRANCH  24  26
ATOM     26  C   UNL     1      44.513   2.211   9.380  0.00  0.00    +0.000 C 
BRANCH  26  27
ATOM     27  C   UNL     1      45.618   2.398   8.369  0.00  0.00    +0.000 A 
ATOM     28  C   UNL     1      45.950   3.680   7.902  0.00  0.00    +0.000 A 
ATOM     29  C   UNL     1      47.019   3.862   7.022  0.00  0.00    +0.000 A 
ATOM     30  C   UNL     1      47.762   2.765   6.587  0.00  0.00    +0.000 A 
ATOM     31  C   UNL     1      47.423   1.484   7.019  0.00  0.00    +0.000 A 
ATOM     32  C   UNL     1      46.357   1.310   7.899  0.00  0.00    +0.000 A 
ATOM     33  F   UNL     1      46.057   0.068   8.306  0.00  0.00    +0.000 F 
ENDBRANCH  26  27
ENDBRANCH  24  26
ENDBRANCH  23  24
ENDBRANCH   4  23
TORSDOF 8
ENDMDL
MODEL 8
REMARK VINA RESULT:    -7.484      2.424      3.241
REMARK INTER + INTRA:         -12.395
REMARK INTER:                 -11.341
REMARK INTRA:                  -1.055
REMARK UNBOUND:                -1.411
REMARK  Name = 
REMARK  9 active torsions:
REMARK  status: ('A' for Active; 'I' for Inactive)
REMARK    1  A    between atoms: C_1  and  O_2
REMARK    2  A    between atoms: O_2  and  C_3
REMARK    3  A    between atoms: C_10  and  C_11
REMARK    4  A    between atoms: N_13  and  C_14
REMARK    5  A    between atoms: C_14  and  C_15
REMARK    6  A    between atoms: C_18  and  C_19
REMARK    7  A    between atoms: C_19  and  N_20
REMARK    8  A    between atoms: N_20  and  C_21
REMARK    9  A    between atoms: C_21  and  C_22
REMARK                            x       y       z     vdW  Elec       q    Type
REMARK                         _______ _______ _______ _____ _____    ______ ____
ROOT
ATOM      1  C   UNL     1      46.715   4.608  13.927  0.00  0.00    +0.000 A 
ATOM      2  C   UNL     1      46.688   5.912  13.416  0.00  0.00    +0.000 A 
ATOM      3  C   UNL     1      45.980   6.204  12.247  0.00  0.00    +0.000 A 
ATOM      4  C   UNL     1      45.275   5.202  11.563  0.00  0.00    +0.000 A 
ATOM      5  C   UNL     1      45.298   3.899  12.078  0.00  0.00    +0.000 A 
ATOM      6  C   UNL     1      46.007   3.606  13.249  0.00  0.00    +0.000 A 
ENDROOT
BRANCH   1   7
ATOM      7  C   UNL     1      47.437   4.309  15.218  0.00  0.00    +0.000 C 
BRANCH   7  10
ATOM      8  C   UNL     1      48.866   5.611  16.749  0.00  0.00    +0.000 C 
ATOM      9  O   UNL     1      49.570   4.629  16.985  0.00  0.00    +0.000 OA
ATOM     10  N   UNL     1      47.807   5.531  15.889  0.00  0.00    +0.000 N 
ATOM     11  H   UNL     1      47.272   6.360  15.668  0.00  0.00    +0.000 HD
BRANCH   8  19
ATOM     12  C   UNL     1      48.463   6.778  19.967  0.00  0.00    +0.000 A 
ATOM     13  N   UNL     1      48.480   7.459  21.131  0.00  0.00    +0.000 NA
ATOM     14  C   UNL     1      48.955   8.707  21.124  0.00  0.00    +0.000 A 
ATOM     15  N   UNL     1      49.417   9.381  20.075  0.00  0.00    +0.000 NA
ATOM     16  C   UNL     1      49.391   8.666  18.937  0.00  0.00    +0.000 A 
ATOM     17  S   UNL     1      49.933   9.373  17.493  0.00  0.00    +0.000 S 
ATOM     18  C   UNL     1      49.627   7.948  16.621  0.00  0.00    +0.000 A 
ATOM     19  C   UNL     1      49.119   6.911  17.396  0.00  0.00    +0.000 A 
ATOM     20  C   UNL     1      48.949   7.354  18.780  0.00  0.00    +0.000 A 
BRANCH  12  22
ATOM     21  C   UNL     1      48.742   4.531  20.608  0.00  0.00    +0.000 C 
ATOM     22  O   UNL     1      47.930   5.506  19.958  0.00  0.00    +0.000 OA
ENDBRANCH  12  22
ENDBRANCH   8  19
ENDBRANCH   7  10
ENDBRANCH   1   7
BRANCH   4  23
ATOM     23  C   UNL     1      44.500   5.530  10.303  0.00  0.00    +0.000 C 
BRANCH  23  24
ATOM     24  N   UNL     1      45.250   5.128   9.116  0.00  0.00    +0.000 NA
ATOM     25  H   UNL     1      46.184   4.840   9.404  0.00  0.00    +0.000 HD
BRANCH  24  26
ATOM     26  C   UNL     1      44.612   4.018   8.409  0.00  0.00    +0.000 C 
BRANCH  26  27
ATOM     27  C   UNL     1      45.660   3.097   7.836  0.00  0.00    +0.000 A 
ATOM     28  C   UNL     1      46.588   3.569   6.893  0.00  0.00    +0.000 A 
ATOM     29  C   UNL     1      47.604   2.738   6.416  0.00  0.00    +0.000 A 
ATOM     30  C   UNL     1      47.699   1.420   6.865  0.00  0.00    +0.000 A 
ATOM     31  C   UNL     1      46.765   0.931   7.778  0.00  0.00    +0.000 A 
ATOM     32  C   UNL     1      45.756   1.767   8.251  0.00  0.00    +0.000 A 
ATOM     33  F   UNL     1      44.877   1.273   9.135  0.00  0.00    +0.000 F 
ENDBRANCH  26  27
ENDBRANCH  24  26
ENDBRANCH  23  24
ENDBRANCH   4  23
TORSDOF 8
ENDMDL
MODEL 9
REMARK VINA RESULT:    -6.891      2.276      3.143
REMARK INTER + INTRA:         -11.525
REMARK INTER:                 -10.609
REMARK INTRA:                  -0.916
REMARK UNBOUND:                -1.411
REMARK  Name = 
REMARK  9 active torsions:
REMARK  status: ('A' for Active; 'I' for Inactive)
REMARK    1  A    between atoms: C_1  and  O_2
REMARK    2  A    between atoms: O_2  and  C_3
REMARK    3  A    between atoms: C_10  and  C_11
REMARK    4  A    between atoms: N_13  and  C_14
REMARK    5  A    between atoms: C_14  and  C_15
REMARK    6  A    between atoms: C_18  and  C_19
REMARK    7  A    between atoms: C_19  and  N_20
REMARK    8  A    between atoms: N_20  and  C_21
REMARK    9  A    between atoms: C_21  and  C_22
REMARK                            x       y       z     vdW  Elec       q    Type
REMARK                         _______ _______ _______ _____ _____    ______ ____
ROOT
ATOM      1  C   UNL     1      48.441   7.023  13.086  0.00  0.00    +0.000 A 
ATOM      2  C   UNL     1      48.145   7.498  11.803  0.00  0.00    +0.000 A 
ATOM      3  C   UNL     1      47.054   6.993  11.090  0.00  0.00    +0.000 A 
ATOM      4  C   UNL     1      46.228   6.005  11.645  0.00  0.00    +0.000 A 
ATOM      5  C   UNL     1      46.520   5.534  12.932  0.00  0.00    +0.000 A 
ATOM      6  C   UNL     1      47.613   6.040  13.646  0.00  0.00    +0.000 A 
ENDROOT
BRANCH   1   7
ATOM      7  C   UNL     1      49.587   7.609  13.873  0.00  0.00    +0.000 C 
BRANCH   7  10
ATOM      8  C   UNL     1      50.846   6.958  15.891  0.00  0.00    +0.000 C 
ATOM      9  O   UNL     1      51.874   7.483  15.464  0.00  0.00    +0.000 OA
ATOM     10  N   UNL     1      49.686   6.986  15.170  0.00  0.00    +0.000 N 
ATOM     11  H   UNL     1      48.840   6.594  15.560  0.00  0.00    +0.000 HD
BRANCH   8  19
ATOM     12  C   UNL     1      49.487   7.713  18.968  0.00  0.00    +0.000 A 
ATOM     13  N   UNL     1      49.005   7.718  20.227  0.00  0.00    +0.000 NA
ATOM     14  C   UNL     1      49.251   6.657  21.000  0.00  0.00    +0.000 A 
ATOM     15  N   UNL     1      49.942   5.570  20.670  0.00  0.00    +0.000 NA
ATOM     16  C   UNL     1      50.396   5.600  19.405  0.00  0.00    +0.000 A 
ATOM     17  S   UNL     1      51.311   4.298  18.816  0.00  0.00    +0.000 S 
ATOM     18  C   UNL     1      51.460   5.029  17.289  0.00  0.00    +0.000 A 
ATOM     19  C   UNL     1      50.823   6.260  17.189  0.00  0.00    +0.000 A 
ATOM     20  C   UNL     1      50.210   6.615  18.470  0.00  0.00    +0.000 A 
BRANCH  12  22
ATOM     21  C   UNL     1      49.151  10.042  18.912  0.00  0.00    +0.000 C 
ATOM     22  O   UNL     1      49.276   8.826  18.180  0.00  0.00    +0.000 OA
ENDBRANCH  12  22
ENDBRANCH   8  19
ENDBRANCH   7  10
ENDBRANCH   1   7
BRANCH   4  23
ATOM     23  C   UNL     1      45.040   5.471  10.869  0.00  0.00    +0.000 C 
BRANCH  23  24
ATOM     24  N   UNL     1      45.387   5.275   9.465  0.00  0.00    +0.000 NA
ATOM     25  H   UNL     1      46.386   5.087   9.400  0.00  0.00    +0.000 HD
BRANCH  24  26
ATOM     26  C   UNL     1      44.657   4.156   8.867  0.00  0.00    +0.000 C 
BRANCH  26  27
ATOM     27  C   UNL     1      45.622   3.202   8.208  0.00  0.00    +0.000 A 
ATOM     28  C   UNL     1      46.635   3.680   7.361  0.00  0.00    +0.000 A 
ATOM     29  C   UNL     1      47.573   2.806   6.808  0.00  0.00    +0.000 A 
ATOM     30  C   UNL     1      47.504   1.440   7.083  0.00  0.00    +0.000 A 
ATOM     31  C   UNL     1      46.485   0.949   7.898  0.00  0.00    +0.000 A 
ATOM     32  C   UNL     1      45.554   1.827   8.448  0.00  0.00    +0.000 A 
ATOM     33  F   UNL     1      44.589   1.330   9.235  0.00  0.00    +0.000 F 
ENDBRANCH  26  27
ENDBRANCH  24  26
ENDBRANCH  23  24
ENDBRANCH   4  23
TORSDOF 8
ENDMDL
