MODEL 1
REMARK VINA RESULT:    -7.286      0.000      0.000
REMARK INTER + INTRA:          -9.565
REMARK INTER:                  -9.203
REMARK INTRA:                  -0.363
REMARK UNBOUND:                -0.363
REMARK  Name = 
REMARK  5 active torsions:
REMARK  status: ('A' for Active; 'I' for Inactive)
REMARK    1  A    between atoms: N_1  and  C_2
REMARK    2  A    between atoms: C_2  and  C_3
REMARK    3  A    between atoms: C_7  and  S_8
REMARK    4  A    between atoms: S_8  and  C_9
REMARK    5  A    between atoms: C_9  and  C_10
REMARK                            x       y       z     vdW  Elec       q    Type
REMARK                         _______ _______ _______ _____ _____    ______ ____
ROOT
ATOM      1  C   UNL     1      46.428   5.006  13.250  0.00  0.00    +0.000 A 
ATOM      2  C   UNL     1      47.150   6.104  12.777  0.00  0.00    +0.000 A 
ATOM      3  C   UNL     1      46.848   6.608  11.525  0.00  0.00    +0.000 A 
ATOM      4  N   UNL     1      45.894   6.097  10.718  0.00  0.00    +0.000 NA
ATOM      5  C   UNL     1      45.193   5.039  11.179  0.00  0.00    +0.000 A 
ATOM      6  C   UNL     1      45.435   4.462  12.425  0.00  0.00    +0.000 A 
ENDROOT
BRANCH   1   7
ATOM      7  C   UNL     1      46.720   4.446  14.618  0.00  0.00    +0.000 C 
BRANCH   7   8
ATOM      8  N   UNL     1      47.442   3.183  14.521  0.00  0.00    +0.000 NA
ATOM      9  H   UNL     1      47.515   2.910  13.542  0.00  0.00    +0.000 HD
ATOM     10  H   UNL     1      46.900   2.454  14.982  0.00  0.00    +0.000 HD
ENDBRANCH   7   8
ENDBRANCH   1   7
BRANCH   5  11
ATOM     11  S   UNL     1      43.900   4.379  10.139  0.00  0.00    +0.000 S 
BRANCH  11  12
ATOM     12  C   UNL     1      44.519   2.671   9.898  0.00  0.00    +0.000 C 
BRANCH  12  13
ATOM     13  C   UNL     1      45.477   2.550   8.728  0.00  0.00    +0.000 A 
ATOM     14  C   UNL     1      45.681   3.624   7.856  0.00  0.00    +0.000 A 
ATOM     15  C   UNL     1      46.551   3.471   6.777  0.00  0.00    +0.000 A 
ATOM     16  C   UNL     1      47.177   2.250   6.586  0.00  0.00    +0.000 A 
ATOM     17  F   UNL     1      48.013   2.071   5.558  0.00  0.00    +0.000 F 
ATOM     18  C   UNL     1      46.914   1.223   7.474  0.00  0.00    +0.000 A 
ATOM     19  N   UNL     1      46.080   1.345   8.537  0.00  0.00    +0.000 NA
ENDBRANCH  12  13
ENDBRANCH  11  12
ENDBRANCH   5  11
TORSDOF 5
ENDMDL
MODEL 2
REMARK VINA RESULT:    -7.011      1.480      2.522
REMARK INTER + INTRA:          -9.218
REMARK INTER:                  -8.853
REMARK INTRA:                  -0.365
REMARK UNBOUND:                -0.363
REMARK  Name = 
REMARK  5 active torsions:
REMARK  status: ('A' for Active; 'I' for Inactive)
REMARK    1  A    between atoms: N_1  and  C_2
REMARK    2  A    between atoms: C_2  and  C_3
REMARK    3  A    between atoms: C_7  and  S_8
REMARK    4  A    between atoms: S_8  and  C_9
REMARK    5  A    between atoms: C_9  and  C_10
REMARK                            x       y       z     vdW  Elec       q    Type
REMARK                         _______ _______ _______ _____ _____    ______ ____
ROOT
ATOM      1  C   UNL     1      46.108   5.984  12.906  0.00  0.00    +0.000 A 
ATOM      2  C   UNL     1      46.971   5.195  13.671  0.00  0.00    +0.000 A 
ATOM      3  C   UNL     1      46.823   3.821  13.633  0.00  0.00    +0.000 A 
ATOM      4  N   UNL     1      45.886   3.184  12.900  0.00  0.00    +0.000 NA
ATOM      5  C   UNL     1      45.056   3.948  12.156  0.00  0.00    +0.000 A 
ATOM      6  C   UNL     1      45.127   5.340  12.141  0.00  0.00    +0.000 A 
ENDROOT
BRANCH   1   7
ATOM      7  C   UNL     1      46.255   7.483  12.912  0.00  0.00    +0.000 C 
BRANCH   7   8
ATOM      8  N   UNL     1      44.990   8.131  12.587  0.00  0.00    +0.000 NA
ATOM      9  H   UNL     1      44.219   7.526  12.865  0.00  0.00    +0.000 HD
ATOM     10  H   UNL     1      44.921   8.238  11.576  0.00  0.00    +0.000 HD
ENDBRANCH   7   8
ENDBRANCH   1   7
BRANCH   5  11
ATOM     11  S   UNL     1      43.837   3.117  11.150  0.00  0.00    +0.000 S 
BRANCH  11  12
ATOM     12  C   UNL     1      44.079   3.992   9.559  0.00  0.00    +0.000 C 
BRANCH  12  13
ATOM     13  C   UNL     1      45.149   3.356   8.692  0.00  0.00    +0.000 A 
ATOM     14  C   UNL     1      45.438   1.993   8.797  0.00  0.00    +0.000 A 
ATOM     15  C   UNL     1      46.444   1.444   8.001  0.00  0.00    +0.000 A 
ATOM     16  C   UNL     1      47.145   2.271   7.139  0.00  0.00    +0.000 A 
ATOM     17  F   UNL     1      48.117   1.776   6.366  0.00  0.00    +0.000 F 
ATOM     18  C   UNL     1      46.822   3.616   7.100  0.00  0.00    +0.000 A 
ATOM     19  N   UNL     1      45.843   4.175   7.855  0.00  0.00    +0.000 NA
ENDBRANCH  12  13
ENDBRANCH  11  12
ENDBRANCH   5  11
TORSDOF 5
ENDMDL
MODEL 3
REMARK VINA RESULT:    -6.684      2.749      5.965
REMARK INTER + INTRA:          -8.804
REMARK INTER:                  -8.471
REMARK INTRA:                  -0.333
REMARK UNBOUND:                -0.363
REMARK  Name = 
REMARK  5 active torsions:
REMARK  status: ('A' for Active; 'I' for Inactive)
REMARK    1  A    between atoms: N_1  and  C_2
REMARK    2  A    between atoms: C_2  and  C_3
REMARK    3  A    between atoms: C_7  and  S_8
REMARK    4  A    between atoms: S_8  and  C_9
REMARK    5  A    between atoms: C_9  and  C_10
REMARK                            x       y       z     vdW  Elec       q    Type
REMARK                         _______ _______ _______ _____ _____    ______ ____
ROOT
ATOM      1  C   UNL     1      46.512   1.997   7.691  0.00  0.00    +0.000 A 
ATOM      2  C   UNL     1      46.735   3.263   7.147  0.00  0.00    +0.000 A 
ATOM      3  C   UNL     1      46.089   4.350   7.708  0.00  0.00    +0.000 A 
ATOM      4  N   UNL     1      45.243   4.264   8.756  0.00  0.00    +0.000 NA
ATOM      5  C   UNL     1      45.035   3.039   9.286  0.00  0.00    +0.000 A 
ATOM      6  C   UNL     1      45.636   1.888   8.779  0.00  0.00    +0.000 A 
ENDROOT
BRANCH   1   7
ATOM      7  C   UNL     1      47.215   0.796   7.115  0.00  0.00    +0.000 C 
BRANCH   7   8
ATOM      8  N   UNL     1      46.776  -0.430   7.771  0.00  0.00    +0.000 NA
ATOM      9  H   UNL     1      45.803  -0.332   8.055  0.00  0.00    +0.000 HD
ATOM     10  H   UNL     1      47.313  -0.558   8.629  0.00  0.00    +0.000 HD
ENDBRANCH   7   8
ENDBRANCH   1   7
BRANCH   5  11
ATOM     11  S   UNL     1      43.950   2.916  10.700  0.00  0.00    +0.000 S 
BRANCH  11  12
ATOM     12  C   UNL     1      43.897   4.672  11.221  0.00  0.00    +0.000 C 
BRANCH  12  13
ATOM     13  C   UNL     1      45.042   5.050  12.141  0.00  0.00    +0.000 A 
ATOM     14  C   UNL     1      45.896   6.109  11.821  0.00  0.00    +0.000 A 
ATOM     15  C   UNL     1      46.954   6.417  12.678  0.00  0.00    +0.000 A 
ATOM     16  C   UNL     1      47.140   5.650  13.816  0.00  0.00    +0.000 A 
ATOM     17  F   UNL     1      48.147   5.916  14.655  0.00  0.00    +0.000 F 
ATOM     18  C   UNL     1      46.270   4.603  14.062  0.00  0.00    +0.000 A 
ATOM     19  N   UNL     1      45.229   4.287  13.252  0.00  0.00    +0.000 NA
ENDBRANCH  12  13
ENDBRANCH  11  12
ENDBRANCH   5  11
TORSDOF 5
ENDMDL
MODEL 4
REMARK VINA RESULT:    -6.558      1.792      2.811
REMARK INTER + INTRA:          -8.646
REMARK INTER:                  -8.350
REMARK INTRA:                  -0.295
REMARK UNBOUND:                -0.363
REMARK  Name = 
REMARK  5 active torsions:
REMARK  status: ('A' for Active; 'I' for Inactive)
REMARK    1  A    between atoms: N_1  and  C_2
REMARK    2  A    between atoms: C_2  and  C_3
REMARK    3  A    between atoms: C_7  and  S_8
REMARK    4  A    between atoms: S_8  and  C_9
REMARK    5  A    between atoms: C_9  and  C_10
REMARK                            x       y       z     vdW  Elec       q    Type
REMARK                         _______ _______ _______ _____ _____    ______ ____
ROOT
ATOM      1  C   UNL     1      45.546   7.341  12.112  0.00  0.00    +0.000 A 
ATOM      2  C   UNL     1      46.545   7.009  13.030  0.00  0.00    +0.000 A 
ATOM      3  C   UNL     1      46.734   5.677  13.352  0.00  0.00    +0.000 A 
ATOM      4  N   UNL     1      46.004   4.666  12.835  0.00  0.00    +0.000 NA
ATOM      5  C   UNL     1      45.043   4.989  11.943  0.00  0.00    +0.000 A 
ATOM      6  C   UNL     1      44.777   6.305  11.566  0.00  0.00    +0.000 A 
ENDROOT
BRANCH   1   7
ATOM      7  C   UNL     1      45.327   8.780  11.726  0.00  0.00    +0.000 C 
BRANCH   7   8
ATOM      8  N   UNL     1      44.758   9.537  12.835  0.00  0.00    +0.000 NA
ATOM      9  H   UNL     1      44.892   9.018  13.701  0.00  0.00    +0.000 HD
ATOM     10  H   UNL     1      43.751   9.616  12.701  0.00  0.00    +0.000 HD
ENDBRANCH   7   8
ENDBRANCH   1   7
BRANCH   5  11
ATOM     11  S   UNL     1      44.097   3.657  11.220  0.00  0.00    +0.000 S 
BRANCH  11  12
ATOM     12  C   UNL     1      44.097   4.177   9.463  0.00  0.00    +0.000 C 
BRANCH  12  13
ATOM     13  C   UNL     1      45.151   3.464   8.637  0.00  0.00    +0.000 A 
ATOM     14  C   UNL     1      45.382   2.095   8.799  0.00  0.00    +0.000 A 
ATOM     15  C   UNL     1      46.375   1.475   8.039  0.00  0.00    +0.000 A 
ATOM     16  C   UNL     1      47.119   2.239   7.156  0.00  0.00    +0.000 A 
ATOM     17  F   UNL     1      48.080   1.675   6.417  0.00  0.00    +0.000 F 
ATOM     18  C   UNL     1      46.852   3.592   7.060  0.00  0.00    +0.000 A 
ATOM     19  N   UNL     1      45.888   4.220   7.779  0.00  0.00    +0.000 NA
ENDBRANCH  12  13
ENDBRANCH  11  12
ENDBRANCH   5  11
TORSDOF 5
ENDMDL
MODEL 5
REMARK VINA RESULT:    -6.372      1.703      2.079
REMARK INTER + INTRA:          -8.411
REMARK INTER:                  -8.095
REMARK INTRA:                  -0.315
REMARK UNBOUND:                -0.363
REMARK  Name = 
REMARK  5 active torsions:
REMARK  status: ('A' for Active; 'I' for Inactive)
REMARK    1  A    between atoms: N_1  and  C_2
REMARK    2  A    between atoms: C_2  and  C_3
REMARK    3  A    between atoms: C_7  and  S_8
REMARK    4  A    between atoms: S_8  and  C_9
REMARK    5  A    between atoms: C_9  and  C_10
REMARK                            x       y       z     vdW  Elec       q    Type
REMARK                         _______ _______ _______ _____ _____    ______ ____
ROOT
ATOM      1  C   UNL     1      46.996   6.538  12.927  0.00  0.00    +0.000 A 
ATOM      2  C   UNL     1      46.459   7.782  12.586  0.00  0.00    +0.000 A 
ATOM      3  C   UNL     1      45.271   7.820  11.880  0.00  0.00    +0.000 A 
ATOM      4  N   UNL     1      44.591   6.722  11.490  0.00  0.00    +0.000 NA
ATOM      5  C   UNL     1      45.108   5.521  11.827  0.00  0.00    +0.000 A 
ATOM      6  C   UNL     1      46.305   5.387  12.530  0.00  0.00    +0.000 A 
ENDROOT
BRANCH   1   7
ATOM      7  C   UNL     1      48.280   6.463  13.712  0.00  0.00    +0.000 C 
BRANCH   7   8
ATOM      8  N   UNL     1      49.431   6.716  12.854  0.00  0.00    +0.000 NA
ATOM      9  H   UNL     1      50.159   6.033  13.055  0.00  0.00    +0.000 HD
ATOM     10  H   UNL     1      49.823   7.629  13.084  0.00  0.00    +0.000 HD
ENDBRANCH   7   8
ENDBRANCH   1   7
BRANCH   5  11
ATOM     11  S   UNL     1      44.197   4.058  11.353  0.00  0.00    +0.000 S 
BRANCH  11  12
ATOM     12  C   UNL     1      44.051   4.338   9.548  0.00  0.00    +0.000 C 
BRANCH  12  13
ATOM     13  C   UNL     1      45.072   3.555   8.745  0.00  0.00    +0.000 A 
ATOM     14  C   UNL     1      45.202   2.172   8.908  0.00  0.00    +0.000 A 
ATOM     15  C   UNL     1      46.166   1.485   8.170  0.00  0.00    +0.000 A 
ATOM     16  C   UNL     1      46.983   2.196   7.307  0.00  0.00    +0.000 A 
ATOM     17  F   UNL     1      47.920   1.567   6.589  0.00  0.00    +0.000 F 
ATOM     18  C   UNL     1      46.815   3.565   7.209  0.00  0.00    +0.000 A 
ATOM     19  N   UNL     1      45.881   4.258   7.907  0.00  0.00    +0.000 NA
ENDBRANCH  12  13
ENDBRANCH  11  12
ENDBRANCH   5  11
TORSDOF 5
ENDMDL
MODEL 6
REMARK VINA RESULT:    -5.843      3.021      6.191
REMARK INTER + INTRA:          -7.743
REMARK INTER:                  -7.319
REMARK INTRA:                  -0.424
REMARK UNBOUND:                -0.363
REMARK  Name = 
REMARK  5 active torsions:
REMARK  status: ('A' for Active; 'I' for Inactive)
REMARK    1  A    between atoms: N_1  and  C_2
REMARK    2  A    between atoms: C_2  and  C_3
REMARK    3  A    between atoms: C_7  and  S_8
REMARK    4  A    between atoms: S_8  and  C_9
REMARK    5  A    between atoms: C_9  and  C_10
REMARK                            x       y       z     vdW  Elec       q    Type
REMARK                         _______ _______ _______ _____ _____    ______ ____
ROOT
ATOM      1  C   UNL     1      45.323   3.167   8.580  0.00  0.00    +0.000 A 
ATOM      2  C   UNL     1      44.881   1.956   9.117  0.00  0.00    +0.000 A 
ATOM      3  C   UNL     1      44.009   1.986  10.191  0.00  0.00    +0.000 A 
ATOM      4  N   UNL     1      43.557   3.121  10.763  0.00  0.00    +0.000 NA
ATOM      5  C   UNL     1      43.981   4.291  10.237  0.00  0.00    +0.000 A 
ATOM      6  C   UNL     1      44.866   4.356   9.162  0.00  0.00    +0.000 A 
ENDROOT
BRANCH   1   7
ATOM      7  C   UNL     1      46.258   3.169   7.398  0.00  0.00    +0.000 C 
BRANCH   7   8
ATOM      8  N   UNL     1      46.763   4.512   7.136  0.00  0.00    +0.000 NA
ATOM      9  H   UNL     1      46.018   5.081   6.739  0.00  0.00    +0.000 HD
ATOM     10  H   UNL     1      47.493   4.460   6.427  0.00  0.00    +0.000 HD
ENDBRANCH   7   8
ENDBRANCH   1   7
BRANCH   5  11
ATOM     11  S   UNL     1      43.358   5.802  10.958  0.00  0.00    +0.000 S 
BRANCH  11  12
ATOM     12  C   UNL     1      43.754   5.507  12.722  0.00  0.00    +0.000 C 
BRANCH  12  13
ATOM     13  C   UNL     1      45.209   5.779  13.055  0.00  0.00    +0.000 A 
ATOM     14  C   UNL     1      46.014   4.780  13.610  0.00  0.00    +0.000 A 
ATOM     15  C   UNL     1      47.342   5.071  13.926  0.00  0.00    +0.000 A 
ATOM     16  C   UNL     1      47.822   6.350  13.699  0.00  0.00    +0.000 A 
ATOM     17  F   UNL     1      49.088   6.661  13.994  0.00  0.00    +0.000 F 
ATOM     18  C   UNL     1      46.964   7.296  13.166  0.00  0.00    +0.000 A 
ATOM     19  N   UNL     1      45.673   7.040  12.842  0.00  0.00    +0.000 NA
ENDBRANCH  12  13
ENDBRANCH  11  12
ENDBRANCH   5  11
TORSDOF 5
ENDMDL
MODEL 7
REMARK VINA RESULT:    -5.547      4.081      7.057
REMARK INTER + INTRA:          -7.369
REMARK INTER:                  -7.026
REMARK INTRA:                  -0.343
REMARK UNBOUND:                -0.363
REMARK  Name = 
REMARK  5 active torsions:
REMARK  status: ('A' for Active; 'I' for Inactive)
REMARK    1  A    between atoms: N_1  and  C_2
REMARK    2  A    between atoms: C_2  and  C_3
REMARK    3  A    between atoms: C_7  and  S_8
REMARK    4  A    between atoms: S_8  and  C_9
REMARK    5  A    between atoms: C_9  and  C_10
REMARK                            x       y       z     vdW  Elec       q    Type
REMARK                         _______ _______ _______ _____ _____    ______ ____
ROOT
ATOM      1  C   UNL     1      44.301   4.682  10.545  0.00  0.00    +0.000 A 
ATOM      2  C   UNL     1      43.255   4.320  11.397  0.00  0.00    +0.000 A 
ATOM      3  C   UNL     1      43.191   4.900  12.651  0.00  0.00    +0.000 A 
ATOM      4  N   UNL     1      44.085   5.800  13.112  0.00  0.00    +0.000 NA
ATOM      5  C   UNL     1      45.091   6.153  12.283  0.00  0.00    +0.000 A 
ATOM      6  C   UNL     1      45.239   5.613  11.006  0.00  0.00    +0.000 A 
ENDROOT
BRANCH   1   7
ATOM      7  C   UNL     1      44.388   4.082   9.165  0.00  0.00    +0.000 C 
BRANCH   7   8
ATOM      8  N   UNL     1      45.417   4.746   8.374  0.00  0.00    +0.000 NA
ATOM      9  H   UNL     1      44.977   5.384   7.714  0.00  0.00    +0.000 HD
ATOM     10  H   UNL     1      45.908   4.049   7.815  0.00  0.00    +0.000 HD
ENDBRANCH   7   8
ENDBRANCH   1   7
BRANCH   5  11
ATOM     11  S   UNL     1      46.259   7.374  12.864  0.00  0.00    +0.000 S 
BRANCH  11  12
ATOM     12  C   UNL     1      47.755   6.330  13.044  0.00  0.00    +0.000 C 
BRANCH  12  13
ATOM     13  C   UNL     1      47.874   5.700  14.418  0.00  0.00    +0.000 A 
ATOM     14  C   UNL     1      47.098   4.590  14.765  0.00  0.00    +0.000 A 
ATOM     15  C   UNL     1      47.215   4.048  16.046  0.00  0.00    +0.000 A 
ATOM     16  C   UNL     1      48.085   4.638  16.947  0.00  0.00    +0.000 A 
ATOM     17  F   UNL     1      48.217   4.145  18.183  0.00  0.00    +0.000 F 
ATOM     18  C   UNL     1      48.807   5.747  16.545  0.00  0.00    +0.000 A 
ATOM     19  N   UNL     1      48.720   6.289  15.305  0.00  0.00    +0.000 NA
ENDBRANCH  12  13
ENDBRANCH  11  12
ENDBRANCH   5  11
TORSDOF 5
ENDMDL
MODEL 8
REMARK VINA RESULT:    -5.378      2.842      3.965
REMARK INTER + INTRA:          -7.155
REMARK INTER:                  -6.858
REMARK INTRA:                  -0.297
REMARK UNBOUND:                -0.363
REMARK  Name = 
REMARK  5 active torsions:
REMARK  status: ('A' for Active; 'I' for Inactive)
REMARK    1  A    between atoms: N_1  and  C_2
REMARK    2  A    between atoms: C_2  and  C_3
REMARK    3  A    between atoms: C_7  and  S_8
REMARK    4  A    between atoms: S_8  and  C_9
REMARK    5  A    between atoms: C_9  and  C_10
REMARK                            x       y       z     vdW  Elec       q    Type
REMARK                         _______ _______ _______ _____ _____    ______ ____
ROOT
ATOM      1  C   UNL     1      47.840   4.571  15.903  0.00  0.00    +0.000 A 
ATOM      2  C   UNL     1      48.660   5.487  16.566  0.00  0.00    +0.000 A 
ATOM      3  C   UNL     1      48.921   6.703  15.961  0.00  0.00    +0.000 A 
ATOM      4  N   UNL     1      48.432   7.065  14.756  0.00  0.00    +0.000 NA
ATOM      5  C   UNL     1      47.633   6.181  14.120  0.00  0.00    +0.000 A 
ATOM      6  C   UNL     1      47.324   4.929  14.651  0.00  0.00    +0.000 A 
ENDROOT
BRANCH   1   7
ATOM      7  C   UNL     1      47.522   3.245  16.544  0.00  0.00    +0.000 C 
BRANCH   7   8
ATOM      8  N   UNL     1      46.592   3.414  17.655  0.00  0.00    +0.000 NA
ATOM      9  H   UNL     1      46.304   2.499  17.996  0.00  0.00    +0.000 HD
ATOM     10  H   UNL     1      45.748   3.872  17.315  0.00  0.00    +0.000 HD
ENDBRANCH   7   8
ENDBRANCH   1   7
BRANCH   5  11
ATOM     11  S   UNL     1      46.946   6.663  12.544  0.00  0.00    +0.000 S 
BRANCH  11  12
ATOM     12  C   UNL     1      45.292   5.882  12.659  0.00  0.00    +0.000 C 
BRANCH  12  13
ATOM     13  C   UNL     1      45.012   4.919  11.521  0.00  0.00    +0.000 A 
ATOM     14  C   UNL     1      45.430   5.211  10.219  0.00  0.00    +0.000 A 
ATOM     15  C   UNL     1      45.137   4.314   9.191  0.00  0.00    +0.000 A 
ATOM     16  C   UNL     1      44.420   3.166   9.485  0.00  0.00    +0.000 A 
ATOM     17  F   UNL     1      44.119   2.290   8.521  0.00  0.00    +0.000 F 
ATOM     18  C   UNL     1      44.019   2.950  10.791  0.00  0.00    +0.000 A 
ATOM     19  N   UNL     1      44.298   3.798  11.812  0.00  0.00    +0.000 NA
ENDBRANCH  12  13
ENDBRANCH  11  12
ENDBRANCH   5  11
TORSDOF 5
ENDMDL
MODEL 9
REMARK VINA RESULT:    -5.311      2.696      3.888
REMARK INTER + INTRA:          -7.070
REMARK INTER:                  -6.779
REMARK INTRA:                  -0.291
REMARK UNBOUND:                -0.363
REMARK  Name = 
REMARK  5 active torsions:
REMARK  status: ('A' for Active; 'I' for Inactive)
REMARK    1  A    between atoms: N_1  and  C_2
REMARK    2  A    between atoms: C_2  and  C_3
REMARK    3  A    between atoms: C_7  and  S_8
REMARK    4  A    between atoms: S_8  and  C_9
REMARK    5  A    between atoms: C_9  and  C_10
REMARK                            x       y       z     vdW  Elec       q    Type
REMARK                         _______ _______ _______ _____ _____    ______ ____
ROOT
ATOM      1  C   UNL     1      44.724   9.423  11.481  0.00  0.00    +0.000 A 
ATOM      2  C   UNL     1      45.938  10.009  11.846  0.00  0.00    +0.000 A 
ATOM      3  C   UNL     1      46.950   9.196  12.324  0.00  0.00    +0.000 A 
ATOM      4  N   UNL     1      46.837   7.859  12.467  0.00  0.00    +0.000 NA
ATOM      5  C   UNL     1      45.665   7.294  12.107  0.00  0.00    +0.000 A 
ATOM      6  C   UNL     1      44.588   8.037  11.624  0.00  0.00    +0.000 A 
ENDROOT
BRANCH   1   7
ATOM      7  C   UNL     1      43.609  10.279  10.939  0.00  0.00    +0.000 C 
BRANCH   7   8
ATOM      8  N   UNL     1      42.353   9.540  10.910  0.00  0.00    +0.000 NA
ATOM      9  H   UNL     1      42.082   9.296  11.861  0.00  0.00    +0.000 HD
ATOM     10  H   UNL     1      42.496   8.660  10.417  0.00  0.00    +0.000 HD
ENDBRANCH   7   8
ENDBRANCH   1   7
BRANCH   5  11
ATOM     11  S   UNL     1      45.515   5.519  12.252  0.00  0.00    +0.000 S 
BRANCH  11  12
ATOM     12  C   UNL     1      44.401   5.172  10.840  0.00  0.00    +0.000 C 
BRANCH  12  13
ATOM     13  C   UNL     1      45.021   4.245   9.812  0.00  0.00    +0.000 A 
ATOM     14  C   UNL     1      45.743   4.757   8.730  0.00  0.00    +0.000 A 
ATOM     15  C   UNL     1      46.281   3.877   7.790  0.00  0.00    +0.000 A 
ATOM     16  C   UNL     1      46.068   2.517   7.944  0.00  0.00    +0.000 A 
ATOM     17  F   UNL     1      46.567   1.649   7.059  0.00  0.00    +0.000 F 
ATOM     18  C   UNL     1      45.327   2.080   9.027  0.00  0.00    +0.000 A 
ATOM     19  N   UNL     1      44.799   2.910   9.961  0.00  0.00    +0.000 NA
ENDBRANCH  12  13
ENDBRANCH  11  12
ENDBRANCH   5  11
TORSDOF 5
ENDMDL
