MODEL 1
REMARK VINA RESULT:    -8.169      0.000      0.000
REMARK INTER + INTRA:         -11.818
REMARK INTER:                 -10.556
REMARK INTRA:                  -1.262
REMARK UNBOUND:                -1.262
REMARK  Name = 
REMARK  6 active torsions:
REMARK  status: ('A' for Active; 'I' for Inactive)
REMARK    1  A    between atoms: C_1  and  C_2
REMARK    2  A    between atoms: C_4  and  C_5
REMARK    3  A    between atoms: C_10  and  N_11
REMARK    4  A    between atoms: N_11  and  C_12
REMARK    5  A    between atoms: C_12  and  C_13
REMARK    6  A    between atoms: C_17  and  C_18
REMARK                            x       y       z     vdW  Elec       q    Type
REMARK                         _______ _______ _______ _____ _____    ______ ____
ROOT
ATOM      1  N   UNL     1      44.704   6.971  12.673  0.00  0.00    +0.000 N 
ATOM      2  H   UNL     1      44.480   6.293  13.391  0.00  0.00    +0.000 HD
ENDROOT
BRANCH   1   9
ATOM      3  C   UNL     1      46.543   4.918  13.666  0.00  0.00    +0.000 C 
ATOM      4  C   UNL     1      46.981   6.235  13.089  0.00  0.00    +0.000 A 
ATOM      5  C   UNL     1      48.356   6.538  13.078  0.00  0.00    +0.000 A 
ATOM      6  C   UNL     1      48.813   7.751  12.575  0.00  0.00    +0.000 A 
ATOM      7  C   UNL     1      47.857   8.614  12.081  0.00  0.00    +0.000 A 
ATOM      8  N   UNL     1      46.528   8.350  12.067  0.00  0.00    +0.000 NA
ATOM      9  C   UNL     1      46.085   7.174  12.568  0.00  0.00    +0.000 A 
BRANCH   6  10
ATOM     10  C   UNL     1      50.266   8.045  12.603  0.00  0.00    +0.000 C 
ATOM     11  N   UNL     1      50.991   7.728  13.716  0.00  0.00    +0.000 N 
ATOM     12  O   UNL     1      50.822   8.565  11.642  0.00  0.00    +0.000 OA
ATOM     13  H   UNL     1      50.642   7.282  14.549  0.00  0.00    +0.000 HD
ATOM     14  H   UNL     1      51.980   7.941  13.679  0.00  0.00    +0.000 HD
ENDBRANCH   6  10
ENDBRANCH   1   9
BRANCH   1  15
ATOM     15  C   UNL     1      44.020   6.665  11.418  0.00  0.00    +0.000 C 
BRANCH  15  16
ATOM     16  C   UNL     1      44.106   5.182  11.132  0.00  0.00    +0.000 A 
ATOM     17  C   UNL     1      43.268   4.294  11.818  0.00  0.00    +0.000 A 
ATOM     18  C   UNL     1      43.269   2.939  11.507  0.00  0.00    +0.000 A 
ATOM     19  C   UNL     1      44.086   2.461  10.481  0.00  0.00    +0.000 A 
ATOM     20  C   UNL     1      44.900   3.325   9.724  0.00  0.00    +0.000 A 
ATOM     21  C   UNL     1      44.916   4.686  10.096  0.00  0.00    +0.000 A 
BRANCH  20  22
ATOM     22  C   UNL     1      45.612   2.853   8.511  0.00  0.00    +0.000 A 
ATOM     23  C   UNL     1      45.969   3.759   7.492  0.00  0.00    +0.000 A 
ATOM     24  C   UNL     1      46.750   3.368   6.401  0.00  0.00    +0.000 A 
ATOM     25  C   UNL     1      47.200   2.057   6.305  0.00  0.00    +0.000 A 
ATOM     26  C   UNL     1      46.840   1.132   7.280  0.00  0.00    +0.000 A 
ATOM     27  C   UNL     1      46.045   1.524   8.363  0.00  0.00    +0.000 A 
ENDBRANCH  20  22
ENDBRANCH  15  16
ENDBRANCH   1  15
TORSDOF 5
ENDMDL
MODEL 2
REMARK VINA RESULT:    -7.891      3.134      6.794
REMARK INTER + INTRA:         -11.459
REMARK INTER:                 -10.386
REMARK INTRA:                  -1.073
REMARK UNBOUND:                -1.262
REMARK  Name = 
REMARK  6 active torsions:
REMARK  status: ('A' for Active; 'I' for Inactive)
REMARK    1  A    between atoms: C_1  and  C_2
REMARK    2  A    between atoms: C_4  and  C_5
REMARK    3  A    between atoms: C_10  and  N_11
REMARK    4  A    between atoms: N_11  and  C_12
REMARK    5  A    between atoms: C_12  and  C_13
REMARK    6  A    between atoms: C_17  and  C_18
REMARK                            x       y       z     vdW  Elec       q    Type
REMARK                         _______ _______ _______ _____ _____    ______ ____
ROOT
ATOM      1  N   UNL     1      44.119   5.069  10.113  0.00  0.00    +0.000 N 
ATOM      2  H   UNL     1      43.189   5.251   9.755  0.00  0.00    +0.000 HD
ENDROOT
BRANCH   1   9
ATOM      3  C   UNL     1      44.030   2.173  10.548  0.00  0.00    +0.000 C 
ATOM      4  C   UNL     1      44.860   2.842   9.488  0.00  0.00    +0.000 A 
ATOM      5  C   UNL     1      45.701   2.041   8.691  0.00  0.00    +0.000 A 
ATOM      6  C   UNL     1      46.506   2.612   7.711  0.00  0.00    +0.000 A 
ATOM      7  C   UNL     1      46.418   3.981   7.560  0.00  0.00    +0.000 A 
ATOM      8  N   UNL     1      45.613   4.778   8.303  0.00  0.00    +0.000 NA
ATOM      9  C   UNL     1      44.841   4.222   9.263  0.00  0.00    +0.000 A 
BRANCH   6  10
ATOM     10  C   UNL     1      47.395   1.740   6.907  0.00  0.00    +0.000 C 
ATOM     11  N   UNL     1      48.451   2.294   6.241  0.00  0.00    +0.000 N 
ATOM     12  O   UNL     1      47.196   0.532   6.835  0.00  0.00    +0.000 OA
ATOM     13  H   UNL     1      48.718   3.265   6.248  0.00  0.00    +0.000 HD
ATOM     14  H   UNL     1      49.033   1.653   5.715  0.00  0.00    +0.000 HD
ENDBRANCH   6  10
ENDBRANCH   1   9
BRANCH   1  15
ATOM     15  C   UNL     1      44.798   6.308  10.486  0.00  0.00    +0.000 C 
BRANCH  15  16
ATOM     16  C   UNL     1      45.632   6.085  11.728  0.00  0.00    +0.000 A 
ATOM     17  C   UNL     1      45.279   5.071  12.627  0.00  0.00    +0.000 A 
ATOM     18  C   UNL     1      46.083   4.794  13.728  0.00  0.00    +0.000 A 
ATOM     19  C   UNL     1      47.268   5.506  13.924  0.00  0.00    +0.000 A 
ATOM     20  C   UNL     1      47.692   6.492  13.013  0.00  0.00    +0.000 A 
ATOM     21  C   UNL     1      46.833   6.787  11.934  0.00  0.00    +0.000 A 
BRANCH  20  22
ATOM     22  C   UNL     1      49.040   7.105  13.109  0.00  0.00    +0.000 A 
ATOM     23  C   UNL     1      49.713   7.542  11.951  0.00  0.00    +0.000 A 
ATOM     24  C   UNL     1      50.923   8.238  12.023  0.00  0.00    +0.000 A 
ATOM     25  C   UNL     1      51.490   8.519  13.259  0.00  0.00    +0.000 A 
ATOM     26  C   UNL     1      50.864   8.075  14.421  0.00  0.00    +0.000 A 
ATOM     27  C   UNL     1      49.660   7.366  14.344  0.00  0.00    +0.000 A 
ENDBRANCH  20  22
ENDBRANCH  15  16
ENDBRANCH   1  15
TORSDOF 5
ENDMDL
MODEL 3
REMARK VINA RESULT:    -7.858      3.228      6.841
REMARK INTER + INTRA:         -11.417
REMARK INTER:                 -10.063
REMARK INTRA:                  -1.354
REMARK UNBOUND:                -1.262
REMARK  Name = 
REMARK  6 active torsions:
REMARK  status: ('A' for Active; 'I' for Inactive)
REMARK    1  A    between atoms: C_1  and  C_2
REMARK    2  A    between atoms: C_4  and  C_5
REMARK    3  A    between atoms: C_10  and  N_11
REMARK    4  A    between atoms: N_11  and  C_12
REMARK    5  A    between atoms: C_12  and  C_13
REMARK    6  A    between atoms: C_17  and  C_18
REMARK                            x       y       z     vdW  Elec       q    Type
REMARK                         _______ _______ _______ _____ _____    ______ ____
ROOT
ATOM      1  N   UNL     1      43.643   4.656   9.959  0.00  0.00    +0.000 N 
ATOM      2  H   UNL     1      43.926   5.593   9.700  0.00  0.00    +0.000 HD
ENDROOT
BRANCH   1   9
ATOM      3  C   UNL     1      46.150   5.504   8.703  0.00  0.00    +0.000 C 
ATOM      4  C   UNL     1      45.685   4.076   8.778  0.00  0.00    +0.000 A 
ATOM      5  C   UNL     1      46.464   3.083   8.153  0.00  0.00    +0.000 A 
ATOM      6  C   UNL     1      46.068   1.751   8.176  0.00  0.00    +0.000 A 
ATOM      7  C   UNL     1      44.897   1.465   8.848  0.00  0.00    +0.000 A 
ATOM      8  N   UNL     1      44.130   2.394   9.467  0.00  0.00    +0.000 NA
ATOM      9  C   UNL     1      44.511   3.691   9.434  0.00  0.00    +0.000 A 
BRANCH   6  10
ATOM     10  C   UNL     1      46.901   0.737   7.486  0.00  0.00    +0.000 C 
ATOM     11  N   UNL     1      46.651  -0.589   7.695  0.00  0.00    +0.000 N 
ATOM     12  O   UNL     1      47.809   1.073   6.734  0.00  0.00    +0.000 OA
ATOM     13  H   UNL     1      45.922  -0.975   8.274  0.00  0.00    +0.000 HD
ATOM     14  H   UNL     1      47.243  -1.240   7.194  0.00  0.00    +0.000 HD
ENDBRANCH   6  10
ENDBRANCH   1   9
BRANCH   1  15
ATOM     15  C   UNL     1      43.388   4.553  11.394  0.00  0.00    +0.000 C 
BRANCH  15  16
ATOM     16  C   UNL     1      44.639   4.905  12.167  0.00  0.00    +0.000 A 
ATOM     17  C   UNL     1      45.325   3.904  12.867  0.00  0.00    +0.000 A 
ATOM     18  C   UNL     1      46.524   4.189  13.511  0.00  0.00    +0.000 A 
ATOM     19  C   UNL     1      47.070   5.472  13.432  0.00  0.00    +0.000 A 
ATOM     20  C   UNL     1      46.447   6.492  12.689  0.00  0.00    +0.000 A 
ATOM     21  C   UNL     1      45.206   6.189  12.090  0.00  0.00    +0.000 A 
BRANCH  20  22
ATOM     22  C   UNL     1      47.122   7.790  12.440  0.00  0.00    +0.000 A 
ATOM     23  C   UNL     1      48.445   7.829  11.957  0.00  0.00    +0.000 A 
ATOM     24  C   UNL     1      49.060   9.030  11.593  0.00  0.00    +0.000 A 
ATOM     25  C   UNL     1      48.361  10.226  11.697  0.00  0.00    +0.000 A 
ATOM     26  C   UNL     1      47.062  10.224  12.197  0.00  0.00    +0.000 A 
ATOM     27  C   UNL     1      46.456   9.021  12.576  0.00  0.00    +0.000 A 
ENDBRANCH  20  22
ENDBRANCH  15  16
ENDBRANCH   1  15
TORSDOF 5
ENDMDL
MODEL 4
REMARK VINA RESULT:    -7.773      3.495      7.304
REMARK INTER + INTRA:         -11.307
REMARK INTER:                 -11.248
REMARK INTRA:                  -0.059
REMARK UNBOUND:                -1.262
REMARK  Name = 
REMARK  6 active torsions:
REMARK  status: ('A' for Active; 'I' for Inactive)
REMARK    1  A    between atoms: C_1  and  C_2
REMARK    2  A    between atoms: C_4  and  C_5
REMARK    3  A    between atoms: C_10  and  N_11
REMARK    4  A    between atoms: N_11  and  C_12
REMARK    5  A    between atoms: C_12  and  C_13
REMARK    6  A    between atoms: C_17  and  C_18
REMARK                            x       y       z     vdW  Elec       q    Type
REMARK                         _______ _______ _______ _____ _____    ______ ____
ROOT
ATOM      1  N   UNL     1      44.562   5.440   9.928  0.00  0.00    +0.000 N 
ATOM      2  H   UNL     1      45.015   6.308   9.671  0.00  0.00    +0.000 HD
ENDROOT
BRANCH   1   9
ATOM      3  C   UNL     1      43.833   2.713  10.714  0.00  0.00    +0.000 C 
ATOM      4  C   UNL     1      44.801   3.043   9.612  0.00  0.00    +0.000 A 
ATOM      5  C   UNL     1      45.452   1.983   8.951  0.00  0.00    +0.000 A 
ATOM      6  C   UNL     1      46.371   2.235   7.939  0.00  0.00    +0.000 A 
ATOM      7  C   UNL     1      46.589   3.558   7.617  0.00  0.00    +0.000 A 
ATOM      8  N   UNL     1      45.973   4.601   8.225  0.00  0.00    +0.000 NA
ATOM      9  C   UNL     1      45.087   4.354   9.217  0.00  0.00    +0.000 A 
BRANCH   6  10
ATOM     10  C   UNL     1      47.055   1.094   7.283  0.00  0.00    +0.000 C 
ATOM     11  N   UNL     1      46.744  -0.180   7.664  0.00  0.00    +0.000 N 
ATOM     12  O   UNL     1      47.891   1.280   6.407  0.00  0.00    +0.000 OA
ATOM     13  H   UNL     1      46.062  -0.447   8.355  0.00  0.00    +0.000 HD
ATOM     14  H   UNL     1      47.232  -0.923   7.179  0.00  0.00    +0.000 HD
ENDBRANCH   6  10
ENDBRANCH   1   9
BRANCH   1  15
ATOM     15  C   UNL     1      44.513   5.273  11.379  0.00  0.00    +0.000 C 
BRANCH  15  16
ATOM     16  C   UNL     1      45.841   5.666  11.988  0.00  0.00    +0.000 A 
ATOM     17  C   UNL     1      46.614   6.663  11.381  0.00  0.00    +0.000 A 
ATOM     18  C   UNL     1      47.794   7.100  11.974  0.00  0.00    +0.000 A 
ATOM     19  C   UNL     1      48.197   6.567  13.200  0.00  0.00    +0.000 A 
ATOM     20  C   UNL     1      47.420   5.607  13.876  0.00  0.00    +0.000 A 
ATOM     21  C   UNL     1      46.256   5.146  13.226  0.00  0.00    +0.000 A 
BRANCH  20  22
ATOM     22  C   UNL     1      47.741   5.189  15.263  0.00  0.00    +0.000 A 
ATOM     23  C   UNL     1      48.589   5.974  16.070  0.00  0.00    +0.000 A 
ATOM     24  C   UNL     1      48.806   5.673  17.418  0.00  0.00    +0.000 A 
ATOM     25  C   UNL     1      48.173   4.581  17.995  0.00  0.00    +0.000 A 
ATOM     26  C   UNL     1      47.352   3.769  17.218  0.00  0.00    +0.000 A 
ATOM     27  C   UNL     1      47.150   4.064  15.864  0.00  0.00    +0.000 A 
ENDBRANCH  20  22
ENDBRANCH  15  16
ENDBRANCH   1  15
TORSDOF 5
ENDMDL
MODEL 5
REMARK VINA RESULT:    -7.391      1.474      1.902
REMARK INTER + INTRA:         -10.813
REMARK INTER:                 -10.013
REMARK INTRA:                  -0.801
REMARK UNBOUND:                -1.262
REMARK  Name = 
REMARK  6 active torsions:
REMARK  status: ('A' for Active; 'I' for Inactive)
REMARK    1  A    between atoms: C_1  and  C_2
REMARK    2  A    between atoms: C_4  and  C_5
REMARK    3  A    between atoms: C_10  and  N_11
REMARK    4  A    between atoms: N_11  and  C_12
REMARK    5  A    between atoms: C_12  and  C_13
REMARK    6  A    between atoms: C_17  and  C_18
REMARK                            x       y       z     vdW  Elec       q    Type
REMARK                         _______ _______ _______ _____ _____    ______ ____
ROOT
ATOM      1  N   UNL     1      45.154   7.092  11.020  0.00  0.00    +0.000 N 
ATOM      2  H   UNL     1      44.964   7.950  10.516  0.00  0.00    +0.000 HD
ENDROOT
BRANCH   1   9
ATOM      3  C   UNL     1      45.267   9.726  12.299  0.00  0.00    +0.000 C 
ATOM      4  C   UNL     1      46.153   8.569  12.670  0.00  0.00    +0.000 A 
ATOM      5  C   UNL     1      47.146   8.771  13.648  0.00  0.00    +0.000 A 
ATOM      6  C   UNL     1      48.005   7.740  14.013  0.00  0.00    +0.000 A 
ATOM      7  C   UNL     1      47.817   6.528  13.382  0.00  0.00    +0.000 A 
ATOM      8  N   UNL     1      46.866   6.297  12.445  0.00  0.00    +0.000 NA
ATOM      9  C   UNL     1      46.039   7.304  12.084  0.00  0.00    +0.000 A 
BRANCH   6  10
ATOM     10  C   UNL     1      49.053   7.998  15.029  0.00  0.00    +0.000 C 
ATOM     11  N   UNL     1      49.815   6.959  15.482  0.00  0.00    +0.000 N 
ATOM     12  O   UNL     1      49.244   9.128  15.465  0.00  0.00    +0.000 OA
ATOM     13  H   UNL     1      49.757   6.000  15.179  0.00  0.00    +0.000 HD
ATOM     14  H   UNL     1      50.523   7.191  16.169  0.00  0.00    +0.000 HD
ENDBRANCH   6  10
ENDBRANCH   1   9
BRANCH   1  15
ATOM     15  C   UNL     1      43.918   6.393  11.366  0.00  0.00    +0.000 C 
BRANCH  15  16
ATOM     16  C   UNL     1      44.058   4.918  11.061  0.00  0.00    +0.000 A 
ATOM     17  C   UNL     1      43.251   3.992  11.735  0.00  0.00    +0.000 A 
ATOM     18  C   UNL     1      43.302   2.642  11.406  0.00  0.00    +0.000 A 
ATOM     19  C   UNL     1      44.136   2.206  10.374  0.00  0.00    +0.000 A 
ATOM     20  C   UNL     1      44.918   3.109   9.630  0.00  0.00    +0.000 A 
ATOM     21  C   UNL     1      44.886   4.465  10.019  0.00  0.00    +0.000 A 
BRANCH  20  22
ATOM     22  C   UNL     1      45.648   2.679   8.411  0.00  0.00    +0.000 A 
ATOM     23  C   UNL     1      45.927   3.599   7.381  0.00  0.00    +0.000 A 
ATOM     24  C   UNL     1      46.721   3.255   6.284  0.00  0.00    +0.000 A 
ATOM     25  C   UNL     1      47.262   1.979   6.192  0.00  0.00    +0.000 A 
ATOM     26  C   UNL     1      46.980   1.038   7.178  0.00  0.00    +0.000 A 
ATOM     27  C   UNL     1      46.172   1.382   8.268  0.00  0.00    +0.000 A 
ENDBRANCH  20  22
ENDBRANCH  15  16
ENDBRANCH   1  15
TORSDOF 5
ENDMDL
MODEL 6
REMARK VINA RESULT:    -7.304      3.172      3.789
REMARK INTER + INTRA:         -10.701
REMARK INTER:                  -9.931
REMARK INTRA:                  -0.770
REMARK UNBOUND:                -1.262
REMARK  Name = 
REMARK  6 active torsions:
REMARK  status: ('A' for Active; 'I' for Inactive)
REMARK    1  A    between atoms: C_1  and  C_2
REMARK    2  A    between atoms: C_4  and  C_5
REMARK    3  A    between atoms: C_10  and  N_11
REMARK    4  A    between atoms: N_11  and  C_12
REMARK    5  A    between atoms: C_12  and  C_13
REMARK    6  A    between atoms: C_17  and  C_18
REMARK                            x       y       z     vdW  Elec       q    Type
REMARK                         _______ _______ _______ _____ _____    ______ ____
ROOT
ATOM      1  N   UNL     1      46.918   5.412  13.306  0.00  0.00    +0.000 N 
ATOM      2  H   UNL     1      47.402   6.213  12.918  0.00  0.00    +0.000 HD
ENDROOT
BRANCH   1   9
ATOM      3  C   UNL     1      48.637   7.327  14.705  0.00  0.00    +0.000 C 
ATOM      4  C   UNL     1      48.218   5.999  15.272  0.00  0.00    +0.000 A 
ATOM      5  C   UNL     1      48.730   5.614  16.526  0.00  0.00    +0.000 A 
ATOM      6  C   UNL     1      48.390   4.387  17.085  0.00  0.00    +0.000 A 
ATOM      7  C   UNL     1      47.526   3.595  16.358  0.00  0.00    +0.000 A 
ATOM      8  N   UNL     1      47.008   3.939  15.154  0.00  0.00    +0.000 NA
ATOM      9  C   UNL     1      47.350   5.128  14.607  0.00  0.00    +0.000 A 
BRANCH   6  10
ATOM     10  C   UNL     1      48.967   4.006  18.396  0.00  0.00    +0.000 C 
ATOM     11  N   UNL     1      48.269   3.165  19.215  0.00  0.00    +0.000 N 
ATOM     12  O   UNL     1      50.060   4.433  18.753  0.00  0.00    +0.000 OA
ATOM     13  H   UNL     1      47.377   2.741  19.015  0.00  0.00    +0.000 HD
ATOM     14  H   UNL     1      48.712   2.929  20.095  0.00  0.00    +0.000 HD
ENDBRANCH   6  10
ENDBRANCH   1   9
BRANCH   1  15
ATOM     15  C   UNL     1      45.471   5.532  13.139  0.00  0.00    +0.000 C 
BRANCH  15  16
ATOM     16  C   UNL     1      44.954   4.397  12.283  0.00  0.00    +0.000 A 
ATOM     17  C   UNL     1      43.741   3.780  12.611  0.00  0.00    +0.000 A 
ATOM     18  C   UNL     1      43.205   2.795  11.788  0.00  0.00    +0.000 A 
ATOM     19  C   UNL     1      43.861   2.441  10.607  0.00  0.00    +0.000 A 
ATOM     20  C   UNL     1      45.051   3.078  10.207  0.00  0.00    +0.000 A 
ATOM     21  C   UNL     1      45.597   4.036  11.087  0.00  0.00    +0.000 A 
BRANCH  20  22
ATOM     22  C   UNL     1      45.639   2.847   8.864  0.00  0.00    +0.000 A 
ATOM     23  C   UNL     1      45.902   3.929   8.001  0.00  0.00    +0.000 A 
ATOM     24  C   UNL     1      46.571   3.755   6.787  0.00  0.00    +0.000 A 
ATOM     25  C   UNL     1      47.000   2.490   6.406  0.00  0.00    +0.000 A 
ATOM     26  C   UNL     1      46.729   1.396   7.223  0.00  0.00    +0.000 A 
ATOM     27  C   UNL     1      46.045   1.572   8.431  0.00  0.00    +0.000 A 
ENDBRANCH  20  22
ENDBRANCH  15  16
ENDBRANCH   1  15
TORSDOF 5
ENDMDL
MODEL 7
REMARK VINA RESULT:    -6.618      1.897      2.504
REMARK INTER + INTRA:          -9.815
REMARK INTER:                  -9.028
REMARK INTRA:                  -0.787
REMARK UNBOUND:                -1.262
REMARK  Name = 
REMARK  6 active torsions:
REMARK  status: ('A' for Active; 'I' for Inactive)
REMARK    1  A    between atoms: C_1  and  C_2
REMARK    2  A    between atoms: C_4  and  C_5
REMARK    3  A    between atoms: C_10  and  N_11
REMARK    4  A    between atoms: N_11  and  C_12
REMARK    5  A    between atoms: C_12  and  C_13
REMARK    6  A    between atoms: C_17  and  C_18
REMARK                            x       y       z     vdW  Elec       q    Type
REMARK                         _______ _______ _______ _____ _____    ______ ____
ROOT
ATOM      1  N   UNL     1      47.139   7.239  11.621  0.00  0.00    +0.000 N 
ATOM      2  H   UNL     1      47.475   7.926  10.957  0.00  0.00    +0.000 HD
ENDROOT
BRANCH   1   9
ATOM      3  C   UNL     1      49.592   8.835  11.746  0.00  0.00    +0.000 C 
ATOM      4  C   UNL     1      49.106   7.947  12.857  0.00  0.00    +0.000 A 
ATOM      5  C   UNL     1      49.905   7.818  14.010  0.00  0.00    +0.000 A 
ATOM      6  C   UNL     1      49.511   6.994  15.058  0.00  0.00    +0.000 A 
ATOM      7  C   UNL     1      48.308   6.337  14.909  0.00  0.00    +0.000 A 
ATOM      8  N   UNL     1      47.511   6.447  13.819  0.00  0.00    +0.000 NA
ATOM      9  C   UNL     1      47.901   7.240  12.796  0.00  0.00    +0.000 A 
BRANCH   6  10
ATOM     10  C   UNL     1      50.390   6.864  16.245  0.00  0.00    +0.000 C 
ATOM     11  N   UNL     1      50.298   5.749  17.027  0.00  0.00    +0.000 N 
ATOM     12  O   UNL     1      51.196   7.743  16.532  0.00  0.00    +0.000 OA
ATOM     13  H   UNL     1      49.689   4.961  16.874  0.00  0.00    +0.000 HD
ATOM     14  H   UNL     1      50.927   5.706  17.820  0.00  0.00    +0.000 HD
ENDBRANCH   6  10
ENDBRANCH   1   9
BRANCH   1  15
ATOM     15  C   UNL     1      45.694   7.346  11.814  0.00  0.00    +0.000 C 
BRANCH  15  16
ATOM     16  C   UNL     1      45.016   6.074  11.354  0.00  0.00    +0.000 A 
ATOM     17  C   UNL     1      43.697   5.813  11.744  0.00  0.00    +0.000 A 
ATOM     18  C   UNL     1      43.027   4.694  11.260  0.00  0.00    +0.000 A 
ATOM     19  C   UNL     1      43.659   3.841  10.352  0.00  0.00    +0.000 A 
ATOM     20  C   UNL     1      44.962   4.098   9.887  0.00  0.00    +0.000 A 
ATOM     21  C   UNL     1      45.635   5.211  10.433  0.00  0.00    +0.000 A 
BRANCH  20  22
ATOM     22  C   UNL     1      45.557   3.311   8.778  0.00  0.00    +0.000 A 
ATOM     23  C   UNL     1      46.115   3.959   7.658  0.00  0.00    +0.000 A 
ATOM     24  C   UNL     1      46.795   3.252   6.662  0.00  0.00    +0.000 A 
ATOM     25  C   UNL     1      46.939   1.874   6.766  0.00  0.00    +0.000 A 
ATOM     26  C   UNL     1      46.374   1.202   7.846  0.00  0.00    +0.000 A 
ATOM     27  C   UNL     1      45.681   1.912   8.833  0.00  0.00    +0.000 A 
ENDBRANCH  20  22
ENDBRANCH  15  16
ENDBRANCH   1  15
TORSDOF 5
ENDMDL
MODEL 8
REMARK VINA RESULT:    -6.386      3.765      5.142
REMARK INTER + INTRA:          -9.514
REMARK INTER:                  -8.811
REMARK INTRA:                  -0.704
REMARK UNBOUND:                -1.262
REMARK  Name = 
REMARK  6 active torsions:
REMARK  status: ('A' for Active; 'I' for Inactive)
REMARK    1  A    between atoms: C_1  and  C_2
REMARK    2  A    between atoms: C_4  and  C_5
REMARK    3  A    between atoms: C_10  and  N_11
REMARK    4  A    between atoms: N_11  and  C_12
REMARK    5  A    between atoms: C_12  and  C_13
REMARK    6  A    between atoms: C_17  and  C_18
REMARK                            x       y       z     vdW  Elec       q    Type
REMARK                         _______ _______ _______ _____ _____    ______ ____
ROOT
ATOM      1  N   UNL     1      48.108   6.601  15.462  0.00  0.00    +0.000 N 
ATOM      2  H   UNL     1      47.188   6.187  15.550  0.00  0.00    +0.000 HD
ENDROOT
BRANCH   1   9
ATOM      3  C   UNL     1      47.277   4.297  17.070  0.00  0.00    +0.000 C 
ATOM      4  C   UNL     1      48.685   4.822  17.011  0.00  0.00    +0.000 A 
ATOM      5  C   UNL     1      49.661   4.215  17.825  0.00  0.00    +0.000 A 
ATOM      6  C   UNL     1      50.973   4.675  17.824  0.00  0.00    +0.000 A 
ATOM      7  C   UNL     1      51.257   5.730  16.982  0.00  0.00    +0.000 A 
ATOM      8  N   UNL     1      50.345   6.330  16.179  0.00  0.00    +0.000 NA
ATOM      9  C   UNL     1      49.067   5.888  16.191  0.00  0.00    +0.000 A 
BRANCH   6  10
ATOM     10  C   UNL     1      51.967   4.026  18.712  0.00  0.00    +0.000 C 
ATOM     11  N   UNL     1      51.860   4.184  20.064  0.00  0.00    +0.000 N 
ATOM     12  O   UNL     1      52.881   3.352  18.249  0.00  0.00    +0.000 OA
ATOM     13  H   UNL     1      51.142   4.696  20.550  0.00  0.00    +0.000 HD
ATOM     14  H   UNL     1      52.559   3.712  20.625  0.00  0.00    +0.000 HD
ENDBRANCH   6  10
ENDBRANCH   1   9
BRANCH   1  15
ATOM     15  C   UNL     1      48.447   6.855  14.064  0.00  0.00    +0.000 C 
BRANCH  15  16
ATOM     16  C   UNL     1      47.183   7.012  13.246  0.00  0.00    +0.000 A 
ATOM     17  C   UNL     1      46.556   8.262  13.173  0.00  0.00    +0.000 A 
ATOM     18  C   UNL     1      45.445   8.447  12.357  0.00  0.00    +0.000 A 
ATOM     19  C   UNL     1      44.969   7.390  11.578  0.00  0.00    +0.000 A 
ATOM     20  C   UNL     1      45.604   6.134  11.574  0.00  0.00    +0.000 A 
ATOM     21  C   UNL     1      46.697   5.961  12.450  0.00  0.00    +0.000 A 
BRANCH  20  22
ATOM     22  C   UNL     1      45.225   5.078  10.604  0.00  0.00    +0.000 A 
ATOM     23  C   UNL     1      45.672   5.137   9.268  0.00  0.00    +0.000 A 
ATOM     24  C   UNL     1      45.438   4.094   8.368  0.00  0.00    +0.000 A 
ATOM     25  C   UNL     1      44.753   2.960   8.784  0.00  0.00    +0.000 A 
ATOM     26  C   UNL     1      44.273   2.883  10.088  0.00  0.00    +0.000 A 
ATOM     27  C   UNL     1      44.496   3.936  10.982  0.00  0.00    +0.000 A 
ENDBRANCH  20  22
ENDBRANCH  15  16
ENDBRANCH   1  15
TORSDOF 5
ENDMDL
MODEL 9
REMARK VINA RESULT:    -6.350      4.229      6.441
REMARK INTER + INTRA:          -9.468
REMARK INTER:                  -8.416
REMARK INTRA:                  -1.052
REMARK UNBOUND:                -1.262
REMARK  Name = 
REMARK  6 active torsions:
REMARK  status: ('A' for Active; 'I' for Inactive)
REMARK    1  A    between atoms: C_1  and  C_2
REMARK    2  A    between atoms: C_4  and  C_5
REMARK    3  A    between atoms: C_10  and  N_11
REMARK    4  A    between atoms: N_11  and  C_12
REMARK    5  A    between atoms: C_12  and  C_13
REMARK    6  A    between atoms: C_17  and  C_18
REMARK                            x       y       z     vdW  Elec       q    Type
REMARK                         _______ _______ _______ _____ _____    ______ ____
ROOT
ATOM      1  N   UNL     1      48.352   5.972  16.662  0.00  0.00    +0.000 N 
ATOM      2  H   UNL     1      47.514   5.691  16.168  0.00  0.00    +0.000 HD
ENDROOT
BRANCH   1   9
ATOM      3  C   UNL     1      47.284   3.247  16.787  0.00  0.00    +0.000 C 
ATOM      4  C   UNL     1      48.736   3.593  16.965  0.00  0.00    +0.000 A 
ATOM      5  C   UNL     1      49.639   2.558  17.276  0.00  0.00    +0.000 A 
ATOM      6  C   UNL     1      50.989   2.827  17.471  0.00  0.00    +0.000 A 
ATOM      7  C   UNL     1      51.384   4.141  17.329  0.00  0.00    +0.000 A 
ATOM      8  N   UNL     1      50.544   5.159  17.021  0.00  0.00    +0.000 NA
ATOM      9  C   UNL     1      49.229   4.896  16.843  0.00  0.00    +0.000 A 
BRANCH   6  10
ATOM     10  C   UNL     1      51.905   1.715  17.820  0.00  0.00    +0.000 C 
ATOM     11  N   UNL     1      51.392   0.467  18.030  0.00  0.00    +0.000 N 
ATOM     12  O   UNL     1      53.113   1.901  17.921  0.00  0.00    +0.000 OA
ATOM     13  H   UNL     1      50.424   0.199  17.955  0.00  0.00    +0.000 HD
ATOM     14  H   UNL     1      52.062  -0.258  18.257  0.00  0.00    +0.000 HD
ENDBRANCH   6  10
ENDBRANCH   1   9
BRANCH   1  15
ATOM     15  C   UNL     1      48.945   7.168  16.067  0.00  0.00    +0.000 C 
BRANCH  15  16
ATOM     16  C   UNL     1      48.555   7.268  14.609  0.00  0.00    +0.000 A 
ATOM     17  C   UNL     1      49.318   8.057  13.740  0.00  0.00    +0.000 A 
ATOM     18  C   UNL     1      49.028   8.092  12.380  0.00  0.00    +0.000 A 
ATOM     19  C   UNL     1      47.991   7.309  11.868  0.00  0.00    +0.000 A 
ATOM     20  C   UNL     1      47.237   6.455  12.695  0.00  0.00    +0.000 A 
ATOM     21  C   UNL     1      47.520   6.479  14.077  0.00  0.00    +0.000 A 
BRANCH  20  22
ATOM     22  C   UNL     1      46.275   5.479  12.126  0.00  0.00    +0.000 A 
ATOM     23  C   UNL     1      45.836   4.378  12.889  0.00  0.00    +0.000 A 
ATOM     24  C   UNL     1      44.836   3.517  12.428  0.00  0.00    +0.000 A 
ATOM     25  C   UNL     1      44.245   3.740  11.191  0.00  0.00    +0.000 A 
ATOM     26  C   UNL     1      44.676   4.802  10.402  0.00  0.00    +0.000 A 
ATOM     27  C   UNL     1      45.689   5.653  10.860  0.00  0.00    +0.000 A 
ENDBRANCH  20  22
ENDBRANCH  15  16
ENDBRANCH   1  15
TORSDOF 5
ENDMDL
