MODEL 1
REMARK VINA RESULT:    -8.261      0.000      0.000
REMARK INTER + INTRA:         -13.166
REMARK INTER:                 -12.124
REMARK INTRA:                  -1.042
REMARK UNBOUND:                -1.042
REMARK  Name = 
REMARK  8 active torsions:
REMARK  status: ('A' for Active; 'I' for Inactive)
REMARK    1  A    between atoms: C_2  and  C_3
REMARK    2  A    between atoms: N_7  and  C_8
REMARK    3  A    between atoms: C_8  and  C_9
REMARK    4  A    between atoms: C_9  and  C_12
REMARK    5  A    between atoms: C_16  and  O_17
REMARK    6  A    between atoms: O_17  and  C_18
REMARK    7  A    between atoms: N_20  and  C_21
REMARK    8  A    between atoms: C_21  and  C_22
REMARK                            x       y       z     vdW  Elec       q    Type
REMARK                         _______ _______ _______ _____ _____    ______ ____
ROOT
ATOM      1  C   UNL     1      45.038   5.317  12.425  0.00  0.00    +0.000 A 
ATOM      2  C   UNL     1      45.666   6.417  11.828  0.00  0.00    +0.000 A 
ATOM      3  C   UNL     1      46.984   6.750  12.166  0.00  0.00    +0.000 A 
ATOM      4  C   UNL     1      47.697   5.993  13.104  0.00  0.00    +0.000 A 
ATOM      5  C   UNL     1      47.095   4.885  13.683  0.00  0.00    +0.000 A 
ATOM      6  C   UNL     1      45.784   4.554  13.340  0.00  0.00    +0.000 A 
ENDROOT
BRANCH   1   7
ATOM      7  C   UNL     1      43.579   5.029  12.095  0.00  0.00    +0.000 C 
ATOM      8  F   UNL     1      42.790   6.122  12.330  0.00  0.00    +0.000 F 
ATOM      9  F   UNL     1      43.080   4.048  12.907  0.00  0.00    +0.000 F 
BRANCH   7  10
ATOM     10  C   UNL     1      43.372   4.593  10.628  0.00  0.00    +0.000 C 
BRANCH  10  15
ATOM     11  C   UNL     1      46.678   2.451   7.396  0.00  0.00    +0.000 A 
ATOM     12  C   UNL     1      46.283   3.770   7.562  0.00  0.00    +0.000 A 
ATOM     13  C   UNL     1      45.338   4.064   8.540  0.00  0.00    +0.000 A 
ATOM     14  C   UNL     1      44.791   3.046   9.319  0.00  0.00    +0.000 A 
ATOM     15  N   UNL     1      43.846   3.263  10.285  0.00  0.00    +0.000 N 
ATOM     16  N   UNL     1      45.175   1.766   9.162  0.00  0.00    +0.000 NA
ATOM     17  C   UNL     1      46.108   1.494   8.216  0.00  0.00    +0.000 A 
ATOM     18  H   UNL     1      43.474   2.440  10.745  0.00  0.00    +0.000 HD
BRANCH  11  20
ATOM     19  N   UNL     1      48.418   1.782   5.607  0.00  0.00    +0.000 NA
ATOM     20  C   UNL     1      47.639   2.087   6.408  0.00  0.00    +0.000 C 
ENDBRANCH  11  20
ENDBRANCH  10  15
ENDBRANCH   7  10
ENDBRANCH   1   7
BRANCH   5  21
ATOM     21  O   UNL     1      47.628   4.064  14.643  0.00  0.00    +0.000 OA
BRANCH  21  22
ATOM     22  C   UNL     1      47.507   4.401  16.037  0.00  0.00    +0.000 C 
ATOM     23  C   UNL     1      48.569   5.334  16.659  0.00  0.00    +0.000 C 
ATOM     24  N   UNL     1      48.752   4.395  17.787  0.00  0.00    +0.000 NA
ATOM     25  C   UNL     1      48.076   3.332  17.010  0.00  0.00    +0.000 C 
BRANCH  24  26
ATOM     26  C   UNL     1      47.915   4.780  18.950  0.00  0.00    +0.000 C 
BRANCH  26  27
ATOM     27  C   UNL     1      48.679   5.126  20.247  0.00  0.00    +0.000 C 
ATOM     28  F   UNL     1      48.196   6.217  20.878  0.00  0.00    +0.000 F 
ATOM     29  F   UNL     1      48.637   4.094  21.122  0.00  0.00    +0.000 F 
ATOM     30  F   UNL     1      49.984   5.365  19.971  0.00  0.00    +0.000 F 
ENDBRANCH  26  27
ENDBRANCH  24  26
ENDBRANCH  21  22
ENDBRANCH   5  21
TORSDOF 8
ENDMDL
MODEL 2
REMARK VINA RESULT:    -7.351      4.049      5.349
REMARK INTER + INTRA:         -11.832
REMARK INTER:                 -11.188
REMARK INTRA:                  -0.644
REMARK UNBOUND:                -1.042
REMARK  Name = 
REMARK  8 active torsions:
REMARK  status: ('A' for Active; 'I' for Inactive)
REMARK    1  A    between atoms: C_2  and  C_3
REMARK    2  A    between atoms: N_7  and  C_8
REMARK    3  A    between atoms: C_8  and  C_9
REMARK    4  A    between atoms: C_9  and  C_12
REMARK    5  A    between atoms: C_16  and  O_17
REMARK    6  A    between atoms: O_17  and  C_18
REMARK    7  A    between atoms: N_20  and  C_21
REMARK    8  A    between atoms: C_21  and  C_22
REMARK                            x       y       z     vdW  Elec       q    Type
REMARK                         _______ _______ _______ _____ _____    ______ ____
ROOT
ATOM      1  C   UNL     1      44.736   5.414  12.798  0.00  0.00    +0.000 A 
ATOM      2  C   UNL     1      45.523   4.369  13.297  0.00  0.00    +0.000 A 
ATOM      3  C   UNL     1      46.826   4.615  13.747  0.00  0.00    +0.000 A 
ATOM      4  C   UNL     1      47.367   5.906  13.708  0.00  0.00    +0.000 A 
ATOM      5  C   UNL     1      46.589   6.956  13.240  0.00  0.00    +0.000 A 
ATOM      6  C   UNL     1      45.289   6.707  12.797  0.00  0.00    +0.000 A 
ENDROOT
BRANCH   1   7
ATOM      7  C   UNL     1      43.353   5.100  12.243  0.00  0.00    +0.000 C 
ATOM      8  F   UNL     1      42.622   6.240  12.054  0.00  0.00    +0.000 F 
ATOM      9  F   UNL     1      42.629   4.355  13.133  0.00  0.00    +0.000 F 
BRANCH   7  10
ATOM     10  C   UNL     1      43.406   4.334  10.903  0.00  0.00    +0.000 C 
BRANCH  10  15
ATOM     11  C   UNL     1      46.757   2.712   7.424  0.00  0.00    +0.000 A 
ATOM     12  C   UNL     1      46.046   2.029   8.400  0.00  0.00    +0.000 A 
ATOM     13  C   UNL     1      45.191   2.750   9.228  0.00  0.00    +0.000 A 
ATOM     14  C   UNL     1      45.071   4.131   9.085  0.00  0.00    +0.000 A 
ATOM     15  N   UNL     1      44.264   4.902   9.877  0.00  0.00    +0.000 N 
ATOM     16  N   UNL     1      45.757   4.795   8.136  0.00  0.00    +0.000 NA
ATOM     17  C   UNL     1      46.575   4.080   7.326  0.00  0.00    +0.000 A 
ATOM     18  H   UNL     1      44.305   5.903   9.723  0.00  0.00    +0.000 HD
BRANCH  11  20
ATOM     19  N   UNL     1      48.371   1.467   5.837  0.00  0.00    +0.000 NA
ATOM     20  C   UNL     1      47.651   2.029   6.548  0.00  0.00    +0.000 C 
ENDBRANCH  11  20
ENDBRANCH  10  15
ENDBRANCH   7  10
ENDBRANCH   1   7
BRANCH   5  21
ATOM     21  O   UNL     1      46.970   8.264  13.094  0.00  0.00    +0.000 OA
BRANCH  21  22
ATOM     22  C   UNL     1      48.141   8.599  12.327  0.00  0.00    +0.000 C 
ATOM     23  C   UNL     1      48.804   7.489  11.483  0.00  0.00    +0.000 C 
ATOM     24  N   UNL     1      50.128   7.834  12.045  0.00  0.00    +0.000 NA
ATOM     25  C   UNL     1      49.467   8.584  13.136  0.00  0.00    +0.000 C 
BRANCH  24  26
ATOM     26  C   UNL     1      50.863   8.772  11.160  0.00  0.00    +0.000 C 
BRANCH  26  27
ATOM     27  C   UNL     1      52.067   8.178  10.399  0.00  0.00    +0.000 C 
ATOM     28  F   UNL     1      52.623   9.040   9.521  0.00  0.00    +0.000 F 
ATOM     29  F   UNL     1      53.036   7.786  11.258  0.00  0.00    +0.000 F 
ATOM     30  F   UNL     1      51.684   7.082   9.699  0.00  0.00    +0.000 F 
ENDBRANCH  26  27
ENDBRANCH  24  26
ENDBRANCH  21  22
ENDBRANCH   5  21
TORSDOF 8
ENDMDL
MODEL 3
REMARK VINA RESULT:    -7.159      3.664      9.404
REMARK INTER + INTRA:         -11.549
REMARK INTER:                 -11.181
REMARK INTRA:                  -0.368
REMARK UNBOUND:                -1.042
REMARK  Name = 
REMARK  8 active torsions:
REMARK  status: ('A' for Active; 'I' for Inactive)
REMARK    1  A    between atoms: C_2  and  C_3
REMARK    2  A    between atoms: N_7  and  C_8
REMARK    3  A    between atoms: C_8  and  C_9
REMARK    4  A    between atoms: C_9  and  C_12
REMARK    5  A    between atoms: C_16  and  O_17
REMARK    6  A    between atoms: O_17  and  C_18
REMARK    7  A    between atoms: N_20  and  C_21
REMARK    8  A    between atoms: C_21  and  C_22
REMARK                            x       y       z     vdW  Elec       q    Type
REMARK                         _______ _______ _______ _____ _____    ______ ____
ROOT
ATOM      1  C   UNL     1      45.459   4.333  13.045  0.00  0.00    +0.000 A 
ATOM      2  C   UNL     1      44.635   5.443  13.268  0.00  0.00    +0.000 A 
ATOM      3  C   UNL     1      43.448   5.603  12.542  0.00  0.00    +0.000 A 
ATOM      4  C   UNL     1      43.062   4.659  11.582  0.00  0.00    +0.000 A 
ATOM      5  C   UNL     1      43.856   3.541  11.370  0.00  0.00    +0.000 A 
ATOM      6  C   UNL     1      45.036   3.383  12.099  0.00  0.00    +0.000 A 
ENDROOT
BRANCH   1   7
ATOM      7  C   UNL     1      46.781   4.230  13.794  0.00  0.00    +0.000 C 
ATOM      8  F   UNL     1      47.720   5.071  13.265  0.00  0.00    +0.000 F 
ATOM      9  F   UNL     1      47.315   2.976  13.670  0.00  0.00    +0.000 F 
BRANCH   7  10
ATOM     10  C   UNL     1      46.643   4.548  15.299  0.00  0.00    +0.000 C 
BRANCH  10  15
ATOM     11  C   UNL     1      50.992   3.293  17.639  0.00  0.00    +0.000 A 
ATOM     12  C   UNL     1      49.957   2.511  17.147  0.00  0.00    +0.000 A 
ATOM     13  C   UNL     1      48.870   3.143  16.551  0.00  0.00    +0.000 A 
ATOM     14  C   UNL     1      48.821   4.533  16.472  0.00  0.00    +0.000 A 
ATOM     15  N   UNL     1      47.775   5.219  15.916  0.00  0.00    +0.000 N 
ATOM     16  N   UNL     1      49.825   5.294  16.945  0.00  0.00    +0.000 NA
ATOM     17  C   UNL     1      50.886   4.666  17.509  0.00  0.00    +0.000 A 
ATOM     18  H   UNL     1      47.818   6.230  15.971  0.00  0.00    +0.000 HD
BRANCH  11  20
ATOM     19  N   UNL     1      53.052   2.217  18.766  0.00  0.00    +0.000 NA
ATOM     20  C   UNL     1      52.131   2.704  18.262  0.00  0.00    +0.000 C 
ENDBRANCH  11  20
ENDBRANCH  10  15
ENDBRANCH   7  10
ENDBRANCH   1   7
BRANCH   5  21
ATOM     21  O   UNL     1      43.653   2.548  10.446  0.00  0.00    +0.000 OA
BRANCH  21  22
ATOM     22  C   UNL     1      44.253   2.635   9.142  0.00  0.00    +0.000 C 
ATOM     23  C   UNL     1      45.691   2.102   8.960  0.00  0.00    +0.000 C 
ATOM     24  N   UNL     1      46.083   3.355   8.278  0.00  0.00    +0.000 NA
ATOM     25  C   UNL     1      44.873   4.021   8.809  0.00  0.00    +0.000 C 
BRANCH  24  26
ATOM     26  C   UNL     1      45.982   3.222   6.804  0.00  0.00    +0.000 C 
BRANCH  26  27
ATOM     27  C   UNL     1      47.175   2.535   6.105  0.00  0.00    +0.000 C 
ATOM     28  F   UNL     1      48.364   2.805   6.686  0.00  0.00    +0.000 F 
ATOM     29  F   UNL     1      47.019   1.191   6.094  0.00  0.00    +0.000 F 
ATOM     30  F   UNL     1      47.258   2.941   4.815  0.00  0.00    +0.000 F 
ENDBRANCH  26  27
ENDBRANCH  24  26
ENDBRANCH  21  22
ENDBRANCH   5  21
TORSDOF 8
ENDMDL
MODEL 4
REMARK VINA RESULT:    -6.690      3.563      4.258
REMARK INTER + INTRA:         -10.861
REMARK INTER:                 -10.187
REMARK INTRA:                  -0.674
REMARK UNBOUND:                -1.042
REMARK  Name = 
REMARK  8 active torsions:
REMARK  status: ('A' for Active; 'I' for Inactive)
REMARK    1  A    between atoms: C_2  and  C_3
REMARK    2  A    between atoms: N_7  and  C_8
REMARK    3  A    between atoms: C_8  and  C_9
REMARK    4  A    between atoms: C_9  and  C_12
REMARK    5  A    between atoms: C_16  and  O_17
REMARK    6  A    between atoms: O_17  and  C_18
REMARK    7  A    between atoms: N_20  and  C_21
REMARK    8  A    between atoms: C_21  and  C_22
REMARK                            x       y       z     vdW  Elec       q    Type
REMARK                         _______ _______ _______ _____ _____    ______ ____
ROOT
ATOM      1  C   UNL     1      44.254   6.277  12.253  0.00  0.00    +0.000 A 
ATOM      2  C   UNL     1      43.994   7.511  11.645  0.00  0.00    +0.000 A 
ATOM      3  C   UNL     1      44.900   8.571  11.777  0.00  0.00    +0.000 A 
ATOM      4  C   UNL     1      46.080   8.419  12.515  0.00  0.00    +0.000 A 
ATOM      5  C   UNL     1      46.363   7.193  13.101  0.00  0.00    +0.000 A 
ATOM      6  C   UNL     1      45.460   6.138  12.963  0.00  0.00    +0.000 A 
ENDROOT
BRANCH   1   7
ATOM      7  C   UNL     1      43.212   5.170  12.157  0.00  0.00    +0.000 C 
ATOM      8  F   UNL     1      41.943   5.680  12.169  0.00  0.00    +0.000 F 
ATOM      9  F   UNL     1      43.276   4.345  13.246  0.00  0.00    +0.000 F 
BRANCH   7  10
ATOM     10  C   UNL     1      43.372   4.306  10.887  0.00  0.00    +0.000 C 
BRANCH  10  15
ATOM     11  C   UNL     1      46.724   2.678   7.412  0.00  0.00    +0.000 A 
ATOM     12  C   UNL     1      46.046   2.005   8.417  0.00  0.00    +0.000 A 
ATOM     13  C   UNL     1      45.181   2.725   9.236  0.00  0.00    +0.000 A 
ATOM     14  C   UNL     1      45.019   4.096   9.054  0.00  0.00    +0.000 A 
ATOM     15  N   UNL     1      44.200   4.867   9.833  0.00  0.00    +0.000 N 
ATOM     16  N   UNL     1      45.673   4.752   8.077  0.00  0.00    +0.000 NA
ATOM     17  C   UNL     1      46.501   4.037   7.276  0.00  0.00    +0.000 A 
ATOM     18  H   UNL     1      44.209   5.864   9.650  0.00  0.00    +0.000 HD
BRANCH  11  20
ATOM     19  N   UNL     1      48.365   1.440   5.847  0.00  0.00    +0.000 NA
ATOM     20  C   UNL     1      47.626   1.995   6.544  0.00  0.00    +0.000 C 
ENDBRANCH  11  20
ENDBRANCH  10  15
ENDBRANCH   7  10
ENDBRANCH   1   7
BRANCH   5  21
ATOM     21  O   UNL     1      47.442   6.883  13.888  0.00  0.00    +0.000 OA
BRANCH  21  22
ATOM     22  C   UNL     1      48.561   7.783  13.974  0.00  0.00    +0.000 C 
ATOM     23  C   UNL     1      49.643   7.713  12.874  0.00  0.00    +0.000 C 
ATOM     24  N   UNL     1      50.704   7.665  13.904  0.00  0.00    +0.000 NA
ATOM     25  C   UNL     1      49.695   7.311  14.926  0.00  0.00    +0.000 C 
BRANCH  24  26
ATOM     26  C   UNL     1      51.251   9.017  14.179  0.00  0.00    +0.000 C 
BRANCH  26  27
ATOM     27  C   UNL     1      52.790   9.130  14.207  0.00  0.00    +0.000 C 
ATOM     28  F   UNL     1      53.417   7.994  13.834  0.00  0.00    +0.000 F 
ATOM     29  F   UNL     1      53.217  10.121  13.390  0.00  0.00    +0.000 F 
ATOM     30  F   UNL     1      53.215   9.431  15.458  0.00  0.00    +0.000 F 
ENDBRANCH  26  27
ENDBRANCH  24  26
ENDBRANCH  21  22
ENDBRANCH   5  21
TORSDOF 8
ENDMDL
MODEL 5
REMARK VINA RESULT:    -6.586      3.461      9.281
REMARK INTER + INTRA:         -10.708
REMARK INTER:                 -10.042
REMARK INTRA:                  -0.666
REMARK UNBOUND:                -1.042
REMARK  Name = 
REMARK  8 active torsions:
REMARK  status: ('A' for Active; 'I' for Inactive)
REMARK    1  A    between atoms: C_2  and  C_3
REMARK    2  A    between atoms: N_7  and  C_8
REMARK    3  A    between atoms: C_8  and  C_9
REMARK    4  A    between atoms: C_9  and  C_12
REMARK    5  A    between atoms: C_16  and  O_17
REMARK    6  A    between atoms: O_17  and  C_18
REMARK    7  A    between atoms: N_20  and  C_21
REMARK    8  A    between atoms: C_21  and  C_22
REMARK                            x       y       z     vdW  Elec       q    Type
REMARK                         _______ _______ _______ _____ _____    ______ ____
ROOT
ATOM      1  C   UNL     1      45.196   5.670  12.332  0.00  0.00    +0.000 A 
ATOM      2  C   UNL     1      44.051   6.227  12.914  0.00  0.00    +0.000 A 
ATOM      3  C   UNL     1      42.787   5.680  12.658  0.00  0.00    +0.000 A 
ATOM      4  C   UNL     1      42.643   4.569  11.817  0.00  0.00    +0.000 A 
ATOM      5  C   UNL     1      43.772   3.991  11.254  0.00  0.00    +0.000 A 
ATOM      6  C   UNL     1      45.030   4.536  11.516  0.00  0.00    +0.000 A 
ENDROOT
BRANCH   1   7
ATOM      7  C   UNL     1      46.545   6.336  12.567  0.00  0.00    +0.000 C 
ATOM      8  F   UNL     1      46.421   7.450  13.349  0.00  0.00    +0.000 F 
ATOM      9  F   UNL     1      47.079   6.784  11.389  0.00  0.00    +0.000 F 
BRANCH   7  10
ATOM     10  C   UNL     1      47.570   5.392  13.233  0.00  0.00    +0.000 C 
BRANCH  10  15
ATOM     11  C   UNL     1      48.214   4.567  18.220  0.00  0.00    +0.000 A 
ATOM     12  C   UNL     1      48.851   5.434  17.345  0.00  0.00    +0.000 A 
ATOM     13  C   UNL     1      48.463   5.437  16.008  0.00  0.00    +0.000 A 
ATOM     14  C   UNL     1      47.466   4.570  15.564  0.00  0.00    +0.000 A 
ATOM     15  N   UNL     1      47.050   4.508  14.262  0.00  0.00    +0.000 N 
ATOM     16  N   UNL     1      46.843   3.730  16.411  0.00  0.00    +0.000 NA
ATOM     17  C   UNL     1      47.220   3.749  17.714  0.00  0.00    +0.000 A 
ATOM     18  H   UNL     1      46.363   3.796  14.041  0.00  0.00    +0.000 HD
BRANCH  11  20
ATOM     19  N   UNL     1      48.865   4.483  20.718  0.00  0.00    +0.000 NA
ATOM     20  C   UNL     1      48.570   4.516  19.599  0.00  0.00    +0.000 C 
ENDBRANCH  11  20
ENDBRANCH  10  15
ENDBRANCH   7  10
ENDBRANCH   1   7
BRANCH   5  21
ATOM     21  O   UNL     1      43.811   2.935  10.381  0.00  0.00    +0.000 OA
BRANCH  21  22
ATOM     22  C   UNL     1      44.997   2.670   9.613  0.00  0.00    +0.000 C 
ATOM     23  C   UNL     1      45.209   3.453   8.299  0.00  0.00    +0.000 C 
ATOM     24  N   UNL     1      45.501   2.194   7.579  0.00  0.00    +0.000 NA
ATOM     25  C   UNL     1      44.902   1.422   8.691  0.00  0.00    +0.000 C 
BRANCH  24  26
ATOM     26  C   UNL     1      46.960   1.936   7.513  0.00  0.00    +0.000 C 
BRANCH  26  27
ATOM     27  C   UNL     1      47.687   2.484   6.266  0.00  0.00    +0.000 C 
ATOM     28  F   UNL     1      46.892   3.230   5.468  0.00  0.00    +0.000 F 
ATOM     29  F   UNL     1      48.745   3.249   6.621  0.00  0.00    +0.000 F 
ATOM     30  F   UNL     1      48.164   1.462   5.515  0.00  0.00    +0.000 F 
ENDBRANCH  26  27
ENDBRANCH  24  26
ENDBRANCH  21  22
ENDBRANCH   5  21
TORSDOF 8
ENDMDL
MODEL 6
REMARK VINA RESULT:    -6.532      3.627      9.351
REMARK INTER + INTRA:         -10.629
REMARK INTER:                  -9.918
REMARK INTRA:                  -0.711
REMARK UNBOUND:                -1.042
REMARK  Name = 
REMARK  8 active torsions:
REMARK  status: ('A' for Active; 'I' for Inactive)
REMARK    1  A    between atoms: C_2  and  C_3
REMARK    2  A    between atoms: N_7  and  C_8
REMARK    3  A    between atoms: C_8  and  C_9
REMARK    4  A    between atoms: C_9  and  C_12
REMARK    5  A    between atoms: C_16  and  O_17
REMARK    6  A    between atoms: O_17  and  C_18
REMARK    7  A    between atoms: N_20  and  C_21
REMARK    8  A    between atoms: C_21  and  C_22
REMARK                            x       y       z     vdW  Elec       q    Type
REMARK                         _______ _______ _______ _____ _____    ______ ____
ROOT
ATOM      1  C   UNL     1      46.865   7.339  12.279  0.00  0.00    +0.000 A 
ATOM      2  C   UNL     1      46.210   8.567  12.130  0.00  0.00    +0.000 A 
ATOM      3  C   UNL     1      44.882   8.614  11.685  0.00  0.00    +0.000 A 
ATOM      4  C   UNL     1      44.186   7.437  11.382  0.00  0.00    +0.000 A 
ATOM      5  C   UNL     1      44.815   6.211  11.550  0.00  0.00    +0.000 A 
ATOM      6  C   UNL     1      46.136   6.170  11.998  0.00  0.00    +0.000 A 
ENDROOT
BRANCH   1   7
ATOM      7  C   UNL     1      48.332   7.327  12.689  0.00  0.00    +0.000 C 
ATOM      8  F   UNL     1      49.089   8.096  11.849  0.00  0.00    +0.000 F 
ATOM      9  F   UNL     1      48.856   6.067  12.589  0.00  0.00    +0.000 F 
BRANCH   7  10
ATOM     10  C   UNL     1      48.554   7.829  14.132  0.00  0.00    +0.000 C 
BRANCH  10  15
ATOM     11  C   UNL     1      50.838   5.316  17.931  0.00  0.00    +0.000 A 
ATOM     12  C   UNL     1      51.350   6.137  16.938  0.00  0.00    +0.000 A 
ATOM     13  C   UNL     1      50.470   6.692  16.013  0.00  0.00    +0.000 A 
ATOM     14  C   UNL     1      49.108   6.407  16.080  0.00  0.00    +0.000 A 
ATOM     15  N   UNL     1      48.192   6.904  15.192  0.00  0.00    +0.000 N 
ATOM     16  N   UNL     1      48.608   5.613  17.045  0.00  0.00    +0.000 NA
ATOM     17  C   UNL     1      49.473   5.092  17.949  0.00  0.00    +0.000 A 
ATOM     18  H   UNL     1      47.237   6.579  15.300  0.00  0.00    +0.000 HD
BRANCH  11  20
ATOM     19  N   UNL     1      52.381   4.238  19.701  0.00  0.00    +0.000 NA
ATOM     20  C   UNL     1      51.689   4.716  18.905  0.00  0.00    +0.000 C 
ENDBRANCH  11  20
ENDBRANCH  10  15
ENDBRANCH   7  10
ENDBRANCH   1   7
BRANCH   5  21
ATOM     21  O   UNL     1      44.301   4.973  11.262  0.00  0.00    +0.000 OA
BRANCH  21  22
ATOM     22  C   UNL     1      45.050   4.045  10.458  0.00  0.00    +0.000 C 
ATOM     23  C   UNL     1      45.277   4.384   8.968  0.00  0.00    +0.000 C 
ATOM     24  N   UNL     1      44.825   3.030   8.578  0.00  0.00    +0.000 NA
ATOM     25  C   UNL     1      44.220   2.848   9.915  0.00  0.00    +0.000 C 
BRANCH  24  26
ATOM     26  C   UNL     1      45.973   2.105   8.412  0.00  0.00    +0.000 C 
BRANCH  26  27
ATOM     27  C   UNL     1      46.768   2.245   7.096  0.00  0.00    +0.000 C 
ATOM     28  F   UNL     1      47.890   2.985   7.225  0.00  0.00    +0.000 F 
ATOM     29  F   UNL     1      47.130   1.032   6.619  0.00  0.00    +0.000 F 
ATOM     30  F   UNL     1      46.003   2.838   6.148  0.00  0.00    +0.000 F 
ENDBRANCH  26  27
ENDBRANCH  24  26
ENDBRANCH  21  22
ENDBRANCH   5  21
TORSDOF 8
ENDMDL
MODEL 7
REMARK VINA RESULT:    -6.452      3.860      8.440
REMARK INTER + INTRA:         -10.512
REMARK INTER:                  -9.442
REMARK INTRA:                  -1.070
REMARK UNBOUND:                -1.042
REMARK  Name = 
REMARK  8 active torsions:
REMARK  status: ('A' for Active; 'I' for Inactive)
REMARK    1  A    between atoms: C_2  and  C_3
REMARK    2  A    between atoms: N_7  and  C_8
REMARK    3  A    between atoms: C_8  and  C_9
REMARK    4  A    between atoms: C_9  and  C_12
REMARK    5  A    between atoms: C_16  and  O_17
REMARK    6  A    between atoms: O_17  and  C_18
REMARK    7  A    between atoms: N_20  and  C_21
REMARK    8  A    between atoms: C_21  and  C_22
REMARK                            x       y       z     vdW  Elec       q    Type
REMARK                         _______ _______ _______ _____ _____    ______ ____
ROOT
ATOM      1  C   UNL     1      46.808   9.269  12.131  0.00  0.00    +0.000 A 
ATOM      2  C   UNL     1      46.141  10.380  11.602  0.00  0.00    +0.000 A 
ATOM      3  C   UNL     1      44.807  10.275  11.186  0.00  0.00    +0.000 A 
ATOM      4  C   UNL     1      44.117   9.061  11.292  0.00  0.00    +0.000 A 
ATOM      5  C   UNL     1      44.759   7.959  11.839  0.00  0.00    +0.000 A 
ATOM      6  C   UNL     1      46.086   8.070  12.256  0.00  0.00    +0.000 A 
ENDROOT
BRANCH   1   7
ATOM      7  C   UNL     1      48.281   9.396  12.500  0.00  0.00    +0.000 C 
ATOM      8  F   UNL     1      48.445  10.098  13.661  0.00  0.00    +0.000 F 
ATOM      9  F   UNL     1      48.960  10.111  11.551  0.00  0.00    +0.000 F 
BRANCH   7  10
ATOM     10  C   UNL     1      48.977   8.027  12.662  0.00  0.00    +0.000 C 
BRANCH  10  15
ATOM     11  C   UNL     1      47.693   4.573  16.180  0.00  0.00    +0.000 A 
ATOM     12  C   UNL     1      47.173   4.836  14.922  0.00  0.00    +0.000 A 
ATOM     13  C   UNL     1      47.731   5.867  14.172  0.00  0.00    +0.000 A 
ATOM     14  C   UNL     1      48.779   6.625  14.690  0.00  0.00    +0.000 A 
ATOM     15  N   UNL     1      49.362   7.663  14.015  0.00  0.00    +0.000 N 
ATOM     16  N   UNL     1      49.288   6.370  15.910  0.00  0.00    +0.000 NA
ATOM     17  C   UNL     1      48.746   5.353  16.624  0.00  0.00    +0.000 A 
ATOM     18  H   UNL     1      50.073   8.184  14.516  0.00  0.00    +0.000 HD
BRANCH  11  20
ATOM     19  N   UNL     1      46.719   2.691  17.659  0.00  0.00    +0.000 NA
ATOM     20  C   UNL     1      47.160   3.532  16.997  0.00  0.00    +0.000 C 
ENDBRANCH  11  20
ENDBRANCH  10  15
ENDBRANCH   7  10
ENDBRANCH   1   7
BRANCH   5  21
ATOM     21  O   UNL     1      44.251   6.693  11.977  0.00  0.00    +0.000 OA
BRANCH  21  22
ATOM     22  C   UNL     1      44.839   5.592  11.261  0.00  0.00    +0.000 C 
ATOM     23  C   UNL     1      43.996   4.894  10.172  0.00  0.00    +0.000 C 
ATOM     24  N   UNL     1      44.321   3.571  10.749  0.00  0.00    +0.000 NA
ATOM     25  C   UNL     1      44.760   4.228  12.000  0.00  0.00    +0.000 C 
BRANCH  24  26
ATOM     26  C   UNL     1      45.485   2.955  10.066  0.00  0.00    +0.000 C 
BRANCH  26  27
ATOM     27  C   UNL     1      45.159   2.064   8.848  0.00  0.00    +0.000 C 
ATOM     28  F   UNL     1      44.177   1.168   9.089  0.00  0.00    +0.000 F 
ATOM     29  F   UNL     1      44.779   2.814   7.789  0.00  0.00    +0.000 F 
ATOM     30  F   UNL     1      46.257   1.365   8.472  0.00  0.00    +0.000 F 
ENDBRANCH  26  27
ENDBRANCH  24  26
ENDBRANCH  21  22
ENDBRANCH   5  21
TORSDOF 8
ENDMDL
MODEL 8
REMARK VINA RESULT:    -6.444      4.084      9.064
REMARK INTER + INTRA:         -10.500
REMARK INTER:                  -9.364
REMARK INTRA:                  -1.136
REMARK UNBOUND:                -1.042
REMARK  Name = 
REMARK  8 active torsions:
REMARK  status: ('A' for Active; 'I' for Inactive)
REMARK    1  A    between atoms: C_2  and  C_3
REMARK    2  A    between atoms: N_7  and  C_8
REMARK    3  A    between atoms: C_8  and  C_9
REMARK    4  A    between atoms: C_9  and  C_12
REMARK    5  A    between atoms: C_16  and  O_17
REMARK    6  A    between atoms: O_17  and  C_18
REMARK    7  A    between atoms: N_20  and  C_21
REMARK    8  A    between atoms: C_21  and  C_22
REMARK                            x       y       z     vdW  Elec       q    Type
REMARK                         _______ _______ _______ _____ _____    ______ ____
ROOT
ATOM      1  C   UNL     1      48.019   8.684  12.164  0.00  0.00    +0.000 A 
ATOM      2  C   UNL     1      47.436   9.935  11.929  0.00  0.00    +0.000 A 
ATOM      3  C   UNL     1      46.047  10.097  12.011  0.00  0.00    +0.000 A 
ATOM      4  C   UNL     1      45.217   9.015  12.329  0.00  0.00    +0.000 A 
ATOM      5  C   UNL     1      45.784   7.775  12.591  0.00  0.00    +0.000 A 
ATOM      6  C   UNL     1      47.169   7.620  12.513  0.00  0.00    +0.000 A 
ENDROOT
BRANCH   1   7
ATOM      7  C   UNL     1      49.524   8.524  11.989  0.00  0.00    +0.000 C 
ATOM      8  F   UNL     1      50.031   9.472  11.144  0.00  0.00    +0.000 F 
ATOM      9  F   UNL     1      49.821   7.325  11.400  0.00  0.00    +0.000 F 
BRANCH   7  10
ATOM     10  C   UNL     1      50.294   8.609  13.325  0.00  0.00    +0.000 C 
BRANCH  10  15
ATOM     11  C   UNL     1      48.539   6.975  17.821  0.00  0.00    +0.000 A 
ATOM     12  C   UNL     1      48.478   8.219  17.211  0.00  0.00    +0.000 A 
ATOM     13  C   UNL     1      49.063   8.376  15.958  0.00  0.00    +0.000 A 
ATOM     14  C   UNL     1      49.711   7.305  15.345  0.00  0.00    +0.000 A 
ATOM     15  N   UNL     1      50.322   7.395  14.124  0.00  0.00    +0.000 N 
ATOM     16  N   UNL     1      49.768   6.096  15.933  0.00  0.00    +0.000 NA
ATOM     17  C   UNL     1      49.180   5.952  17.147  0.00  0.00    +0.000 A 
ATOM     18  H   UNL     1      50.816   6.570  13.805  0.00  0.00    +0.000 HD
BRANCH  11  20
ATOM     19  N   UNL     1      47.487   6.565  20.145  0.00  0.00    +0.000 NA
ATOM     20  C   UNL     1      47.961   6.753  19.105  0.00  0.00    +0.000 C 
ENDBRANCH  11  20
ENDBRANCH  10  15
ENDBRANCH   7  10
ENDBRANCH   1   7
BRANCH   5  21
ATOM     21  O   UNL     1      45.123   6.608  12.873  0.00  0.00    +0.000 OA
BRANCH  21  22
ATOM     22  C   UNL     1      45.397   5.416  12.115  0.00  0.00    +0.000 C 
ATOM     23  C   UNL     1      45.182   5.455  10.586  0.00  0.00    +0.000 C 
ATOM     24  N   UNL     1      44.401   4.200  10.651  0.00  0.00    +0.000 NA
ATOM     25  C   UNL     1      44.242   4.376  12.111  0.00  0.00    +0.000 C 
BRANCH  24  26
ATOM     26  C   UNL     1      45.255   3.019  10.374  0.00  0.00    +0.000 C 
BRANCH  26  27
ATOM     27  C   UNL     1      45.017   2.317   9.020  0.00  0.00    +0.000 C 
ATOM     28  F   UNL     1      44.471   3.125   8.086  0.00  0.00    +0.000 F 
ATOM     29  F   UNL     1      46.177   1.833   8.516  0.00  0.00    +0.000 F 
ATOM     30  F   UNL     1      44.179   1.264   9.179  0.00  0.00    +0.000 F 
ENDBRANCH  26  27
ENDBRANCH  24  26
ENDBRANCH  21  22
ENDBRANCH   5  21
TORSDOF 8
ENDMDL
MODEL 9
REMARK VINA RESULT:    -5.990      3.645      7.951
REMARK INTER + INTRA:          -9.834
REMARK INTER:                  -8.209
REMARK INTRA:                  -1.625
REMARK UNBOUND:                -1.042
REMARK  Name = 
REMARK  8 active torsions:
REMARK  status: ('A' for Active; 'I' for Inactive)
REMARK    1  A    between atoms: C_2  and  C_3
REMARK    2  A    between atoms: N_7  and  C_8
REMARK    3  A    between atoms: C_8  and  C_9
REMARK    4  A    between atoms: C_9  and  C_12
REMARK    5  A    between atoms: C_16  and  O_17
REMARK    6  A    between atoms: O_17  and  C_18
REMARK    7  A    between atoms: N_20  and  C_21
REMARK    8  A    between atoms: C_21  and  C_22
REMARK                            x       y       z     vdW  Elec       q    Type
REMARK                         _______ _______ _______ _____ _____    ______ ____
ROOT
ATOM      1  C   UNL     1      48.149   4.530  17.988  0.00  0.00    +0.000 A 
ATOM      2  C   UNL     1      49.130   3.611  18.377  0.00  0.00    +0.000 A 
ATOM      3  C   UNL     1      49.479   2.546  17.536  0.00  0.00    +0.000 A 
ATOM      4  C   UNL     1      48.856   2.381  16.293  0.00  0.00    +0.000 A 
ATOM      5  C   UNL     1      47.899   3.299  15.884  0.00  0.00    +0.000 A 
ATOM      6  C   UNL     1      47.559   4.361  16.723  0.00  0.00    +0.000 A 
ENDROOT
BRANCH   1   7
ATOM      7  C   UNL     1      47.736   5.629  18.959  0.00  0.00    +0.000 C 
ATOM      8  F   UNL     1      47.872   5.223  20.257  0.00  0.00    +0.000 F 
ATOM      9  F   UNL     1      46.410   5.933  18.816  0.00  0.00    +0.000 F 
BRANCH   7  10
ATOM     10  C   UNL     1      48.551   6.928  18.773  0.00  0.00    +0.000 C 
BRANCH  10  15
ATOM     11  C   UNL     1      49.717   8.266  13.997  0.00  0.00    +0.000 A 
ATOM     12  C   UNL     1      50.334   7.392  14.880  0.00  0.00    +0.000 A 
ATOM     13  C   UNL     1      49.784   7.228  16.148  0.00  0.00    +0.000 A 
ATOM     14  C   UNL     1      48.648   7.945  16.520  0.00  0.00    +0.000 A 
ATOM     15  N   UNL     1      48.067   7.845  17.755  0.00  0.00    +0.000 N 
ATOM     16  N   UNL     1      48.046   8.791  15.664  0.00  0.00    +0.000 NA
ATOM     17  C   UNL     1      48.582   8.930  14.426  0.00  0.00    +0.000 A 
ATOM     18  H   UNL     1      47.283   8.461  17.936  0.00  0.00    +0.000 HD
BRANCH  11  20
ATOM     19  N   UNL     1      50.665   8.654  11.625  0.00  0.00    +0.000 NA
ATOM     20  C   UNL     1      50.236   8.479  12.686  0.00  0.00    +0.000 C 
ENDBRANCH  11  20
ENDBRANCH  10  15
ENDBRANCH   7  10
ENDBRANCH   1   7
BRANCH   5  21
ATOM     21  O   UNL     1      47.165   3.265  14.727  0.00  0.00    +0.000 OA
BRANCH  21  22
ATOM     22  C   UNL     1      46.402   4.414  14.316  0.00  0.00    +0.000 C 
ATOM     23  C   UNL     1      45.622   4.337  12.985  0.00  0.00    +0.000 C 
ATOM     24  N   UNL     1      46.189   5.636  12.563  0.00  0.00    +0.000 NA
ATOM     25  C   UNL     1      47.233   5.518  13.604  0.00  0.00    +0.000 C 
BRANCH  24  26
ATOM     26  C   UNL     1      45.273   6.757  12.889  0.00  0.00    +0.000 C 
BRANCH  26  27
ATOM     27  C   UNL     1      45.575   8.100  12.191  0.00  0.00    +0.000 C 
ATOM     28  F   UNL     1      44.785   8.338  11.122  0.00  0.00    +0.000 F 
ATOM     29  F   UNL     1      45.426   9.135  13.050  0.00  0.00    +0.000 F 
ATOM     30  F   UNL     1      46.858   8.123  11.754  0.00  0.00    +0.000 F 
ENDBRANCH  26  27
ENDBRANCH  24  26
ENDBRANCH  21  22
ENDBRANCH   5  21
TORSDOF 8
ENDMDL
