MODEL 1
REMARK VINA RESULT:    -8.408      0.000      0.000
REMARK INTER + INTRA:         -14.458
REMARK INTER:                 -13.077
REMARK INTRA:                  -1.380
REMARK UNBOUND:                -1.380
REMARK  Name = 
REMARK  13 active torsions:
REMARK  status: ('A' for Active; 'I' for Inactive)
REMARK    1  A    between atoms: C_1  and  C_2
REMARK    2  A    between atoms: C_2  and  C_3
REMARK    3  A    between atoms: C_2  and  C_4
REMARK    4  A    between atoms: N_6  and  C_7
REMARK    5  A    between atoms: C_9  and  O_10
REMARK    6  A    between atoms: O_10  and  C_11
REMARK    7  A    between atoms: C_11  and  C_12
REMARK    8  A    between atoms: C_12  and  C_13
REMARK    9  A    between atoms: C_13  and  C_14
REMARK   10  A    between atoms: C_13  and  O_15
REMARK   11  A    between atoms: C_13  and  C_16
REMARK   12  A    between atoms: C_19  and  C_20
REMARK   13  A    between atoms: C_26  and  C_27
REMARK                            x       y       z     vdW  Elec       q    Type
REMARK                         _______ _______ _______ _____ _____    ______ ____
ROOT
ATOM      1  C   UNL     1      48.308   6.538  14.807  0.00  0.00    +0.000 A 
ATOM      2  C   UNL     1      47.409   5.872  13.967  0.00  0.00    +0.000 A 
ATOM      3  C   UNL     1      46.837   4.640  14.312  0.00  0.00    +0.000 A 
ATOM      4  C   UNL     1      47.153   4.059  15.528  0.00  0.00    +0.000 A 
ATOM      5  C   UNL     1      48.057   4.682  16.397  0.00  0.00    +0.000 A 
ATOM      6  C   UNL     1      48.600   5.926  16.030  0.00  0.00    +0.000 A 
ENDROOT
BRANCH   1   9
ATOM      7  C   UNL     1      48.759   9.329  12.539  0.00  0.00    +0.000 C 
ATOM      8  C   UNL     1      48.169   8.885  13.905  0.00  0.00    +0.000 C 
ATOM      9  N   UNL     1      48.904   7.724  14.433  0.00  0.00    +0.000 N 
ATOM     10  C   UNL     1      50.364   7.895  14.449  0.00  0.00    +0.000 C 
ATOM     11  C   UNL     1      50.835   8.303  13.047  0.00  0.00    +0.000 C 
ATOM     12  O   UNL     1      50.190   9.510  12.620  0.00  0.00    +0.000 OA
BRANCH   7  14
ATOM     13  C   UNL     1      48.761  11.150  10.731  0.00  0.00    +0.000 C 
ATOM     14  C   UNL     1      48.125  10.646  12.032  0.00  0.00    +0.000 C 
ATOM     15  C   UNL     1      46.618  10.471  11.808  0.00  0.00    +0.000 C 
ENDBRANCH   7  14
ENDBRANCH   1   9
BRANCH   5  16
ATOM     16  C   UNL     1      48.494   4.029  17.678  0.00  0.00    +0.000 C 
ATOM     17  F   UNL     1      48.353   4.822  18.776  0.00  0.00    +0.000 F 
ATOM     18  F   UNL     1      47.781   2.897  17.946  0.00  0.00    +0.000 F 
ATOM     19  F   UNL     1      49.802   3.645  17.658  0.00  0.00    +0.000 F 
ENDBRANCH   5  16
BRANCH   3  20
ATOM     20  O   UNL     1      45.990   3.917  13.513  0.00  0.00    +0.000 OA
BRANCH  20  21
ATOM     21  C   UNL     1      44.788   4.586  13.123  0.00  0.00    +0.000 C 
BRANCH  21  22
ATOM     22  C   UNL     1      44.231   3.922  11.868  0.00  0.00    +0.000 C 
BRANCH  22  23
ATOM     23  C   UNL     1      44.461   4.763  10.596  0.00  0.00    +0.000 C 
ATOM     24  C   UNL     1      45.167   6.068  10.972  0.00  0.00    +0.000 C 
BRANCH  23  25
ATOM     25  C   UNL     1      45.241   4.054   9.475  0.00  0.00    +0.000 A 
ATOM     26  C   UNL     1      45.250   2.664   9.348  0.00  0.00    +0.000 A 
ATOM     27  C   UNL     1      45.971   2.069   8.310  0.00  0.00    +0.000 A 
ATOM     28  C   UNL     1      46.690   2.860   7.417  0.00  0.00    +0.000 A 
ATOM     29  C   UNL     1      46.631   4.233   7.608  0.00  0.00    +0.000 A 
ATOM     30  N   UNL     1      45.932   4.847   8.610  0.00  0.00    +0.000 NA
BRANCH  28  31
ATOM     31  C   UNL     1      47.472   2.189   6.345  0.00  0.00    +0.000 C 
ATOM     32  N   UNL     1      47.803   2.889   5.218  0.00  0.00    +0.000 N 
ATOM     33  O   UNL     1      47.824   1.027   6.462  0.00  0.00    +0.000 OA
ATOM     34  H   UNL     1      47.577   3.852   5.021  0.00  0.00    +0.000 HD
ATOM     35  H   UNL     1      48.358   2.392   4.531  0.00  0.00    +0.000 HD
ENDBRANCH  28  31
ENDBRANCH  23  25
BRANCH  23  36
ATOM     36  O   UNL     1      43.167   5.152  10.099  0.00  0.00    +0.000 OA
ATOM     37  H   UNL     1      42.565   5.074  10.867  0.00  0.00    +0.000 HD
ENDBRANCH  23  36
ENDBRANCH  22  23
ENDBRANCH  21  22
ENDBRANCH  20  21
ENDBRANCH   3  20
TORSDOF 10
ENDMDL
MODEL 2
REMARK VINA RESULT:    -8.219      2.912      4.707
REMARK INTER + INTRA:         -14.164
REMARK INTER:                 -12.892
REMARK INTRA:                  -1.272
REMARK UNBOUND:                -1.380
REMARK  Name = 
REMARK  13 active torsions:
REMARK  status: ('A' for Active; 'I' for Inactive)
REMARK    1  A    between atoms: C_1  and  C_2
REMARK    2  A    between atoms: C_2  and  C_3
REMARK    3  A    between atoms: C_2  and  C_4
REMARK    4  A    between atoms: N_6  and  C_7
REMARK    5  A    between atoms: C_9  and  O_10
REMARK    6  A    between atoms: O_10  and  C_11
REMARK    7  A    between atoms: C_11  and  C_12
REMARK    8  A    between atoms: C_12  and  C_13
REMARK    9  A    between atoms: C_13  and  C_14
REMARK   10  A    between atoms: C_13  and  O_15
REMARK   11  A    between atoms: C_13  and  C_16
REMARK   12  A    between atoms: C_19  and  C_20
REMARK   13  A    between atoms: C_26  and  C_27
REMARK                            x       y       z     vdW  Elec       q    Type
REMARK                         _______ _______ _______ _____ _____    ______ ____
ROOT
ATOM      1  C   UNL     1      48.122   5.126  16.200  0.00  0.00    +0.000 A 
ATOM      2  C   UNL     1      47.180   4.333  15.536  0.00  0.00    +0.000 A 
ATOM      3  C   UNL     1      46.718   4.639  14.249  0.00  0.00    +0.000 A 
ATOM      4  C   UNL     1      47.213   5.755  13.596  0.00  0.00    +0.000 A 
ATOM      5  C   UNL     1      48.147   6.587  14.224  0.00  0.00    +0.000 A 
ATOM      6  C   UNL     1      48.605   6.242  15.508  0.00  0.00    +0.000 A 
ENDROOT
BRANCH   1   9
ATOM      7  C   UNL     1      49.373   6.100  19.458  0.00  0.00    +0.000 C 
ATOM      8  C   UNL     1      48.125   5.621  18.668  0.00  0.00    +0.000 C 
ATOM      9  N   UNL     1      48.529   4.843  17.486  0.00  0.00    +0.000 N 
ATOM     10  C   UNL     1      49.492   3.770  17.773  0.00  0.00    +0.000 C 
ATOM     11  C   UNL     1      50.690   4.362  18.527  0.00  0.00    +0.000 C 
ATOM     12  O   UNL     1      50.269   5.002  19.739  0.00  0.00    +0.000 OA
BRANCH   7  14
ATOM     13  C   UNL     1      49.819   8.032  21.087  0.00  0.00    +0.000 C 
ATOM     14  C   UNL     1      48.990   6.776  20.797  0.00  0.00    +0.000 C 
ATOM     15  C   UNL     1      47.504   7.153  20.808  0.00  0.00    +0.000 C 
ENDBRANCH   7  14
ENDBRANCH   1   9
BRANCH   5  16
ATOM     16  C   UNL     1      48.628   7.857  13.580  0.00  0.00    +0.000 C 
ATOM     17  F   UNL     1      48.449   7.892  12.230  0.00  0.00    +0.000 F 
ATOM     18  F   UNL     1      47.980   8.955  14.067  0.00  0.00    +0.000 F 
ATOM     19  F   UNL     1      49.954   8.088  13.789  0.00  0.00    +0.000 F 
ENDBRANCH   5  16
BRANCH   3  20
ATOM     20  O   UNL     1      45.764   3.929  13.568  0.00  0.00    +0.000 OA
BRANCH  20  21
ATOM     21  C   UNL     1      44.680   4.699  13.041  0.00  0.00    +0.000 C 
BRANCH  21  22
ATOM     22  C   UNL     1      44.156   4.024  11.777  0.00  0.00    +0.000 C 
BRANCH  22  23
ATOM     23  C   UNL     1      44.433   4.848  10.504  0.00  0.00    +0.000 C 
ATOM     24  C   UNL     1      45.158   6.142  10.884  0.00  0.00    +0.000 C 
BRANCH  23  25
ATOM     25  C   UNL     1      45.223   4.113   9.407  0.00  0.00    +0.000 A 
ATOM     26  C   UNL     1      45.246   2.720   9.322  0.00  0.00    +0.000 A 
ATOM     27  C   UNL     1      45.976   2.100   8.306  0.00  0.00    +0.000 A 
ATOM     28  C   UNL     1      46.689   2.871   7.390  0.00  0.00    +0.000 A 
ATOM     29  C   UNL     1      46.617   4.248   7.539  0.00  0.00    +0.000 A 
ATOM     30  N   UNL     1      45.909   4.886   8.519  0.00  0.00    +0.000 NA
BRANCH  28  31
ATOM     31  C   UNL     1      47.480   2.174   6.342  0.00  0.00    +0.000 C 
ATOM     32  N   UNL     1      47.826   2.849   5.203  0.00  0.00    +0.000 N 
ATOM     33  O   UNL     1      47.828   1.014   6.487  0.00  0.00    +0.000 OA
ATOM     34  H   UNL     1      47.604   3.807   4.984  0.00  0.00    +0.000 HD
ATOM     35  H   UNL     1      48.386   2.335   4.533  0.00  0.00    +0.000 HD
ENDBRANCH  28  31
ENDBRANCH  23  25
BRANCH  23  36
ATOM     36  O   UNL     1      43.159   5.260   9.974  0.00  0.00    +0.000 OA
ATOM     37  H   UNL     1      43.252   6.218   9.801  0.00  0.00    +0.000 HD
ENDBRANCH  23  36
ENDBRANCH  22  23
ENDBRANCH  21  22
ENDBRANCH  20  21
ENDBRANCH   3  20
TORSDOF 10
ENDMDL
MODEL 3
REMARK VINA RESULT:    -8.184      2.964      4.984
REMARK INTER + INTRA:         -14.110
REMARK INTER:                 -13.012
REMARK INTRA:                  -1.098
REMARK UNBOUND:                -1.380
REMARK  Name = 
REMARK  13 active torsions:
REMARK  status: ('A' for Active; 'I' for Inactive)
REMARK    1  A    between atoms: C_1  and  C_2
REMARK    2  A    between atoms: C_2  and  C_3
REMARK    3  A    between atoms: C_2  and  C_4
REMARK    4  A    between atoms: N_6  and  C_7
REMARK    5  A    between atoms: C_9  and  O_10
REMARK    6  A    between atoms: O_10  and  C_11
REMARK    7  A    between atoms: C_11  and  C_12
REMARK    8  A    between atoms: C_12  and  C_13
REMARK    9  A    between atoms: C_13  and  C_14
REMARK   10  A    between atoms: C_13  and  O_15
REMARK   11  A    between atoms: C_13  and  C_16
REMARK   12  A    between atoms: C_19  and  C_20
REMARK   13  A    between atoms: C_26  and  C_27
REMARK                            x       y       z     vdW  Elec       q    Type
REMARK                         _______ _______ _______ _____ _____    ______ ____
ROOT
ATOM      1  C   UNL     1      48.480   5.799  15.617  0.00  0.00    +0.000 A 
ATOM      2  C   UNL     1      47.430   4.938  15.280  0.00  0.00    +0.000 A 
ATOM      3  C   UNL     1      46.840   4.941  14.009  0.00  0.00    +0.000 A 
ATOM      4  C   UNL     1      47.313   5.811  13.041  0.00  0.00    +0.000 A 
ATOM      5  C   UNL     1      48.353   6.701  13.335  0.00  0.00    +0.000 A 
ATOM      6  C   UNL     1      48.937   6.661  14.614  0.00  0.00    +0.000 A 
ENDROOT
BRANCH   1   9
ATOM      7  C   UNL     1      50.469   4.369  18.288  0.00  0.00    +0.000 C 
ATOM      8  C   UNL     1      50.413   5.473  17.198  0.00  0.00    +0.000 C 
ATOM      9  N   UNL     1      49.017   5.822  16.887  0.00  0.00    +0.000 N 
ATOM     10  C   UNL     1      48.194   6.118  18.069  0.00  0.00    +0.000 C 
ATOM     11  C   UNL     1      48.304   4.952  19.059  0.00  0.00    +0.000 C 
ATOM     12  O   UNL     1      49.669   4.724  19.437  0.00  0.00    +0.000 OA
BRANCH   7  14
ATOM     13  C   UNL     1      52.552   2.888  18.063  0.00  0.00    +0.000 C 
ATOM     14  C   UNL     1      51.915   4.093  18.764  0.00  0.00    +0.000 C 
ATOM     15  C   UNL     1      52.804   5.322  18.536  0.00  0.00    +0.000 C 
ENDBRANCH   7  14
ENDBRANCH   1   9
BRANCH   5  16
ATOM     16  C   UNL     1      48.820   7.723  12.337  0.00  0.00    +0.000 C 
ATOM     17  F   UNL     1      50.175   7.801  12.223  0.00  0.00    +0.000 F 
ATOM     18  F   UNL     1      48.358   7.460  11.080  0.00  0.00    +0.000 F 
ATOM     19  F   UNL     1      48.395   8.984  12.631  0.00  0.00    +0.000 F 
ENDBRANCH   5  16
BRANCH   3  20
ATOM     20  O   UNL     1      45.781   4.158  13.633  0.00  0.00    +0.000 OA
BRANCH  20  21
ATOM     21  C   UNL     1      44.655   4.856  13.096  0.00  0.00    +0.000 C 
BRANCH  21  22
ATOM     22  C   UNL     1      44.122   4.093  11.889  0.00  0.00    +0.000 C 
BRANCH  22  23
ATOM     23  C   UNL     1      44.399   4.817  10.556  0.00  0.00    +0.000 C 
ATOM     24  C   UNL     1      45.168   6.112  10.833  0.00  0.00    +0.000 C 
BRANCH  23  25
ATOM     25  C   UNL     1      45.147   3.984   9.501  0.00  0.00    +0.000 A 
ATOM     26  C   UNL     1      45.144   2.589   9.526  0.00  0.00    +0.000 A 
ATOM     27  C   UNL     1      45.836   1.877   8.543  0.00  0.00    +0.000 A 
ATOM     28  C   UNL     1      46.538   2.560   7.553  0.00  0.00    +0.000 A 
ATOM     29  C   UNL     1      46.493   3.946   7.594  0.00  0.00    +0.000 A 
ATOM     30  N   UNL     1      45.823   4.672   8.539  0.00  0.00    +0.000 NA
BRANCH  28  31
ATOM     31  C   UNL     1      47.290   1.769   6.542  0.00  0.00    +0.000 C 
ATOM     32  N   UNL     1      48.199   2.399   5.738  0.00  0.00    +0.000 N 
ATOM     33  O   UNL     1      47.109   0.568   6.427  0.00  0.00    +0.000 OA
ATOM     34  H   UNL     1      48.436   3.379   5.754  0.00  0.00    +0.000 HD
ATOM     35  H   UNL     1      48.701   1.809   5.085  0.00  0.00    +0.000 HD
ENDBRANCH  28  31
ENDBRANCH  23  25
BRANCH  23  36
ATOM     36  O   UNL     1      43.128   5.229  10.019  0.00  0.00    +0.000 OA
ATOM     37  H   UNL     1      42.746   4.422   9.620  0.00  0.00    +0.000 HD
ENDBRANCH  23  36
ENDBRANCH  22  23
ENDBRANCH  21  22
ENDBRANCH  20  21
ENDBRANCH   3  20
TORSDOF 10
ENDMDL
MODEL 4
REMARK VINA RESULT:    -7.849      2.125      2.944
REMARK INTER + INTRA:         -13.589
REMARK INTER:                 -12.439
REMARK INTRA:                  -1.150
REMARK UNBOUND:                -1.380
REMARK  Name = 
REMARK  13 active torsions:
REMARK  status: ('A' for Active; 'I' for Inactive)
REMARK    1  A    between atoms: C_1  and  C_2
REMARK    2  A    between atoms: C_2  and  C_3
REMARK    3  A    between atoms: C_2  and  C_4
REMARK    4  A    between atoms: N_6  and  C_7
REMARK    5  A    between atoms: C_9  and  O_10
REMARK    6  A    between atoms: O_10  and  C_11
REMARK    7  A    between atoms: C_11  and  C_12
REMARK    8  A    between atoms: C_12  and  C_13
REMARK    9  A    between atoms: C_13  and  C_14
REMARK   10  A    between atoms: C_13  and  O_15
REMARK   11  A    between atoms: C_13  and  C_16
REMARK   12  A    between atoms: C_19  and  C_20
REMARK   13  A    between atoms: C_26  and  C_27
REMARK                            x       y       z     vdW  Elec       q    Type
REMARK                         _______ _______ _______ _____ _____    ______ ____
ROOT
ATOM      1  C   UNL     1      48.477   6.567  15.692  0.00  0.00    +0.000 A 
ATOM      2  C   UNL     1      47.869   6.369  14.447  0.00  0.00    +0.000 A 
ATOM      3  C   UNL     1      47.275   5.151  14.091  0.00  0.00    +0.000 A 
ATOM      4  C   UNL     1      47.269   4.105  14.999  0.00  0.00    +0.000 A 
ATOM      5  C   UNL     1      47.876   4.251  16.251  0.00  0.00    +0.000 A 
ATOM      6  C   UNL     1      48.448   5.492  16.586  0.00  0.00    +0.000 A 
ENDROOT
BRANCH   1   9
ATOM      7  C   UNL     1      48.525   9.878  17.166  0.00  0.00    +0.000 C 
ATOM      8  C   UNL     1      49.007   8.410  17.324  0.00  0.00    +0.000 C 
ATOM      9  N   UNL     1      49.104   7.753  16.010  0.00  0.00    +0.000 N 
ATOM     10  C   UNL     1      49.863   8.519  15.011  0.00  0.00    +0.000 C 
ATOM     11  C   UNL     1      49.284   9.937  14.920  0.00  0.00    +0.000 C 
ATOM     12  O   UNL     1      49.324  10.590  16.196  0.00  0.00    +0.000 OA
BRANCH   7  14
ATOM     13  C   UNL     1      47.312  10.449  19.354  0.00  0.00    +0.000 C 
ATOM     14  C   UNL     1      48.572  10.653  18.504  0.00  0.00    +0.000 C 
ATOM     15  C   UNL     1      49.795  10.236  19.330  0.00  0.00    +0.000 C 
ENDBRANCH   7  14
ENDBRANCH   1   9
BRANCH   5  16
ATOM     16  C   UNL     1      47.973   3.104  17.218  0.00  0.00    +0.000 C 
ATOM     17  F   UNL     1      48.620   2.015  16.716  0.00  0.00    +0.000 F 
ATOM     18  F   UNL     1      48.651   3.446  18.352  0.00  0.00    +0.000 F 
ATOM     19  F   UNL     1      46.756   2.658  17.635  0.00  0.00    +0.000 F 
ENDBRANCH   5  16
BRANCH   3  20
ATOM     20  O   UNL     1      46.707   4.881  12.874  0.00  0.00    +0.000 OA
BRANCH  20  21
ATOM     21  C   UNL     1      45.292   5.066  12.797  0.00  0.00    +0.000 C 
BRANCH  21  22
ATOM     22  C   UNL     1      44.631   3.732  12.464  0.00  0.00    +0.000 C 
BRANCH  22  23
ATOM     23  C   UNL     1      43.901   3.752  11.106  0.00  0.00    +0.000 C 
ATOM     24  C   UNL     1      43.276   5.132  10.886  0.00  0.00    +0.000 C 
BRANCH  23  25
ATOM     25  C   UNL     1      44.766   3.375   9.891  0.00  0.00    +0.000 A 
ATOM     26  C   UNL     1      45.012   2.045   9.545  0.00  0.00    +0.000 A 
ATOM     27  C   UNL     1      45.801   1.754   8.431  0.00  0.00    +0.000 A 
ATOM     28  C   UNL     1      46.352   2.788   7.677  0.00  0.00    +0.000 A 
ATOM     29  C   UNL     1      46.062   4.083   8.083  0.00  0.00    +0.000 A 
ATOM     30  N   UNL     1      45.291   4.401   9.165  0.00  0.00    +0.000 NA
BRANCH  28  31
ATOM     31  C   UNL     1      47.214   2.440   6.517  0.00  0.00    +0.000 C 
ATOM     32  N   UNL     1      47.233   3.262   5.424  0.00  0.00    +0.000 N 
ATOM     33  O   UNL     1      47.906   1.435   6.531  0.00  0.00    +0.000 OA
ATOM     34  H   UNL     1      46.715   4.119   5.310  0.00  0.00    +0.000 HD
ATOM     35  H   UNL     1      47.857   2.990   4.673  0.00  0.00    +0.000 HD
ENDBRANCH  28  31
ENDBRANCH  23  25
BRANCH  23  36
ATOM     36  O   UNL     1      42.793   2.837  11.201  0.00  0.00    +0.000 OA
ATOM     37  H   UNL     1      43.124   2.091  11.740  0.00  0.00    +0.000 HD
ENDBRANCH  23  36
ENDBRANCH  22  23
ENDBRANCH  21  22
ENDBRANCH  20  21
ENDBRANCH   3  20
TORSDOF 10
ENDMDL
MODEL 5
REMARK VINA RESULT:    -7.839      3.087      5.026
REMARK INTER + INTRA:         -13.573
REMARK INTER:                 -12.377
REMARK INTRA:                  -1.196
REMARK UNBOUND:                -1.380
REMARK  Name = 
REMARK  13 active torsions:
REMARK  status: ('A' for Active; 'I' for Inactive)
REMARK    1  A    between atoms: C_1  and  C_2
REMARK    2  A    between atoms: C_2  and  C_3
REMARK    3  A    between atoms: C_2  and  C_4
REMARK    4  A    between atoms: N_6  and  C_7
REMARK    5  A    between atoms: C_9  and  O_10
REMARK    6  A    between atoms: O_10  and  C_11
REMARK    7  A    between atoms: C_11  and  C_12
REMARK    8  A    between atoms: C_12  and  C_13
REMARK    9  A    between atoms: C_13  and  C_14
REMARK   10  A    between atoms: C_13  and  O_15
REMARK   11  A    between atoms: C_13  and  C_16
REMARK   12  A    between atoms: C_19  and  C_20
REMARK   13  A    between atoms: C_26  and  C_27
REMARK                            x       y       z     vdW  Elec       q    Type
REMARK                         _______ _______ _______ _____ _____    ______ ____
ROOT
ATOM      1  C   UNL     1      48.398   6.248  14.709  0.00  0.00    +0.000 A 
ATOM      2  C   UNL     1      47.217   5.914  14.037  0.00  0.00    +0.000 A 
ATOM      3  C   UNL     1      46.957   6.338  12.727  0.00  0.00    +0.000 A 
ATOM      4  C   UNL     1      47.899   7.102  12.058  0.00  0.00    +0.000 A 
ATOM      5  C   UNL     1      49.090   7.472  12.694  0.00  0.00    +0.000 A 
ATOM      6  C   UNL     1      49.330   7.016  14.003  0.00  0.00    +0.000 A 
ENDROOT
BRANCH   1   9
ATOM      7  C   UNL     1      50.535   5.102  17.401  0.00  0.00    +0.000 C 
ATOM      8  C   UNL     1      49.764   6.318  16.822  0.00  0.00    +0.000 C 
ATOM      9  N   UNL     1      48.618   5.868  16.016  0.00  0.00    +0.000 N 
ATOM     10  C   UNL     1      47.754   4.891  16.693  0.00  0.00    +0.000 C 
ATOM     11  C   UNL     1      48.615   3.726  17.196  0.00  0.00    +0.000 C 
ATOM     12  O   UNL     1      49.644   4.191  18.081  0.00  0.00    +0.000 OA
BRANCH   7  14
ATOM     13  C   UNL     1      51.214   6.690  19.299  0.00  0.00    +0.000 C 
ATOM     14  C   UNL     1      51.644   5.533  18.391  0.00  0.00    +0.000 C 
ATOM     15  C   UNL     1      52.077   4.352  19.269  0.00  0.00    +0.000 C 
ENDBRANCH   7  14
ENDBRANCH   1   9
BRANCH   5  16
ATOM     16  C   UNL     1      50.086   8.382  12.031  0.00  0.00    +0.000 C 
ATOM     17  F   UNL     1      49.568   9.583  11.652  0.00  0.00    +0.000 F 
ATOM     18  F   UNL     1      51.137   8.675  12.851  0.00  0.00    +0.000 F 
ATOM     19  F   UNL     1      50.634   7.839  10.908  0.00  0.00    +0.000 F 
ENDBRANCH   5  16
BRANCH   3  20
ATOM     20  O   UNL     1      45.802   6.084  12.034  0.00  0.00    +0.000 OA
BRANCH  20  21
ATOM     21  C   UNL     1      44.764   5.442  12.778  0.00  0.00    +0.000 C 
BRANCH  21  22
ATOM     22  C   UNL     1      44.689   3.975  12.368  0.00  0.00    +0.000 C 
BRANCH  22  23
ATOM     23  C   UNL     1      43.921   3.764  11.047  0.00  0.00    +0.000 C 
ATOM     24  C   UNL     1      43.092   5.013  10.737  0.00  0.00    +0.000 C 
BRANCH  23  25
ATOM     25  C   UNL     1      44.794   3.406   9.832  0.00  0.00    +0.000 A 
ATOM     26  C   UNL     1      45.350   4.386   9.009  0.00  0.00    +0.000 A 
ATOM     27  C   UNL     1      46.138   4.009   7.919  0.00  0.00    +0.000 A 
ATOM     28  C   UNL     1      46.356   2.660   7.649  0.00  0.00    +0.000 A 
ATOM     29  C   UNL     1      45.771   1.746   8.513  0.00  0.00    +0.000 A 
ATOM     30  N   UNL     1      44.998   2.081   9.589  0.00  0.00    +0.000 NA
BRANCH  28  31
ATOM     31  C   UNL     1      47.174   2.297   6.462  0.00  0.00    +0.000 C 
ATOM     32  N   UNL     1      47.170   3.118   5.368  0.00  0.00    +0.000 N 
ATOM     33  O   UNL     1      47.849   1.282   6.454  0.00  0.00    +0.000 OA
ATOM     34  H   UNL     1      46.662   3.984   5.269  0.00  0.00    +0.000 HD
ATOM     35  H   UNL     1      47.765   2.836   4.597  0.00  0.00    +0.000 HD
ENDBRANCH  28  31
ENDBRANCH  23  25
BRANCH  23  36
ATOM     36  O   UNL     1      42.964   2.711  11.270  0.00  0.00    +0.000 OA
ATOM     37  H   UNL     1      43.479   1.882  11.208  0.00  0.00    +0.000 HD
ENDBRANCH  23  36
ENDBRANCH  22  23
ENDBRANCH  21  22
ENDBRANCH  20  21
ENDBRANCH   3  20
TORSDOF 10
ENDMDL
MODEL 6
REMARK VINA RESULT:    -7.796      3.203      4.985
REMARK INTER + INTRA:         -13.507
REMARK INTER:                 -12.319
REMARK INTRA:                  -1.187
REMARK UNBOUND:                -1.380
REMARK  Name = 
REMARK  13 active torsions:
REMARK  status: ('A' for Active; 'I' for Inactive)
REMARK    1  A    between atoms: C_1  and  C_2
REMARK    2  A    between atoms: C_2  and  C_3
REMARK    3  A    between atoms: C_2  and  C_4
REMARK    4  A    between atoms: N_6  and  C_7
REMARK    5  A    between atoms: C_9  and  O_10
REMARK    6  A    between atoms: O_10  and  C_11
REMARK    7  A    between atoms: C_11  and  C_12
REMARK    8  A    between atoms: C_12  and  C_13
REMARK    9  A    between atoms: C_13  and  C_14
REMARK   10  A    between atoms: C_13  and  O_15
REMARK   11  A    between atoms: C_13  and  C_16
REMARK   12  A    between atoms: C_19  and  C_20
REMARK   13  A    between atoms: C_26  and  C_27
REMARK                            x       y       z     vdW  Elec       q    Type
REMARK                         _______ _______ _______ _____ _____    ______ ____
ROOT
ATOM      1  C   UNL     1      48.783   6.956  14.565  0.00  0.00    +0.000 A 
ATOM      2  C   UNL     1      47.865   6.093  13.957  0.00  0.00    +0.000 A 
ATOM      3  C   UNL     1      47.357   6.329  12.672  0.00  0.00    +0.000 A 
ATOM      4  C   UNL     1      47.781   7.441  11.965  0.00  0.00    +0.000 A 
ATOM      5  C   UNL     1      48.688   8.340  12.537  0.00  0.00    +0.000 A 
ATOM      6  C   UNL     1      49.194   8.067  13.821  0.00  0.00    +0.000 A 
ENDROOT
BRANCH   1   9
ATOM      7  C   UNL     1      48.247   6.346  18.097  0.00  0.00    +0.000 C 
ATOM      8  C   UNL     1      48.694   5.712  16.753  0.00  0.00    +0.000 C 
ATOM      9  N   UNL     1      49.236   6.741  15.850  0.00  0.00    +0.000 N 
ATOM     10  C   UNL     1      50.257   7.602  16.465  0.00  0.00    +0.000 C 
ATOM     11  C   UNL     1      49.696   8.193  17.765  0.00  0.00    +0.000 C 
ATOM     12  O   UNL     1      49.297   7.156  18.670  0.00  0.00    +0.000 OA
BRANCH   7  14
ATOM     13  C   UNL     1      48.657   3.991  19.029  0.00  0.00    +0.000 C 
ATOM     14  C   UNL     1      47.830   5.277  19.134  0.00  0.00    +0.000 C 
ATOM     15  C   UNL     1      47.954   5.827  20.561  0.00  0.00    +0.000 C 
ENDBRANCH   7  14
ENDBRANCH   1   9
BRANCH   5  16
ATOM     16  C   UNL     1      49.090   9.607  11.835  0.00  0.00    +0.000 C 
ATOM     17  F   UNL     1      49.450  10.614  12.679  0.00  0.00    +0.000 F 
ATOM     18  F   UNL     1      50.160   9.417  11.009  0.00  0.00    +0.000 F 
ATOM     19  F   UNL     1      48.101  10.113  11.047  0.00  0.00    +0.000 F 
ENDBRANCH   5  16
BRANCH   3  20
ATOM     20  O   UNL     1      46.423   5.548  12.043  0.00  0.00    +0.000 OA
BRANCH  20  21
ATOM     21  C   UNL     1      45.242   5.268  12.798  0.00  0.00    +0.000 C 
BRANCH  21  22
ATOM     22  C   UNL     1      44.734   3.877  12.434  0.00  0.00    +0.000 C 
BRANCH  22  23
ATOM     23  C   UNL     1      43.981   3.852  11.088  0.00  0.00    +0.000 C 
ATOM     24  C   UNL     1      43.358   5.226  10.829  0.00  0.00    +0.000 C 
BRANCH  23  25
ATOM     25  C   UNL     1      44.825   3.427   9.874  0.00  0.00    +0.000 A 
ATOM     26  C   UNL     1      45.052   2.085   9.567  0.00  0.00    +0.000 A 
ATOM     27  C   UNL     1      45.823   1.751   8.451  0.00  0.00    +0.000 A 
ATOM     28  C   UNL     1      46.373   2.755   7.658  0.00  0.00    +0.000 A 
ATOM     29  C   UNL     1      46.102   4.064   8.026  0.00  0.00    +0.000 A 
ATOM     30  N   UNL     1      45.349   4.425   9.109  0.00  0.00    +0.000 NA
BRANCH  28  31
ATOM     31  C   UNL     1      47.215   2.361   6.497  0.00  0.00    +0.000 C 
ATOM     32  N   UNL     1      47.235   3.154   5.383  0.00  0.00    +0.000 N 
ATOM     33  O   UNL     1      47.888   1.344   6.529  0.00  0.00    +0.000 OA
ATOM     34  H   UNL     1      46.731   4.017   5.252  0.00  0.00    +0.000 HD
ATOM     35  H   UNL     1      47.845   2.852   4.632  0.00  0.00    +0.000 HD
ENDBRANCH  28  31
ENDBRANCH  23  25
BRANCH  23  36
ATOM     36  O   UNL     1      42.872   2.945  11.234  0.00  0.00    +0.000 OA
ATOM     37  H   UNL     1      42.488   3.150  12.110  0.00  0.00    +0.000 HD
ENDBRANCH  23  36
ENDBRANCH  22  23
ENDBRANCH  21  22
ENDBRANCH  20  21
ENDBRANCH   3  20
TORSDOF 10
ENDMDL
MODEL 7
REMARK VINA RESULT:    -7.651      3.688      4.667
REMARK INTER + INTRA:         -13.281
REMARK INTER:                 -11.905
REMARK INTRA:                  -1.376
REMARK UNBOUND:                -1.380
REMARK  Name = 
REMARK  13 active torsions:
REMARK  status: ('A' for Active; 'I' for Inactive)
REMARK    1  A    between atoms: C_1  and  C_2
REMARK    2  A    between atoms: C_2  and  C_3
REMARK    3  A    between atoms: C_2  and  C_4
REMARK    4  A    between atoms: N_6  and  C_7
REMARK    5  A    between atoms: C_9  and  O_10
REMARK    6  A    between atoms: O_10  and  C_11
REMARK    7  A    between atoms: C_11  and  C_12
REMARK    8  A    between atoms: C_12  and  C_13
REMARK    9  A    between atoms: C_13  and  C_14
REMARK   10  A    between atoms: C_13  and  O_15
REMARK   11  A    between atoms: C_13  and  C_16
REMARK   12  A    between atoms: C_19  and  C_20
REMARK   13  A    between atoms: C_26  and  C_27
REMARK                            x       y       z     vdW  Elec       q    Type
REMARK                         _______ _______ _______ _____ _____    ______ ____
ROOT
ATOM      1  C   UNL     1      47.973   8.611  12.482  0.00  0.00    +0.000 A 
ATOM      2  C   UNL     1      47.523   7.368  12.943  0.00  0.00    +0.000 A 
ATOM      3  C   UNL     1      46.171   7.000  12.900  0.00  0.00    +0.000 A 
ATOM      4  C   UNL     1      45.242   7.881  12.375  0.00  0.00    +0.000 A 
ATOM      5  C   UNL     1      45.642   9.141  11.914  0.00  0.00    +0.000 A 
ATOM      6  C   UNL     1      47.008   9.474  11.953  0.00  0.00    +0.000 A 
ENDROOT
BRANCH   1   9
ATOM      7  C   UNL     1      51.491   8.164  11.739  0.00  0.00    +0.000 C 
ATOM      8  C   UNL     1      50.228   9.014  11.437  0.00  0.00    +0.000 C 
ATOM      9  N   UNL     1      49.297   8.981  12.578  0.00  0.00    +0.000 N 
ATOM     10  C   UNL     1      49.922   9.292  13.872  0.00  0.00    +0.000 C 
ATOM     11  C   UNL     1      51.137   8.377  14.074  0.00  0.00    +0.000 C 
ATOM     12  O   UNL     1      52.081   8.532  13.006  0.00  0.00    +0.000 OA
BRANCH   7  14
ATOM     13  C   UNL     1      52.512   7.182   9.600  0.00  0.00    +0.000 C 
ATOM     14  C   UNL     1      52.567   8.309  10.637  0.00  0.00    +0.000 C 
ATOM     15  C   UNL     1      52.423   9.652   9.912  0.00  0.00    +0.000 C 
ENDBRANCH   7  14
ENDBRANCH   1   9
BRANCH   5  16
ATOM     16  C   UNL     1      44.644  10.156  11.431  0.00  0.00    +0.000 C 
ATOM     17  F   UNL     1      43.619  10.376  12.299  0.00  0.00    +0.000 F 
ATOM     18  F   UNL     1      45.216  11.376  11.218  0.00  0.00    +0.000 F 
ATOM     19  F   UNL     1      44.065   9.808  10.247  0.00  0.00    +0.000 F 
ENDBRANCH   5  16
BRANCH   3  20
ATOM     20  O   UNL     1      45.664   5.820  13.378  0.00  0.00    +0.000 OA
BRANCH  20  21
ATOM     21  C   UNL     1      45.796   4.693  12.507  0.00  0.00    +0.000 C 
BRANCH  21  22
ATOM     22  C   UNL     1      44.523   3.857  12.575  0.00  0.00    +0.000 C 
BRANCH  22  23
ATOM     23  C   UNL     1      43.757   3.829  11.238  0.00  0.00    +0.000 C 
ATOM     24  C   UNL     1      43.072   5.181  11.017  0.00  0.00    +0.000 C 
BRANCH  23  25
ATOM     25  C   UNL     1      44.604   3.470  10.005  0.00  0.00    +0.000 A 
ATOM     26  C   UNL     1      45.077   4.445   9.126  0.00  0.00    +0.000 A 
ATOM     27  C   UNL     1      45.846   4.068   8.022  0.00  0.00    +0.000 A 
ATOM     28  C   UNL     1      46.124   2.722   7.794  0.00  0.00    +0.000 A 
ATOM     29  C   UNL     1      45.620   1.813   8.711  0.00  0.00    +0.000 A 
ATOM     30  N   UNL     1      44.869   2.149   9.803  0.00  0.00    +0.000 NA
BRANCH  28  31
ATOM     31  C   UNL     1      46.918   2.356   6.590  0.00  0.00    +0.000 C 
ATOM     32  N   UNL     1      47.143   3.297   5.624  0.00  0.00    +0.000 N 
ATOM     33  O   UNL     1      47.373   1.232   6.459  0.00  0.00    +0.000 OA
ATOM     34  H   UNL     1      46.828   4.255   5.634  0.00  0.00    +0.000 HD
ATOM     35  H   UNL     1      47.711   3.002   4.838  0.00  0.00    +0.000 HD
ENDBRANCH  28  31
ENDBRANCH  23  25
BRANCH  23  36
ATOM     36  O   UNL     1      42.689   2.873  11.374  0.00  0.00    +0.000 OA
ATOM     37  H   UNL     1      42.750   2.552  12.296  0.00  0.00    +0.000 HD
ENDBRANCH  23  36
ENDBRANCH  22  23
ENDBRANCH  21  22
ENDBRANCH  20  21
ENDBRANCH   3  20
TORSDOF 10
ENDMDL
MODEL 8
REMARK VINA RESULT:    -7.302      1.570      2.310
REMARK INTER + INTRA:         -12.738
REMARK INTER:                 -11.685
REMARK INTRA:                  -1.053
REMARK UNBOUND:                -1.380
REMARK  Name = 
REMARK  13 active torsions:
REMARK  status: ('A' for Active; 'I' for Inactive)
REMARK    1  A    between atoms: C_1  and  C_2
REMARK    2  A    between atoms: C_2  and  C_3
REMARK    3  A    between atoms: C_2  and  C_4
REMARK    4  A    between atoms: N_6  and  C_7
REMARK    5  A    between atoms: C_9  and  O_10
REMARK    6  A    between atoms: O_10  and  C_11
REMARK    7  A    between atoms: C_11  and  C_12
REMARK    8  A    between atoms: C_12  and  C_13
REMARK    9  A    between atoms: C_13  and  C_14
REMARK   10  A    between atoms: C_13  and  O_15
REMARK   11  A    between atoms: C_13  and  C_16
REMARK   12  A    between atoms: C_19  and  C_20
REMARK   13  A    between atoms: C_26  and  C_27
REMARK                            x       y       z     vdW  Elec       q    Type
REMARK                         _______ _______ _______ _____ _____    ______ ____
ROOT
ATOM      1  C   UNL     1      48.241   6.608  14.273  0.00  0.00    +0.000 A 
ATOM      2  C   UNL     1      47.467   5.581  13.720  0.00  0.00    +0.000 A 
ATOM      3  C   UNL     1      47.079   4.457  14.462  0.00  0.00    +0.000 A 
ATOM      4  C   UNL     1      47.455   4.354  15.790  0.00  0.00    +0.000 A 
ATOM      5  C   UNL     1      48.240   5.349  16.383  0.00  0.00    +0.000 A 
ATOM      6  C   UNL     1      48.599   6.474  15.618  0.00  0.00    +0.000 A 
ENDROOT
BRANCH   1   9
ATOM      7  C   UNL     1      50.820   8.684  12.800  0.00  0.00    +0.000 C 
ATOM      8  C   UNL     1      49.732   7.615  12.511  0.00  0.00    +0.000 C 
ATOM      9  N   UNL     1      48.660   7.683  13.518  0.00  0.00    +0.000 N 
ATOM     10  C   UNL     1      48.119   9.033  13.728  0.00  0.00    +0.000 C 
ATOM     11  C   UNL     1      49.275   9.994  14.031  0.00  0.00    +0.000 C 
ATOM     12  O   UNL     1      50.236   9.995  12.967  0.00  0.00    +0.000 OA
BRANCH   7  14
ATOM     13  C   UNL     1      53.310   8.582  12.187  0.00  0.00    +0.000 C 
ATOM     14  C   UNL     1      51.877   8.758  11.672  0.00  0.00    +0.000 C 
ATOM     15  C   UNL     1      51.604   7.694  10.602  0.00  0.00    +0.000 C 
ENDBRANCH   7  14
ENDBRANCH   1   9
BRANCH   5  16
ATOM     16  C   UNL     1      48.746   5.217  17.792  0.00  0.00    +0.000 C 
ATOM     17  F   UNL     1      48.202   6.116  18.658  0.00  0.00    +0.000 F 
ATOM     18  F   UNL     1      48.478   3.988  18.320  0.00  0.00    +0.000 F 
ATOM     19  F   UNL     1      50.096   5.374  17.887  0.00  0.00    +0.000 F 
ENDBRANCH   5  16
BRANCH   3  20
ATOM     20  O   UNL     1      46.363   3.399  13.965  0.00  0.00    +0.000 OA
BRANCH  20  21
ATOM     21  C   UNL     1      45.794   3.591  12.668  0.00  0.00    +0.000 C 
BRANCH  21  22
ATOM     22  C   UNL     1      44.336   4.012  12.819  0.00  0.00    +0.000 C 
BRANCH  22  23
ATOM     23  C   UNL     1      43.538   3.876  11.506  0.00  0.00    +0.000 C 
ATOM     24  C   UNL     1      42.647   5.107  11.324  0.00  0.00    +0.000 C 
BRANCH  23  25
ATOM     25  C   UNL     1      44.388   3.658  10.242  0.00  0.00    +0.000 A 
ATOM     26  C   UNL     1      44.993   4.721   9.569  0.00  0.00    +0.000 A 
ATOM     27  C   UNL     1      45.758   4.471   8.428  0.00  0.00    +0.000 A 
ATOM     28  C   UNL     1      45.903   3.168   7.957  0.00  0.00    +0.000 A 
ATOM     29  C   UNL     1      45.272   2.166   8.680  0.00  0.00    +0.000 A 
ATOM     30  N   UNL     1      44.520   2.376   9.802  0.00  0.00    +0.000 NA
BRANCH  28  31
ATOM     31  C   UNL     1      46.698   2.945   6.720  0.00  0.00    +0.000 C 
ATOM     32  N   UNL     1      47.348   1.754   6.546  0.00  0.00    +0.000 N 
ATOM     33  O   UNL     1      46.772   3.807   5.860  0.00  0.00    +0.000 OA
ATOM     34  H   UNL     1      47.346   0.971   7.181  0.00  0.00    +0.000 HD
ATOM     35  H   UNL     1      47.854   1.646   5.675  0.00  0.00    +0.000 HD
ENDBRANCH  28  31
ENDBRANCH  23  25
BRANCH  23  36
ATOM     36  O   UNL     1      42.635   2.765  11.667  0.00  0.00    +0.000 OA
ATOM     37  H   UNL     1      41.823   3.151  12.052  0.00  0.00    +0.000 HD
ENDBRANCH  23  36
ENDBRANCH  22  23
ENDBRANCH  21  22
ENDBRANCH  20  21
ENDBRANCH   3  20
TORSDOF 10
ENDMDL
MODEL 9
REMARK VINA RESULT:    -7.291      4.455      7.949
REMARK INTER + INTRA:         -12.721
REMARK INTER:                 -11.453
REMARK INTRA:                  -1.268
REMARK UNBOUND:                -1.380
REMARK  Name = 
REMARK  13 active torsions:
REMARK  status: ('A' for Active; 'I' for Inactive)
REMARK    1  A    between atoms: C_1  and  C_2
REMARK    2  A    between atoms: C_2  and  C_3
REMARK    3  A    between atoms: C_2  and  C_4
REMARK    4  A    between atoms: N_6  and  C_7
REMARK    5  A    between atoms: C_9  and  O_10
REMARK    6  A    between atoms: O_10  and  C_11
REMARK    7  A    between atoms: C_11  and  C_12
REMARK    8  A    between atoms: C_12  and  C_13
REMARK    9  A    between atoms: C_13  and  C_14
REMARK   10  A    between atoms: C_13  and  O_15
REMARK   11  A    between atoms: C_13  and  C_16
REMARK   12  A    between atoms: C_19  and  C_20
REMARK   13  A    between atoms: C_26  and  C_27
REMARK                            x       y       z     vdW  Elec       q    Type
REMARK                         _______ _______ _______ _____ _____    ______ ____
ROOT
ATOM      1  C   UNL     1      46.229   5.942  12.227  0.00  0.00    +0.000 A 
ATOM      2  C   UNL     1      47.008   5.315  13.206  0.00  0.00    +0.000 A 
ATOM      3  C   UNL     1      46.790   3.987  13.596  0.00  0.00    +0.000 A 
ATOM      4  C   UNL     1      45.782   3.256  12.991  0.00  0.00    +0.000 A 
ATOM      5  C   UNL     1      44.968   3.844  12.016  0.00  0.00    +0.000 A 
ATOM      6  C   UNL     1      45.224   5.173  11.633  0.00  0.00    +0.000 A 
ENDROOT
BRANCH   1   9
ATOM      7  C   UNL     1      47.663   9.223  12.787  0.00  0.00    +0.000 C 
ATOM      8  C   UNL     1      47.727   7.941  11.913  0.00  0.00    +0.000 C 
ATOM      9  N   UNL     1      46.420   7.265  11.889  0.00  0.00    +0.000 N 
ATOM     10  C   UNL     1      45.293   8.149  11.558  0.00  0.00    +0.000 C 
ATOM     11  C   UNL     1      45.314   9.361  12.498  0.00  0.00    +0.000 C 
ATOM     12  O   UNL     1      46.557  10.068  12.398  0.00  0.00    +0.000 OA
BRANCH   7  14
ATOM     13  C   UNL     1      49.845   9.909  13.950  0.00  0.00    +0.000 C 
ATOM     14  C   UNL     1      48.967  10.051  12.702  0.00  0.00    +0.000 C 
ATOM     15  C   UNL     1      49.789   9.644  11.473  0.00  0.00    +0.000 C 
ENDBRANCH   7  14
ENDBRANCH   1   9
BRANCH   5  16
ATOM     16  C   UNL     1      43.805   3.107  11.413  0.00  0.00    +0.000 C 
ATOM     17  F   UNL     1      44.102   2.471  10.246  0.00  0.00    +0.000 F 
ATOM     18  F   UNL     1      43.322   2.142  12.248  0.00  0.00    +0.000 F 
ATOM     19  F   UNL     1      42.748   3.921  11.138  0.00  0.00    +0.000 F 
ENDBRANCH   5  16
BRANCH   3  20
ATOM     20  O   UNL     1      47.486   3.334  14.579  0.00  0.00    +0.000 OA
BRANCH  20  21
ATOM     21  C   UNL     1      47.233   3.777  15.915  0.00  0.00    +0.000 C 
BRANCH  21  22
ATOM     22  C   UNL     1      48.109   2.985  16.879  0.00  0.00    +0.000 C 
BRANCH  22  23
ATOM     23  C   UNL     1      49.288   3.813  17.430  0.00  0.00    +0.000 C 
ATOM     24  C   UNL     1      48.882   4.448  18.763  0.00  0.00    +0.000 C 
BRANCH  23  25
ATOM     25  C   UNL     1      50.606   3.039  17.605  0.00  0.00    +0.000 A 
ATOM     26  C   UNL     1      51.764   3.653  18.087  0.00  0.00    +0.000 A 
ATOM     27  C   UNL     1      52.935   2.906  18.230  0.00  0.00    +0.000 A 
ATOM     28  C   UNL     1      52.950   1.558  17.880  0.00  0.00    +0.000 A 
ATOM     29  C   UNL     1      51.761   1.019  17.410  0.00  0.00    +0.000 A 
ATOM     30  N   UNL     1      50.597   1.721  17.261  0.00  0.00    +0.000 NA
BRANCH  28  31
ATOM     31  C   UNL     1      54.224   0.804  18.016  0.00  0.00    +0.000 C 
ATOM     32  N   UNL     1      54.478   0.120  19.173  0.00  0.00    +0.000 N 
ATOM     33  O   UNL     1      55.039   0.784  17.109  0.00  0.00    +0.000 OA
ATOM     34  H   UNL     1      53.874   0.057  19.978  0.00  0.00    +0.000 HD
ATOM     35  H   UNL     1      55.349  -0.397  19.203  0.00  0.00    +0.000 HD
ENDBRANCH  28  31
ENDBRANCH  23  25
BRANCH  23  36
ATOM     36  O   UNL     1      49.501   4.912  16.526  0.00  0.00    +0.000 OA
ATOM     37  H   UNL     1      48.732   5.503  16.657  0.00  0.00    +0.000 HD
ENDBRANCH  23  36
ENDBRANCH  22  23
ENDBRANCH  21  22
ENDBRANCH  20  21
ENDBRANCH   3  20
TORSDOF 10
ENDMDL
