MODEL 1
REMARK VINA RESULT:    -8.029      0.000      0.000
REMARK INTER + INTRA:         -10.450
REMARK INTER:                  -9.907
REMARK INTRA:                  -0.543
REMARK UNBOUND:                -0.543
REMARK  Name = 
REMARK  6 active torsions:
REMARK  status: ('A' for Active; 'I' for Inactive)
REMARK    1  A    between atoms: C_1  and  C_2
REMARK    2  A    between atoms: C_5  and  C_6
REMARK    3  A    between atoms: C_6  and  C_7
REMARK    4  A    between atoms: C_6  and  N_8
REMARK    5  A    between atoms: N_8  and  C_9
REMARK    6  A    between atoms: C_12  and  C_13
REMARK                            x       y       z     vdW  Elec       q    Type
REMARK                         _______ _______ _______ _____ _____    ______ ____
ROOT
ATOM      1  N   UNL     1      43.736   3.910  10.363  0.00  0.00    +0.000 N 
ATOM      2  H   UNL     1      42.877   3.374  10.410  0.00  0.00    +0.000 HD
ENDROOT
BRANCH   1   3
ATOM      3  C   UNL     1      44.692   3.475   9.459  0.00  0.00    +0.000 A 
ATOM      4  C   UNL     1      45.101   2.146   9.333  0.00  0.00    +0.000 A 
ATOM      5  C   UNL     1      46.010   1.766   8.344  0.00  0.00    +0.000 A 
ATOM      6  C   UNL     1      46.481   2.735   7.470  0.00  0.00    +0.000 A 
ATOM      7  N   UNL     1      46.112   4.042   7.530  0.00  0.00    +0.000 NA
ATOM      8  C   UNL     1      45.229   4.360   8.513  0.00  0.00    +0.000 A 
BRANCH   6   9
ATOM      9  C   UNL     1      47.429   2.343   6.378  0.00  0.00    +0.000 C 
ATOM     10  N   UNL     1      47.333   3.069   5.220  0.00  0.00    +0.000 N 
ATOM     11  O   UNL     1      48.238   1.432   6.498  0.00  0.00    +0.000 OA
ATOM     12  H   UNL     1      46.642   3.806   5.150  0.00  0.00    +0.000 HD
ATOM     13  H   UNL     1      47.931   2.843   4.440  0.00  0.00    +0.000 HD
ENDBRANCH   6   9
ENDBRANCH   1   3
BRANCH   1  14
ATOM     14  C   UNL     1      43.673   5.264  10.918  0.00  0.00    +0.000 C 
ATOM     15  C   UNL     1      42.408   5.407  11.770  0.00  0.00    +0.000 C 
BRANCH  14  20
ATOM     16  C   UNL     1      48.309   6.554  14.246  0.00  0.00    +0.000 C 
ATOM     17  C   UNL     1      47.159   6.182  13.357  0.00  0.00    +0.000 A 
ATOM     18  C   UNL     1      46.303   5.128  13.691  0.00  0.00    +0.000 A 
ATOM     19  C   UNL     1      45.193   4.835  12.892  0.00  0.00    +0.000 A 
ATOM     20  C   UNL     1      44.906   5.594  11.746  0.00  0.00    +0.000 A 
ATOM     21  C   UNL     1      45.792   6.626  11.398  0.00  0.00    +0.000 A 
ATOM     22  C   UNL     1      46.899   6.922  12.199  0.00  0.00    +0.000 A 
ENDBRANCH  14  20
ENDBRANCH   1  14
TORSDOF 4
ENDMDL
MODEL 2
REMARK VINA RESULT:    -7.248      1.265      1.810
REMARK INTER + INTRA:          -9.486
REMARK INTER:                  -9.025
REMARK INTRA:                  -0.461
REMARK UNBOUND:                -0.543
REMARK  Name = 
REMARK  6 active torsions:
REMARK  status: ('A' for Active; 'I' for Inactive)
REMARK    1  A    between atoms: C_1  and  C_2
REMARK    2  A    between atoms: C_5  and  C_6
REMARK    3  A    between atoms: C_6  and  C_7
REMARK    4  A    between atoms: C_6  and  N_8
REMARK    5  A    between atoms: N_8  and  C_9
REMARK    6  A    between atoms: C_12  and  C_13
REMARK                            x       y       z     vdW  Elec       q    Type
REMARK                         _______ _______ _______ _____ _____    ______ ____
ROOT
ATOM      1  N   UNL     1      44.011   4.005  10.567  0.00  0.00    +0.000 N 
ATOM      2  H   UNL     1      43.094   4.333  10.284  0.00  0.00    +0.000 HD
ENDROOT
BRANCH   1   3
ATOM      3  C   UNL     1      44.878   3.634   9.551  0.00  0.00    +0.000 A 
ATOM      4  C   UNL     1      45.170   2.310   9.220  0.00  0.00    +0.000 A 
ATOM      5  C   UNL     1      45.991   2.007   8.131  0.00  0.00    +0.000 A 
ATOM      6  C   UNL     1      46.491   3.053   7.369  0.00  0.00    +0.000 A 
ATOM      7  N   UNL     1      46.234   4.362   7.630  0.00  0.00    +0.000 NA
ATOM      8  C   UNL     1      45.434   4.602   8.703  0.00  0.00    +0.000 A 
BRANCH   6   9
ATOM      9  C   UNL     1      47.345   2.751   6.175  0.00  0.00    +0.000 C 
ATOM     10  N   UNL     1      48.615   2.313   6.449  0.00  0.00    +0.000 N 
ATOM     11  O   UNL     1      46.948   2.886   5.025  0.00  0.00    +0.000 OA
ATOM     12  H   UNL     1      48.915   2.227   7.412  0.00  0.00    +0.000 HD
ATOM     13  H   UNL     1      49.245   2.110   5.689  0.00  0.00    +0.000 HD
ENDBRANCH   6   9
ENDBRANCH   1   3
BRANCH   1  14
ATOM     14  C   UNL     1      44.427   4.368  11.924  0.00  0.00    +0.000 C 
ATOM     15  C   UNL     1      45.338   3.275  12.487  0.00  0.00    +0.000 C 
BRANCH  14  20
ATOM     16  C   UNL     1      47.197   9.514  12.222  0.00  0.00    +0.000 C 
ATOM     17  C   UNL     1      46.506   8.189  12.082  0.00  0.00    +0.000 A 
ATOM     18  C   UNL     1      47.163   6.997  12.403  0.00  0.00    +0.000 A 
ATOM     19  C   UNL     1      46.487   5.775  12.336  0.00  0.00    +0.000 A 
ATOM     20  C   UNL     1      45.136   5.713  11.956  0.00  0.00    +0.000 A 
ATOM     21  C   UNL     1      44.497   6.911  11.598  0.00  0.00    +0.000 A 
ATOM     22  C   UNL     1      45.170   8.134  11.670  0.00  0.00    +0.000 A 
ENDBRANCH  14  20
ENDBRANCH   1  14
TORSDOF 4
ENDMDL
MODEL 3
REMARK VINA RESULT:    -7.193      3.165      6.292
REMARK INTER + INTRA:          -9.418
REMARK INTER:                  -9.538
REMARK INTRA:                   0.120
REMARK UNBOUND:                -0.543
REMARK  Name = 
REMARK  6 active torsions:
REMARK  status: ('A' for Active; 'I' for Inactive)
REMARK    1  A    between atoms: C_1  and  C_2
REMARK    2  A    between atoms: C_5  and  C_6
REMARK    3  A    between atoms: C_6  and  C_7
REMARK    4  A    between atoms: C_6  and  N_8
REMARK    5  A    between atoms: N_8  and  C_9
REMARK    6  A    between atoms: C_12  and  C_13
REMARK                            x       y       z     vdW  Elec       q    Type
REMARK                         _______ _______ _______ _____ _____    ______ ____
ROOT
ATOM      1  N   UNL     1      44.771   3.074  11.959  0.00  0.00    +0.000 N 
ATOM      2  H   UNL     1      44.883   2.121  12.284  0.00  0.00    +0.000 HD
ENDROOT
BRANCH   1   3
ATOM      3  C   UNL     1      45.645   4.017  12.479  0.00  0.00    +0.000 A 
ATOM      4  C   UNL     1      45.558   5.386  12.224  0.00  0.00    +0.000 A 
ATOM      5  C   UNL     1      46.423   6.288  12.847  0.00  0.00    +0.000 A 
ATOM      6  C   UNL     1      47.357   5.795  13.746  0.00  0.00    +0.000 A 
ATOM      7  N   UNL     1      47.484   4.476  14.048  0.00  0.00    +0.000 NA
ATOM      8  C   UNL     1      46.621   3.640  13.412  0.00  0.00    +0.000 A 
BRANCH   6   9
ATOM      9  C   UNL     1      48.272   6.748  14.454  0.00  0.00    +0.000 C 
ATOM     10  N   UNL     1      47.782   8.015  14.638  0.00  0.00    +0.000 N 
ATOM     11  O   UNL     1      49.388   6.430  14.842  0.00  0.00    +0.000 OA
ATOM     12  H   UNL     1      46.860   8.247  14.291  0.00  0.00    +0.000 HD
ATOM     13  H   UNL     1      48.356   8.708  15.092  0.00  0.00    +0.000 HD
ENDBRANCH   6   9
ENDBRANCH   1   3
BRANCH   1  14
ATOM     14  C   UNL     1      44.021   3.237  10.711  0.00  0.00    +0.000 C 
ATOM     15  C   UNL     1      43.344   4.610  10.698  0.00  0.00    +0.000 C 
BRANCH  14  20
ATOM     16  C   UNL     1      47.579   2.545   6.118  0.00  0.00    +0.000 C 
ATOM     17  C   UNL     1      46.614   2.717   7.255  0.00  0.00    +0.000 A 
ATOM     18  C   UNL     1      46.180   1.617   8.002  0.00  0.00    +0.000 A 
ATOM     19  C   UNL     1      45.337   1.797   9.102  0.00  0.00    +0.000 A 
ATOM     20  C   UNL     1      44.914   3.079   9.490  0.00  0.00    +0.000 A 
ATOM     21  C   UNL     1      45.325   4.172   8.710  0.00  0.00    +0.000 A 
ATOM     22  C   UNL     1      46.172   3.994   7.612  0.00  0.00    +0.000 A 
ENDBRANCH  14  20
ENDBRANCH   1  14
TORSDOF 4
ENDMDL
MODEL 4
REMARK VINA RESULT:    -7.039      3.507      6.836
REMARK INTER + INTRA:          -9.229
REMARK INTER:                  -8.749
REMARK INTRA:                  -0.480
REMARK UNBOUND:                -0.543
REMARK  Name = 
REMARK  6 active torsions:
REMARK  status: ('A' for Active; 'I' for Inactive)
REMARK    1  A    between atoms: C_1  and  C_2
REMARK    2  A    between atoms: C_5  and  C_6
REMARK    3  A    between atoms: C_6  and  C_7
REMARK    4  A    between atoms: C_6  and  N_8
REMARK    5  A    between atoms: N_8  and  C_9
REMARK    6  A    between atoms: C_12  and  C_13
REMARK                            x       y       z     vdW  Elec       q    Type
REMARK                         _______ _______ _______ _____ _____    ______ ____
ROOT
ATOM      1  N   UNL     1      45.535   5.543  11.483  0.00  0.00    +0.000 N 
ATOM      2  H   UNL     1      45.349   6.484  11.155  0.00  0.00    +0.000 HD
ENDROOT
BRANCH   1   3
ATOM      3  C   UNL     1      46.265   5.427  12.656  0.00  0.00    +0.000 A 
ATOM      4  C   UNL     1      47.238   6.340  13.063  0.00  0.00    +0.000 A 
ATOM      5  C   UNL     1      47.878   6.205  14.297  0.00  0.00    +0.000 A 
ATOM      6  C   UNL     1      47.507   5.154  15.122  0.00  0.00    +0.000 A 
ATOM      7  N   UNL     1      46.557   4.239  14.791  0.00  0.00    +0.000 NA
ATOM      8  C   UNL     1      45.969   4.414  13.579  0.00  0.00    +0.000 A 
BRANCH   6   9
ATOM      9  C   UNL     1      48.154   5.010  16.467  0.00  0.00    +0.000 C 
ATOM     10  N   UNL     1      47.307   5.066  17.542  0.00  0.00    +0.000 N 
ATOM     11  O   UNL     1      49.360   4.857  16.608  0.00  0.00    +0.000 OA
ATOM     12  H   UNL     1      46.317   5.209  17.389  0.00  0.00    +0.000 HD
ATOM     13  H   UNL     1      47.683   4.994  18.475  0.00  0.00    +0.000 HD
ENDBRANCH   6   9
ENDBRANCH   1   3
BRANCH   1  14
ATOM     14  C   UNL     1      44.670   4.495  10.935  0.00  0.00    +0.000 C 
ATOM     15  C   UNL     1      43.287   5.080  10.636  0.00  0.00    +0.000 C 
BRANCH  14  20
ATOM     16  C   UNL     1      47.059   2.005   6.211  0.00  0.00    +0.000 C 
ATOM     17  C   UNL     1      46.388   2.646   7.390  0.00  0.00    +0.000 A 
ATOM     18  C   UNL     1      45.808   1.870   8.398  0.00  0.00    +0.000 A 
ATOM     19  C   UNL     1      45.249   2.477   9.526  0.00  0.00    +0.000 A 
ATOM     20  C   UNL     1      45.263   3.873   9.680  0.00  0.00    +0.000 A 
ATOM     21  C   UNL     1      45.813   4.645   8.644  0.00  0.00    +0.000 A 
ATOM     22  C   UNL     1      46.377   4.039   7.518  0.00  0.00    +0.000 A 
ENDBRANCH  14  20
ENDBRANCH   1  14
TORSDOF 4
ENDMDL
MODEL 5
REMARK VINA RESULT:    -6.754      3.640      6.792
REMARK INTER + INTRA:          -8.877
REMARK INTER:                  -8.389
REMARK INTRA:                  -0.488
REMARK UNBOUND:                -0.543
REMARK  Name = 
REMARK  6 active torsions:
REMARK  status: ('A' for Active; 'I' for Inactive)
REMARK    1  A    between atoms: C_1  and  C_2
REMARK    2  A    between atoms: C_5  and  C_6
REMARK    3  A    between atoms: C_6  and  C_7
REMARK    4  A    between atoms: C_6  and  N_8
REMARK    5  A    between atoms: N_8  and  C_9
REMARK    6  A    between atoms: C_12  and  C_13
REMARK                            x       y       z     vdW  Elec       q    Type
REMARK                         _______ _______ _______ _____ _____    ______ ____
ROOT
ATOM      1  N   UNL     1      44.581   6.049  10.974  0.00  0.00    +0.000 N 
ATOM      2  H   UNL     1      43.766   6.508  10.583  0.00  0.00    +0.000 HD
ENDROOT
BRANCH   1   3
ATOM      3  C   UNL     1      45.422   6.830  11.750  0.00  0.00    +0.000 A 
ATOM      4  C   UNL     1      45.175   8.167  12.066  0.00  0.00    +0.000 A 
ATOM      5  C   UNL     1      46.025   8.871  12.922  0.00  0.00    +0.000 A 
ATOM      6  C   UNL     1      47.110   8.205  13.472  0.00  0.00    +0.000 A 
ATOM      7  N   UNL     1      47.399   6.901  13.216  0.00  0.00    +0.000 NA
ATOM      8  C   UNL     1      46.543   6.263  12.374  0.00  0.00    +0.000 A 
BRANCH   6   9
ATOM      9  C   UNL     1      48.016   8.930  14.421  0.00  0.00    +0.000 C 
ATOM     10  N   UNL     1      47.514   9.137  15.679  0.00  0.00    +0.000 N 
ATOM     11  O   UNL     1      49.131   9.322  14.103  0.00  0.00    +0.000 OA
ATOM     12  H   UNL     1      46.581   8.812  15.902  0.00  0.00    +0.000 HD
ATOM     13  H   UNL     1      48.067   9.635  16.359  0.00  0.00    +0.000 HD
ENDBRANCH   6   9
ENDBRANCH   1   3
BRANCH   1  14
ATOM     14  C   UNL     1      44.525   4.585  11.024  0.00  0.00    +0.000 C 
ATOM     15  C   UNL     1      43.071   4.136  11.188  0.00  0.00    +0.000 C 
BRANCH  14  20
ATOM     16  C   UNL     1      46.977   2.057   6.351  0.00  0.00    +0.000 C 
ATOM     17  C   UNL     1      46.291   2.710   7.516  0.00  0.00    +0.000 A 
ATOM     18  C   UNL     1      45.672   1.943   8.508  0.00  0.00    +0.000 A 
ATOM     19  C   UNL     1      45.098   2.559   9.624  0.00  0.00    +0.000 A 
ATOM     20  C   UNL     1      45.135   3.954   9.781  0.00  0.00    +0.000 A 
ATOM     21  C   UNL     1      45.724   4.717   8.760  0.00  0.00    +0.000 A 
ATOM     22  C   UNL     1      46.303   4.102   7.646  0.00  0.00    +0.000 A 
ENDBRANCH  14  20
ENDBRANCH   1  14
TORSDOF 4
ENDMDL
MODEL 6
REMARK VINA RESULT:    -5.900      4.804      7.661
REMARK INTER + INTRA:          -7.823
REMARK INTER:                  -7.255
REMARK INTRA:                  -0.568
REMARK UNBOUND:                -0.543
REMARK  Name = 
REMARK  6 active torsions:
REMARK  status: ('A' for Active; 'I' for Inactive)
REMARK    1  A    between atoms: C_1  and  C_2
REMARK    2  A    between atoms: C_5  and  C_6
REMARK    3  A    between atoms: C_6  and  C_7
REMARK    4  A    between atoms: C_6  and  N_8
REMARK    5  A    between atoms: N_8  and  C_9
REMARK    6  A    between atoms: C_12  and  C_13
REMARK                            x       y       z     vdW  Elec       q    Type
REMARK                         _______ _______ _______ _____ _____    ______ ____
ROOT
ATOM      1  N   UNL     1      47.327   6.039  13.484  0.00  0.00    +0.000 N 
ATOM      2  H   UNL     1      48.064   6.520  12.982  0.00  0.00    +0.000 HD
ENDROOT
BRANCH   1   3
ATOM      3  C   UNL     1      47.641   5.566  14.748  0.00  0.00    +0.000 A 
ATOM      4  C   UNL     1      47.165   4.363  15.272  0.00  0.00    +0.000 A 
ATOM      5  C   UNL     1      47.587   3.907  16.523  0.00  0.00    +0.000 A 
ATOM      6  C   UNL     1      48.511   4.667  17.225  0.00  0.00    +0.000 A 
ATOM      7  N   UNL     1      49.023   5.839  16.766  0.00  0.00    +0.000 NA
ATOM      8  C   UNL     1      48.576   6.240  15.546  0.00  0.00    +0.000 A 
BRANCH   6   9
ATOM      9  C   UNL     1      49.006   4.180  18.554  0.00  0.00    +0.000 C 
ATOM     10  N   UNL     1      48.309   3.133  19.099  0.00  0.00    +0.000 N 
ATOM     11  O   UNL     1      49.966   4.678  19.126  0.00  0.00    +0.000 OA
ATOM     12  H   UNL     1      47.511   2.756  18.604  0.00  0.00    +0.000 HD
ATOM     13  H   UNL     1      48.581   2.772  20.000  0.00  0.00    +0.000 HD
ENDBRANCH   6   9
ENDBRANCH   1   3
BRANCH   1  14
ATOM     14  C   UNL     1      45.964   6.285  13.003  0.00  0.00    +0.000 C 
ATOM     15  C   UNL     1      45.850   7.732  12.515  0.00  0.00    +0.000 C 
BRANCH  14  20
ATOM     16  C   UNL     1      44.582   2.459   8.799  0.00  0.00    +0.000 C 
ATOM     17  C   UNL     1      44.873   3.462   9.876  0.00  0.00    +0.000 A 
ATOM     18  C   UNL     1      44.764   3.118  11.227  0.00  0.00    +0.000 A 
ATOM     19  C   UNL     1      45.106   4.039  12.222  0.00  0.00    +0.000 A 
ATOM     20  C   UNL     1      45.574   5.321  11.893  0.00  0.00    +0.000 A 
ATOM     21  C   UNL     1      45.643   5.670  10.535  0.00  0.00    +0.000 A 
ATOM     22  C   UNL     1      45.306   4.748   9.539  0.00  0.00    +0.000 A 
ENDBRANCH  14  20
ENDBRANCH   1  14
TORSDOF 4
ENDMDL
MODEL 7
REMARK VINA RESULT:    -5.881      2.777      4.631
REMARK INTER + INTRA:          -7.800
REMARK INTER:                  -7.270
REMARK INTRA:                  -0.530
REMARK UNBOUND:                -0.543
REMARK  Name = 
REMARK  6 active torsions:
REMARK  status: ('A' for Active; 'I' for Inactive)
REMARK    1  A    between atoms: C_1  and  C_2
REMARK    2  A    between atoms: C_5  and  C_6
REMARK    3  A    between atoms: C_6  and  C_7
REMARK    4  A    between atoms: C_6  and  N_8
REMARK    5  A    between atoms: N_8  and  C_9
REMARK    6  A    between atoms: C_12  and  C_13
REMARK                            x       y       z     vdW  Elec       q    Type
REMARK                         _______ _______ _______ _____ _____    ______ ____
ROOT
ATOM      1  N   UNL     1      46.184   5.943  13.637  0.00  0.00    +0.000 N 
ATOM      2  H   UNL     1      45.532   6.574  14.088  0.00  0.00    +0.000 HD
ENDROOT
BRANCH   1   3
ATOM      3  C   UNL     1      45.737   5.299  12.494  0.00  0.00    +0.000 A 
ATOM      4  C   UNL     1      45.801   5.848  11.213  0.00  0.00    +0.000 A 
ATOM      5  C   UNL     1      45.406   5.109  10.095  0.00  0.00    +0.000 A 
ATOM      6  C   UNL     1      44.972   3.806  10.284  0.00  0.00    +0.000 A 
ATOM      7  N   UNL     1      44.899   3.208  11.503  0.00  0.00    +0.000 NA
ATOM      8  C   UNL     1      45.290   3.971  12.557  0.00  0.00    +0.000 A 
BRANCH   6   9
ATOM      9  C   UNL     1      44.577   2.982   9.095  0.00  0.00    +0.000 C 
ATOM     10  N   UNL     1      44.212   3.688   7.979  0.00  0.00    +0.000 N 
ATOM     11  O   UNL     1      44.573   1.758   9.109  0.00  0.00    +0.000 OA
ATOM     12  H   UNL     1      44.212   4.700   8.008  0.00  0.00    +0.000 HD
ATOM     13  H   UNL     1      43.918   3.192   7.152  0.00  0.00    +0.000 HD
ENDBRANCH   6   9
ENDBRANCH   1   3
BRANCH   1  14
ATOM     14  C   UNL     1      47.595   6.127  13.989  0.00  0.00    +0.000 C 
ATOM     15  C   UNL     1      47.947   7.615  13.924  0.00  0.00    +0.000 C 
BRANCH  14  20
ATOM     16  C   UNL     1      48.627   3.993  19.338  0.00  0.00    +0.000 C 
ATOM     17  C   UNL     1      48.414   4.505  17.944  0.00  0.00    +0.000 A 
ATOM     18  C   UNL     1      47.544   3.854  17.064  0.00  0.00    +0.000 A 
ATOM     19  C   UNL     1      47.299   4.379  15.792  0.00  0.00    +0.000 A 
ATOM     20  C   UNL     1      47.909   5.571  15.370  0.00  0.00    +0.000 A 
ATOM     21  C   UNL     1      48.810   6.197  16.246  0.00  0.00    +0.000 A 
ATOM     22  C   UNL     1      49.052   5.675  17.521  0.00  0.00    +0.000 A 
ENDBRANCH  14  20
ENDBRANCH   1  14
TORSDOF 4
ENDMDL
MODEL 8
REMARK VINA RESULT:    -5.430      3.502      5.719
REMARK INTER + INTRA:          -7.243
REMARK INTER:                  -6.648
REMARK INTRA:                  -0.595
REMARK UNBOUND:                -0.543
REMARK  Name = 
REMARK  6 active torsions:
REMARK  status: ('A' for Active; 'I' for Inactive)
REMARK    1  A    between atoms: C_1  and  C_2
REMARK    2  A    between atoms: C_5  and  C_6
REMARK    3  A    between atoms: C_6  and  C_7
REMARK    4  A    between atoms: C_6  and  N_8
REMARK    5  A    between atoms: N_8  and  C_9
REMARK    6  A    between atoms: C_12  and  C_13
REMARK                            x       y       z     vdW  Elec       q    Type
REMARK                         _______ _______ _______ _____ _____    ______ ____
ROOT
ATOM      1  N   UNL     1      47.902   6.263  13.860  0.00  0.00    +0.000 N 
ATOM      2  H   UNL     1      48.229   5.852  14.726  0.00  0.00    +0.000 HD
ENDROOT
BRANCH   1   3
ATOM      3  C   UNL     1      46.904   5.579  13.184  0.00  0.00    +0.000 A 
ATOM      4  C   UNL     1      46.308   6.030  12.005  0.00  0.00    +0.000 A 
ATOM      5  C   UNL     1      45.365   5.250  11.333  0.00  0.00    +0.000 A 
ATOM      6  C   UNL     1      45.051   4.001  11.850  0.00  0.00    +0.000 A 
ATOM      7  N   UNL     1      45.605   3.498  12.984  0.00  0.00    +0.000 NA
ATOM      8  C   UNL     1      46.512   4.299  13.603  0.00  0.00    +0.000 A 
BRANCH   6   9
ATOM      9  C   UNL     1      44.068   3.131  11.126  0.00  0.00    +0.000 C 
ATOM     10  N   UNL     1      43.441   2.182  11.890  0.00  0.00    +0.000 N 
ATOM     11  O   UNL     1      43.836   3.248   9.930  0.00  0.00    +0.000 OA
ATOM     12  H   UNL     1      43.669   2.104  12.873  0.00  0.00    +0.000 HD
ATOM     13  H   UNL     1      42.783   1.553  11.458  0.00  0.00    +0.000 HD
ENDBRANCH   6   9
ENDBRANCH   1   3
BRANCH   1  14
ATOM     14  C   UNL     1      48.206   7.685  13.674  0.00  0.00    +0.000 C 
ATOM     15  C   UNL     1      48.216   8.385  15.036  0.00  0.00    +0.000 C 
BRANCH  14  20
ATOM     16  C   UNL     1      53.324   8.647  11.007  0.00  0.00    +0.000 C 
ATOM     17  C   UNL     1      52.031   8.338  11.704  0.00  0.00    +0.000 A 
ATOM     18  C   UNL     1      51.874   8.583  13.071  0.00  0.00    +0.000 A 
ATOM     19  C   UNL     1      50.643   8.357  13.695  0.00  0.00    +0.000 A 
ATOM     20  C   UNL     1      49.537   7.890  12.967  0.00  0.00    +0.000 A 
ATOM     21  C   UNL     1      49.716   7.611  11.602  0.00  0.00    +0.000 A 
ATOM     22  C   UNL     1      50.945   7.841  10.977  0.00  0.00    +0.000 A 
ENDBRANCH  14  20
ENDBRANCH   1  14
TORSDOF 4
ENDMDL
