MODEL 1
REMARK VINA RESULT:    -6.538      0.000      0.000
REMARK INTER + INTRA:          -8.774
REMARK INTER:                  -8.067
REMARK INTRA:                  -0.707
REMARK UNBOUND:                -0.707
REMARK  Name = 
REMARK  7 active torsions:
REMARK  status: ('A' for Active; 'I' for Inactive)
REMARK    1  A    between atoms: C_1  and  C_2
REMARK    2  A    between atoms: C_2  and  C_3
REMARK    3  A    between atoms: C_2  and  C_4
REMARK    4  A    between atoms: C_2  and  C_5
REMARK    5  A    between atoms: C_9  and  C_10
REMARK    6  A    between atoms: N_16  and  C_17
REMARK    7  A    between atoms: C_17  and  C_18
REMARK                            x       y       z     vdW  Elec       q    Type
REMARK                         _______ _______ _______ _____ _____    ______ ____
ROOT
ATOM      1  C   UNL     1      44.554   4.036  11.106  0.00  0.00    +0.000 A 
ATOM      2  N   UNL     1      44.836   2.841  10.590  0.00  0.00    +0.000 NA
ATOM      3  C   UNL     1      45.517   3.057   9.429  0.00  0.00    +0.000 A 
ATOM      4  C   UNL     1      46.018   2.156   8.478  0.00  0.00    +0.000 A 
ATOM      5  C   UNL     1      46.660   2.705   7.364  0.00  0.00    +0.000 A 
ATOM      6  C   UNL     1      46.773   4.097   7.269  0.00  0.00    +0.000 A 
ATOM      7  N   UNL     1      46.295   5.003   8.167  0.00  0.00    +0.000 NA
ATOM      8  C   UNL     1      45.686   4.414   9.212  0.00  0.00    +0.000 A 
ATOM      9  N   UNL     1      45.034   5.032  10.260  0.00  0.00    +0.000 N 
ENDROOT
BRANCH   5  10
ATOM     10  C   UNL     1      47.223   1.889   6.257  0.00  0.00    +0.000 C 
ATOM     11  N   UNL     1      47.909   2.519   5.259  0.00  0.00    +0.000 N 
ATOM     12  O   UNL     1      47.087   0.672   6.238  0.00  0.00    +0.000 OA
ATOM     13  H   UNL     1      48.080   3.511   5.198  0.00  0.00    +0.000 HD
ATOM     14  H   UNL     1      48.290   1.933   4.526  0.00  0.00    +0.000 HD
ENDBRANCH   5  10
BRANCH   1  16
ATOM     15  C   UNL     1      43.289   2.818  12.892  0.00  0.00    +0.000 C 
ATOM     16  C   UNL     1      43.837   4.199  12.447  0.00  0.00    +0.000 C 
ATOM     17  C   UNL     1      42.624   5.133  12.378  0.00  0.00    +0.000 C 
ATOM     18  C   UNL     1      44.811   4.675  13.538  0.00  0.00    +0.000 C 
ENDBRANCH   1  16
BRANCH   9  19
ATOM     19  C   UNL     1      44.885   6.479  10.326  0.00  0.00    +0.000 C 
BRANCH  19  20
ATOM     20  C   UNL     1      45.781   7.106  11.371  0.00  0.00    +0.000 A 
ATOM     21  C   UNL     1      45.331   8.107  12.232  0.00  0.00    +0.000 A 
ATOM     22  C   UNL     1      46.144   8.508  13.287  0.00  0.00    +0.000 A 
ATOM     23  C   UNL     1      47.400   7.937  13.435  0.00  0.00    +0.000 A 
ATOM     24  C   UNL     1      47.808   7.010  12.494  0.00  0.00    +0.000 A 
ATOM     25  N   UNL     1      47.036   6.593  11.466  0.00  0.00    +0.000 NA
ENDBRANCH  19  20
ENDBRANCH   9  19
TORSDOF 4
ENDMDL
MODEL 2
REMARK VINA RESULT:    -5.844      2.856      5.819
REMARK INTER + INTRA:          -7.917
REMARK INTER:                  -7.779
REMARK INTRA:                  -0.138
REMARK UNBOUND:                -0.707
REMARK  Name = 
REMARK  7 active torsions:
REMARK  status: ('A' for Active; 'I' for Inactive)
REMARK    1  A    between atoms: C_1  and  C_2
REMARK    2  A    between atoms: C_2  and  C_3
REMARK    3  A    between atoms: C_2  and  C_4
REMARK    4  A    between atoms: C_2  and  C_5
REMARK    5  A    between atoms: C_9  and  C_10
REMARK    6  A    between atoms: N_16  and  C_17
REMARK    7  A    between atoms: C_17  and  C_18
REMARK                            x       y       z     vdW  Elec       q    Type
REMARK                         _______ _______ _______ _____ _____    ______ ____
ROOT
ATOM      1  C   UNL     1      44.759   5.071  12.387  0.00  0.00    +0.000 A 
ATOM      2  N   UNL     1      45.513   5.190  13.478  0.00  0.00    +0.000 NA
ATOM      3  C   UNL     1      46.620   5.902  13.123  0.00  0.00    +0.000 A 
ATOM      4  C   UNL     1      47.746   6.281  13.871  0.00  0.00    +0.000 A 
ATOM      5  C   UNL     1      48.738   7.000  13.197  0.00  0.00    +0.000 A 
ATOM      6  C   UNL     1      48.550   7.303  11.845  0.00  0.00    +0.000 A 
ATOM      7  N   UNL     1      47.477   6.948  11.085  0.00  0.00    +0.000 NA
ATOM      8  C   UNL     1      46.561   6.257  11.787  0.00  0.00    +0.000 A 
ATOM      9  N   UNL     1      45.395   5.688  11.314  0.00  0.00    +0.000 N 
ENDROOT
BRANCH   5  10
ATOM     10  C   UNL     1      49.999   7.454  13.839  0.00  0.00    +0.000 C 
ATOM     11  N   UNL     1      51.029   7.867  13.044  0.00  0.00    +0.000 N 
ATOM     12  O   UNL     1      50.117   7.469  15.058  0.00  0.00    +0.000 OA
ATOM     13  H   UNL     1      51.018   7.900  12.037  0.00  0.00    +0.000 HD
ATOM     14  H   UNL     1      51.871   8.181  13.513  0.00  0.00    +0.000 HD
ENDBRANCH   5  10
BRANCH   1  16
ATOM     15  C   UNL     1      42.956   4.181  13.880  0.00  0.00    +0.000 C 
ATOM     16  C   UNL     1      43.398   4.374  12.406  0.00  0.00    +0.000 C 
ATOM     17  C   UNL     1      43.424   2.973  11.786  0.00  0.00    +0.000 C 
ATOM     18  C   UNL     1      42.327   5.238  11.719  0.00  0.00    +0.000 C 
ENDBRANCH   1  16
BRANCH   9  19
ATOM     19  C   UNL     1      45.033   5.739   9.904  0.00  0.00    +0.000 C 
BRANCH  19  20
ATOM     20  C   UNL     1      45.580   4.564   9.123  0.00  0.00    +0.000 A 
ATOM     21  C   UNL     1      45.227   3.247   9.419  0.00  0.00    +0.000 A 
ATOM     22  C   UNL     1      45.615   2.231   8.551  0.00  0.00    +0.000 A 
ATOM     23  C   UNL     1      46.380   2.543   7.436  0.00  0.00    +0.000 A 
ATOM     24  C   UNL     1      46.760   3.860   7.254  0.00  0.00    +0.000 A 
ATOM     25  N   UNL     1      46.388   4.869   8.074  0.00  0.00    +0.000 NA
ENDBRANCH  19  20
ENDBRANCH   9  19
TORSDOF 4
ENDMDL
MODEL 3
REMARK VINA RESULT:    -5.766      3.833      6.051
REMARK INTER + INTRA:          -7.822
REMARK INTER:                  -7.477
REMARK INTRA:                  -0.345
REMARK UNBOUND:                -0.707
REMARK  Name = 
REMARK  7 active torsions:
REMARK  status: ('A' for Active; 'I' for Inactive)
REMARK    1  A    between atoms: C_1  and  C_2
REMARK    2  A    between atoms: C_2  and  C_3
REMARK    3  A    between atoms: C_2  and  C_4
REMARK    4  A    between atoms: C_2  and  C_5
REMARK    5  A    between atoms: C_9  and  C_10
REMARK    6  A    between atoms: N_16  and  C_17
REMARK    7  A    between atoms: C_17  and  C_18
REMARK                            x       y       z     vdW  Elec       q    Type
REMARK                         _______ _______ _______ _____ _____    ______ ____
ROOT
ATOM      1  C   UNL     1      45.153   4.693  12.582  0.00  0.00    +0.000 A 
ATOM      2  N   UNL     1      45.389   4.036  13.716  0.00  0.00    +0.000 NA
ATOM      3  C   UNL     1      46.436   4.659  14.329  0.00  0.00    +0.000 A 
ATOM      4  C   UNL     1      47.108   4.361  15.523  0.00  0.00    +0.000 A 
ATOM      5  C   UNL     1      48.176   5.194  15.871  0.00  0.00    +0.000 A 
ATOM      6  C   UNL     1      48.499   6.264  15.029  0.00  0.00    +0.000 A 
ATOM      7  N   UNL     1      47.875   6.581  13.861  0.00  0.00    +0.000 NA
ATOM      8  C   UNL     1      46.861   5.742  13.580  0.00  0.00    +0.000 A 
ATOM      9  N   UNL     1      46.069   5.733  12.449  0.00  0.00    +0.000 N 
ENDROOT
BRANCH   5  10
ATOM     10  C   UNL     1      49.005   4.999  17.090  0.00  0.00    +0.000 C 
ATOM     11  N   UNL     1      48.429   5.188  18.313  0.00  0.00    +0.000 N 
ATOM     12  O   UNL     1      50.181   4.666  17.006  0.00  0.00    +0.000 OA
ATOM     13  H   UNL     1      47.470   5.450  18.478  0.00  0.00    +0.000 HD
ATOM     14  H   UNL     1      49.018   5.036  19.123  0.00  0.00    +0.000 HD
ENDBRANCH   5  10
BRANCH   1  16
ATOM     15  C   UNL     1      43.541   2.875  11.974  0.00  0.00    +0.000 C 
ATOM     16  C   UNL     1      44.006   4.317  11.643  0.00  0.00    +0.000 C 
ATOM     17  C   UNL     1      44.412   4.301  10.165  0.00  0.00    +0.000 C 
ATOM     18  C   UNL     1      42.797   5.244  11.851  0.00  0.00    +0.000 C 
ENDBRANCH   1  16
BRANCH   9  19
ATOM     19  C   UNL     1      46.292   6.659  11.348  0.00  0.00    +0.000 C 
BRANCH  19  20
ATOM     20  C   UNL     1      45.605   7.990  11.563  0.00  0.00    +0.000 A 
ATOM     21  C   UNL     1      46.255   9.075  12.152  0.00  0.00    +0.000 A 
ATOM     22  C   UNL     1      45.632  10.318  12.151  0.00  0.00    +0.000 A 
ATOM     23  C   UNL     1      44.362  10.444  11.605  0.00  0.00    +0.000 A 
ATOM     24  C   UNL     1      43.749   9.307  11.114  0.00  0.00    +0.000 A 
ATOM     25  N   UNL     1      44.335   8.089  11.090  0.00  0.00    +0.000 NA
ENDBRANCH  19  20
ENDBRANCH   9  19
TORSDOF 4
ENDMDL
MODEL 4
REMARK VINA RESULT:    -5.641      3.266      5.441
REMARK INTER + INTRA:          -7.667
REMARK INTER:                  -7.007
REMARK INTRA:                  -0.659
REMARK UNBOUND:                -0.707
REMARK  Name = 
REMARK  7 active torsions:
REMARK  status: ('A' for Active; 'I' for Inactive)
REMARK    1  A    between atoms: C_1  and  C_2
REMARK    2  A    between atoms: C_2  and  C_3
REMARK    3  A    between atoms: C_2  and  C_4
REMARK    4  A    between atoms: C_2  and  C_5
REMARK    5  A    between atoms: C_9  and  C_10
REMARK    6  A    between atoms: N_16  and  C_17
REMARK    7  A    between atoms: C_17  and  C_18
REMARK                            x       y       z     vdW  Elec       q    Type
REMARK                         _______ _______ _______ _____ _____    ______ ____
ROOT
ATOM      1  C   UNL     1      48.065   6.733  14.378  0.00  0.00    +0.000 A 
ATOM      2  N   UNL     1      47.555   5.516  14.557  0.00  0.00    +0.000 NA
ATOM      3  C   UNL     1      46.764   5.252  13.478  0.00  0.00    +0.000 A 
ATOM      4  C   UNL     1      45.968   4.137  13.175  0.00  0.00    +0.000 A 
ATOM      5  C   UNL     1      45.245   4.184  11.979  0.00  0.00    +0.000 A 
ATOM      6  C   UNL     1      45.363   5.314  11.164  0.00  0.00    +0.000 A 
ATOM      7  N   UNL     1      46.119   6.417  11.426  0.00  0.00    +0.000 NA
ATOM      8  C   UNL     1      46.786   6.313  12.590  0.00  0.00    +0.000 A 
ATOM      9  N   UNL     1      47.582   7.269  13.189  0.00  0.00    +0.000 N 
ENDROOT
BRANCH   5  10
ATOM     10  C   UNL     1      44.339   3.096  11.526  0.00  0.00    +0.000 C 
ATOM     11  N   UNL     1      43.767   2.285  12.463  0.00  0.00    +0.000 N 
ATOM     12  O   UNL     1      44.096   2.932  10.337  0.00  0.00    +0.000 OA
ATOM     13  H   UNL     1      43.898   2.352  13.460  0.00  0.00    +0.000 HD
ATOM     14  H   UNL     1      43.145   1.561  12.121  0.00  0.00    +0.000 HD
ENDBRANCH   5  10
BRANCH   1  16
ATOM     15  C   UNL     1      49.107   6.479  16.642  0.00  0.00    +0.000 C 
ATOM     16  C   UNL     1      49.054   7.357  15.364  0.00  0.00    +0.000 C 
ATOM     17  C   UNL     1      48.643   8.758  15.831  0.00  0.00    +0.000 C 
ATOM     18  C   UNL     1      50.474   7.390  14.775  0.00  0.00    +0.000 C 
ENDBRANCH   1  16
BRANCH   9  19
ATOM     19  C   UNL     1      47.757   8.594  12.610  0.00  0.00    +0.000 C 
BRANCH  19  20
ATOM     20  C   UNL     1      49.116   8.772  11.971  0.00  0.00    +0.000 A 
ATOM     21  C   UNL     1      49.830   9.967  12.063  0.00  0.00    +0.000 A 
ATOM     22  C   UNL     1      51.147  10.004  11.615  0.00  0.00    +0.000 A 
ATOM     23  C   UNL     1      51.706   8.868  11.048  0.00  0.00    +0.000 A 
ATOM     24  C   UNL     1      50.910   7.746  10.917  0.00  0.00    +0.000 A 
ATOM     25  N   UNL     1      49.632   7.677  11.354  0.00  0.00    +0.000 NA
ENDBRANCH  19  20
ENDBRANCH   9  19
TORSDOF 4
ENDMDL
MODEL 5
REMARK VINA RESULT:    -5.540      4.307      6.518
REMARK INTER + INTRA:          -7.542
REMARK INTER:                  -7.020
REMARK INTRA:                  -0.523
REMARK UNBOUND:                -0.707
REMARK  Name = 
REMARK  7 active torsions:
REMARK  status: ('A' for Active; 'I' for Inactive)
REMARK    1  A    between atoms: C_1  and  C_2
REMARK    2  A    between atoms: C_2  and  C_3
REMARK    3  A    between atoms: C_2  and  C_4
REMARK    4  A    between atoms: C_2  and  C_5
REMARK    5  A    between atoms: C_9  and  C_10
REMARK    6  A    between atoms: N_16  and  C_17
REMARK    7  A    between atoms: C_17  and  C_18
REMARK                            x       y       z     vdW  Elec       q    Type
REMARK                         _______ _______ _______ _____ _____    ______ ____
ROOT
ATOM      1  C   UNL     1      47.637   8.674  12.570  0.00  0.00    +0.000 A 
ATOM      2  N   UNL     1      46.394   8.417  12.168  0.00  0.00    +0.000 NA
ATOM      3  C   UNL     1      46.069   7.178  12.636  0.00  0.00    +0.000 A 
ATOM      4  C   UNL     1      44.905   6.413  12.475  0.00  0.00    +0.000 A 
ATOM      5  C   UNL     1      44.893   5.148  13.071  0.00  0.00    +0.000 A 
ATOM      6  C   UNL     1      46.019   4.732  13.790  0.00  0.00    +0.000 A 
ATOM      7  N   UNL     1      47.168   5.442  13.963  0.00  0.00    +0.000 NA
ATOM      8  C   UNL     1      47.119   6.646  13.364  0.00  0.00    +0.000 A 
ATOM      9  N   UNL     1      48.128   7.584  13.282  0.00  0.00    +0.000 N 
ENDROOT
BRANCH   5  10
ATOM     10  C   UNL     1      43.748   4.206  12.973  0.00  0.00    +0.000 C 
ATOM     11  N   UNL     1      43.997   2.898  12.676  0.00  0.00    +0.000 N 
ATOM     12  O   UNL     1      42.599   4.587  13.165  0.00  0.00    +0.000 OA
ATOM     13  H   UNL     1      44.906   2.493  12.514  0.00  0.00    +0.000 HD
ATOM     14  H   UNL     1      43.195   2.280  12.629  0.00  0.00    +0.000 HD
ENDBRANCH   5  10
BRANCH   1  16
ATOM     15  C   UNL     1      47.362  10.910  11.475  0.00  0.00    +0.000 C 
ATOM     16  C   UNL     1      48.331  10.005  12.280  0.00  0.00    +0.000 C 
ATOM     17  C   UNL     1      49.588   9.858  11.414  0.00  0.00    +0.000 C 
ATOM     18  C   UNL     1      48.669  10.747  13.584  0.00  0.00    +0.000 C 
ENDBRANCH   1  16
BRANCH   9  19
ATOM     19  C   UNL     1      49.455   7.335  13.830  0.00  0.00    +0.000 C 
BRANCH  19  20
ATOM     20  C   UNL     1      49.457   7.292  15.342  0.00  0.00    +0.000 A 
ATOM     21  C   UNL     1      48.817   8.262  16.114  0.00  0.00    +0.000 A 
ATOM     22  C   UNL     1      48.698   8.065  17.486  0.00  0.00    +0.000 A 
ATOM     23  C   UNL     1      49.256   6.933  18.063  0.00  0.00    +0.000 A 
ATOM     24  C   UNL     1      49.947   6.059  17.245  0.00  0.00    +0.000 A 
ATOM     25  N   UNL     1      50.068   6.218  15.908  0.00  0.00    +0.000 NA
ENDBRANCH  19  20
ENDBRANCH   9  19
TORSDOF 4
ENDMDL
MODEL 6
REMARK VINA RESULT:    -5.506      4.058      6.111
REMARK INTER + INTRA:          -7.501
REMARK INTER:                  -7.013
REMARK INTRA:                  -0.488
REMARK UNBOUND:                -0.707
REMARK  Name = 
REMARK  7 active torsions:
REMARK  status: ('A' for Active; 'I' for Inactive)
REMARK    1  A    between atoms: C_1  and  C_2
REMARK    2  A    between atoms: C_2  and  C_3
REMARK    3  A    between atoms: C_2  and  C_4
REMARK    4  A    between atoms: C_2  and  C_5
REMARK    5  A    between atoms: C_9  and  C_10
REMARK    6  A    between atoms: N_16  and  C_17
REMARK    7  A    between atoms: C_17  and  C_18
REMARK                            x       y       z     vdW  Elec       q    Type
REMARK                         _______ _______ _______ _____ _____    ______ ____
ROOT
ATOM      1  C   UNL     1      47.847   4.738  16.148  0.00  0.00    +0.000 A 
ATOM      2  N   UNL     1      46.853   4.255  15.405  0.00  0.00    +0.000 NA
ATOM      3  C   UNL     1      46.822   4.988  14.255  0.00  0.00    +0.000 A 
ATOM      4  C   UNL     1      45.959   4.925  13.151  0.00  0.00    +0.000 A 
ATOM      5  C   UNL     1      46.180   5.847  12.123  0.00  0.00    +0.000 A 
ATOM      6  C   UNL     1      47.237   6.755  12.249  0.00  0.00    +0.000 A 
ATOM      7  N   UNL     1      48.091   6.851  13.306  0.00  0.00    +0.000 NA
ATOM      8  C   UNL     1      47.824   5.942  14.261  0.00  0.00    +0.000 A 
ATOM      9  N   UNL     1      48.445   5.806  15.487  0.00  0.00    +0.000 N 
ENDROOT
BRANCH   5  10
ATOM     10  C   UNL     1      45.341   5.928  10.900  0.00  0.00    +0.000 C 
ATOM     11  N   UNL     1      44.353   6.867  10.841  0.00  0.00    +0.000 N 
ATOM     12  O   UNL     1      45.534   5.176   9.952  0.00  0.00    +0.000 OA
ATOM     13  H   UNL     1      44.130   7.533  11.564  0.00  0.00    +0.000 HD
ATOM     14  H   UNL     1      43.807   6.904   9.988  0.00  0.00    +0.000 HD
ENDBRANCH   5  10
BRANCH   1  16
ATOM     15  C   UNL     1      47.448   2.801  17.686  0.00  0.00    +0.000 C 
ATOM     16  C   UNL     1      48.227   4.130  17.499  0.00  0.00    +0.000 C 
ATOM     17  C   UNL     1      47.845   5.013  18.692  0.00  0.00    +0.000 C 
ATOM     18  C   UNL     1      49.726   3.790  17.549  0.00  0.00    +0.000 C 
ENDBRANCH   1  16
BRANCH   9  19
ATOM     19  C   UNL     1      49.490   6.722  15.924  0.00  0.00    +0.000 C 
BRANCH  19  20
ATOM     20  C   UNL     1      48.934   8.039  16.420  0.00  0.00    +0.000 A 
ATOM     21  C   UNL     1      48.235   8.145  17.622  0.00  0.00    +0.000 A 
ATOM     22  C   UNL     1      47.914   9.408  18.110  0.00  0.00    +0.000 A 
ATOM     23  C   UNL     1      48.258  10.531  17.371  0.00  0.00    +0.000 A 
ATOM     24  C   UNL     1      48.878  10.342  16.150  0.00  0.00    +0.000 A 
ATOM     25  N   UNL     1      49.212   9.129  15.657  0.00  0.00    +0.000 NA
ENDBRANCH  19  20
ENDBRANCH   9  19
TORSDOF 4
ENDMDL
MODEL 7
REMARK VINA RESULT:    -5.448      4.119      6.545
REMARK INTER + INTRA:          -7.429
REMARK INTER:                  -6.960
REMARK INTRA:                  -0.469
REMARK UNBOUND:                -0.707
REMARK  Name = 
REMARK  7 active torsions:
REMARK  status: ('A' for Active; 'I' for Inactive)
REMARK    1  A    between atoms: C_1  and  C_2
REMARK    2  A    between atoms: C_2  and  C_3
REMARK    3  A    between atoms: C_2  and  C_4
REMARK    4  A    between atoms: C_2  and  C_5
REMARK    5  A    between atoms: C_9  and  C_10
REMARK    6  A    between atoms: N_16  and  C_17
REMARK    7  A    between atoms: C_17  and  C_18
REMARK                            x       y       z     vdW  Elec       q    Type
REMARK                         _______ _______ _______ _____ _____    ______ ____
ROOT
ATOM      1  C   UNL     1      48.360   6.736  14.807  0.00  0.00    +0.000 A 
ATOM      2  N   UNL     1      48.140   6.981  13.517  0.00  0.00    +0.000 NA
ATOM      3  C   UNL     1      47.175   6.111  13.104  0.00  0.00    +0.000 A 
ATOM      4  C   UNL     1      46.598   5.914  11.840  0.00  0.00    +0.000 A 
ATOM      5  C   UNL     1      45.633   4.907  11.737  0.00  0.00    +0.000 A 
ATOM      6  C   UNL     1      45.298   4.175  12.881  0.00  0.00    +0.000 A 
ATOM      7  N   UNL     1      45.839   4.332  14.121  0.00  0.00    +0.000 NA
ATOM      8  C   UNL     1      46.762   5.310  14.154  0.00  0.00    +0.000 A 
ATOM      9  N   UNL     1      47.550   5.684  15.225  0.00  0.00    +0.000 N 
ENDROOT
BRANCH   5  10
ATOM     10  C   UNL     1      44.946   4.558  10.467  0.00  0.00    +0.000 C 
ATOM     11  N   UNL     1      45.373   5.138   9.307  0.00  0.00    +0.000 N 
ATOM     12  O   UNL     1      44.018   3.757  10.451  0.00  0.00    +0.000 OA
ATOM     13  H   UNL     1      46.131   5.796   9.223  0.00  0.00    +0.000 HD
ATOM     14  H   UNL     1      44.890   4.869   8.457  0.00  0.00    +0.000 HD
ENDBRANCH   5  10
BRANCH   1  16
ATOM     15  C   UNL     1      49.523   8.949  14.975  0.00  0.00    +0.000 C 
ATOM     16  C   UNL     1      49.346   7.557  15.639  0.00  0.00    +0.000 C 
ATOM     17  C   UNL     1      50.748   6.940  15.703  0.00  0.00    +0.000 C 
ATOM     18  C   UNL     1      48.806   7.796  17.059  0.00  0.00    +0.000 C 
ENDBRANCH   1  16
BRANCH   9  19
ATOM     19  C   UNL     1      47.496   4.982  16.500  0.00  0.00    +0.000 C 
BRANCH  19  20
ATOM     20  C   UNL     1      48.636   4.003  16.670  0.00  0.00    +0.000 A 
ATOM     21  C   UNL     1      49.757   4.294  17.447  0.00  0.00    +0.000 A 
ATOM     22  C   UNL     1      50.678   3.285  17.712  0.00  0.00    +0.000 A 
ATOM     23  C   UNL     1      50.485   2.025  17.164  0.00  0.00    +0.000 A 
ATOM     24  C   UNL     1      49.394   1.836  16.337  0.00  0.00    +0.000 A 
ATOM     25  N   UNL     1      48.477   2.793  16.071  0.00  0.00    +0.000 NA
ENDBRANCH  19  20
ENDBRANCH   9  19
TORSDOF 4
ENDMDL
MODEL 8
REMARK VINA RESULT:    -5.274      4.387      6.374
REMARK INTER + INTRA:          -7.214
REMARK INTER:                  -7.057
REMARK INTRA:                  -0.157
REMARK UNBOUND:                -0.707
REMARK  Name = 
REMARK  7 active torsions:
REMARK  status: ('A' for Active; 'I' for Inactive)
REMARK    1  A    between atoms: C_1  and  C_2
REMARK    2  A    between atoms: C_2  and  C_3
REMARK    3  A    between atoms: C_2  and  C_4
REMARK    4  A    between atoms: C_2  and  C_5
REMARK    5  A    between atoms: C_9  and  C_10
REMARK    6  A    between atoms: N_16  and  C_17
REMARK    7  A    between atoms: C_17  and  C_18
REMARK                            x       y       z     vdW  Elec       q    Type
REMARK                         _______ _______ _______ _____ _____    ______ ____
ROOT
ATOM      1  C   UNL     1      47.773   4.615  16.151  0.00  0.00    +0.000 A 
ATOM      2  N   UNL     1      46.997   4.031  15.240  0.00  0.00    +0.000 NA
ATOM      3  C   UNL     1      46.890   4.898  14.192  0.00  0.00    +0.000 A 
ATOM      4  C   UNL     1      46.170   4.801  12.992  0.00  0.00    +0.000 A 
ATOM      5  C   UNL     1      46.249   5.890  12.119  0.00  0.00    +0.000 A 
ATOM      6  C   UNL     1      47.037   6.988  12.480  0.00  0.00    +0.000 A 
ATOM      7  N   UNL     1      47.745   7.121  13.636  0.00  0.00    +0.000 NA
ATOM      8  C   UNL     1      47.625   6.045  14.435  0.00  0.00    +0.000 A 
ATOM      9  N   UNL     1      48.149   5.877  15.701  0.00  0.00    +0.000 N 
ENDROOT
BRANCH   5  10
ATOM     10  C   UNL     1      45.528   5.955  10.822  0.00  0.00    +0.000 C 
ATOM     11  N   UNL     1      44.223   6.356  10.814  0.00  0.00    +0.000 N 
ATOM     12  O   UNL     1      46.089   5.664   9.772  0.00  0.00    +0.000 OA
ATOM     13  H   UNL     1      43.685   6.624  11.623  0.00  0.00    +0.000 HD
ATOM     14  H   UNL     1      43.764   6.400   9.912  0.00  0.00    +0.000 HD
ENDBRANCH   5  10
BRANCH   1  16
ATOM     15  C   UNL     1      49.603   3.348  17.300  0.00  0.00    +0.000 C 
ATOM     16  C   UNL     1      48.169   3.919  17.454  0.00  0.00    +0.000 C 
ATOM     17  C   UNL     1      47.274   2.724  17.801  0.00  0.00    +0.000 C 
ATOM     18  C   UNL     1      48.199   4.916  18.625  0.00  0.00    +0.000 C 
ENDBRANCH   1  16
BRANCH   9  19
ATOM     19  C   UNL     1      48.896   6.934  16.370  0.00  0.00    +0.000 C 
BRANCH  19  20
ATOM     20  C   UNL     1      50.372   6.897  16.040  0.00  0.00    +0.000 A 
ATOM     21  C   UNL     1      50.935   7.715  15.060  0.00  0.00    +0.000 A 
ATOM     22  C   UNL     1      52.319   7.766  14.935  0.00  0.00    +0.000 A 
ATOM     23  C   UNL     1      53.108   6.974  15.757  0.00  0.00    +0.000 A 
ATOM     24  C   UNL     1      52.474   6.129  16.649  0.00  0.00    +0.000 A 
ATOM     25  N   UNL     1      51.132   6.066  16.800  0.00  0.00    +0.000 NA
ENDBRANCH  19  20
ENDBRANCH   9  19
TORSDOF 4
ENDMDL
MODEL 9
REMARK VINA RESULT:    -5.223      4.352      6.740
REMARK INTER + INTRA:          -7.152
REMARK INTER:                  -6.940
REMARK INTRA:                  -0.212
REMARK UNBOUND:                -0.707
REMARK  Name = 
REMARK  7 active torsions:
REMARK  status: ('A' for Active; 'I' for Inactive)
REMARK    1  A    between atoms: C_1  and  C_2
REMARK    2  A    between atoms: C_2  and  C_3
REMARK    3  A    between atoms: C_2  and  C_4
REMARK    4  A    between atoms: C_2  and  C_5
REMARK    5  A    between atoms: C_9  and  C_10
REMARK    6  A    between atoms: N_16  and  C_17
REMARK    7  A    between atoms: C_17  and  C_18
REMARK                            x       y       z     vdW  Elec       q    Type
REMARK                         _______ _______ _______ _____ _____    ______ ____
ROOT
ATOM      1  C   UNL     1      46.134   5.099  13.140  0.00  0.00    +0.000 A 
ATOM      2  N   UNL     1      46.321   3.989  13.852  0.00  0.00    +0.000 NA
ATOM      3  C   UNL     1      47.134   4.317  14.897  0.00  0.00    +0.000 A 
ATOM      4  C   UNL     1      47.670   3.528  15.925  0.00  0.00    +0.000 A 
ATOM      5  C   UNL     1      48.502   4.170  16.846  0.00  0.00    +0.000 A 
ATOM      6  C   UNL     1      48.739   5.541  16.699  0.00  0.00    +0.000 A 
ATOM      7  N   UNL     1      48.243   6.339  15.713  0.00  0.00    +0.000 NA
ATOM      8  C   UNL     1      47.454   5.663  14.858  0.00  0.00    +0.000 A 
ATOM      9  N   UNL     1      46.850   6.145  13.714  0.00  0.00    +0.000 N 
ENDROOT
BRANCH   5  10
ATOM     10  C   UNL     1      49.167   3.472  17.977  0.00  0.00    +0.000 C 
ATOM     11  N   UNL     1      48.398   2.998  19.000  0.00  0.00    +0.000 N 
ATOM     12  O   UNL     1      50.382   3.312  17.993  0.00  0.00    +0.000 OA
ATOM     13  H   UNL     1      47.396   3.073  19.066  0.00  0.00    +0.000 HD
ATOM     14  H   UNL     1      48.881   2.516  19.750  0.00  0.00    +0.000 HD
ENDBRANCH   5  10
BRANCH   1  16
ATOM     15  C   UNL     1      43.926   5.903  12.273  0.00  0.00    +0.000 C 
ATOM     16  C   UNL     1      45.226   5.137  11.910  0.00  0.00    +0.000 C 
ATOM     17  C   UNL     1      44.780   3.748  11.441  0.00  0.00    +0.000 C 
ATOM     18  C   UNL     1      45.895   5.898  10.754  0.00  0.00    +0.000 C 
ENDBRANCH   1  16
BRANCH   9  19
ATOM     19  C   UNL     1      47.053   7.513  13.256  0.00  0.00    +0.000 C 
BRANCH  19  20
ATOM     20  C   UNL     1      48.495   7.794  12.895  0.00  0.00    +0.000 A 
ATOM     21  C   UNL     1      49.121   7.185  11.808  0.00  0.00    +0.000 A 
ATOM     22  C   UNL     1      50.383   7.625  11.420  0.00  0.00    +0.000 A 
ATOM     23  C   UNL     1      51.009   8.627  12.148  0.00  0.00    +0.000 A 
ATOM     24  C   UNL     1      50.359   9.125  13.262  0.00  0.00    +0.000 A 
ATOM     25  N   UNL     1      49.129   8.726  13.655  0.00  0.00    +0.000 NA
ENDBRANCH  19  20
ENDBRANCH   9  19
TORSDOF 4
ENDMDL
