MODEL 1
REMARK VINA RESULT:    -8.313      0.000      0.000
REMARK INTER + INTRA:         -12.203
REMARK INTER:                 -11.229
REMARK INTRA:                  -0.975
REMARK UNBOUND:                -0.975
REMARK  Name = 
REMARK  6 active torsions:
REMARK  status: ('A' for Active; 'I' for Inactive)
REMARK    1  A    between atoms: C_2  and  C_25
REMARK    2  A    between atoms: N_3  and  C_4
REMARK    3  A    between atoms: C_4  and  C_5
REMARK    4  A    between atoms: C_8  and  C_9
REMARK    5  A    between atoms: C_9  and  N_10
REMARK    6  A    between atoms: C_11  and  C_13
REMARK                            x       y       z     vdW  Elec       q    Type
REMARK                         _______ _______ _______ _____ _____    ______ ____
ROOT
ATOM      1  C   UNL     1      44.952   6.232  11.152  0.00  0.00    +0.000 A 
ATOM      2  C   UNL     1      44.625   7.560  11.427  0.00  0.00    +0.000 A 
ATOM      3  C   UNL     1      45.422   8.307  12.292  0.00  0.00    +0.000 A 
ATOM      4  C   UNL     1      46.526   7.699  12.885  0.00  0.00    +0.000 A 
ATOM      5  N   UNL     1      46.872   6.413  12.621  0.00  0.00    +0.000 NA
ATOM      6  C   UNL     1      46.084   5.715  11.770  0.00  0.00    +0.000 A 
ENDROOT
BRANCH   1   7
ATOM      7  C   UNL     1      44.114   5.397  10.236  0.00  0.00    +0.000 C 
BRANCH   7  10
ATOM      8  O   UNL     1      44.356   2.636  10.116  0.00  0.00    +0.000 OA
ATOM      9  C   UNL     1      44.944   3.310   9.276  0.00  0.00    +0.000 C 
ATOM     10  N   UNL     1      44.896   4.689   9.253  0.00  0.00    +0.000 N 
ATOM     11  H   UNL     1      45.438   5.173   8.543  0.00  0.00    +0.000 HD
BRANCH   9  12
ATOM     12  C   UNL     1      45.764   2.663   8.203  0.00  0.00    +0.000 A 
ATOM     13  C   UNL     1      46.050   3.388   7.051  0.00  0.00    +0.000 A 
ATOM     14  C   UNL     1      46.795   2.774   6.051  0.00  0.00    +0.000 A 
ATOM     15  C   UNL     1      47.219   1.462   6.233  0.00  0.00    +0.000 A 
ATOM     16  C   UNL     1      46.891   0.817   7.419  0.00  0.00    +0.000 A 
ATOM     17  N   UNL     1      46.177   1.383   8.419  0.00  0.00    +0.000 NA
ENDBRANCH   9  12
ENDBRANCH   7  10
ENDBRANCH   1   7
BRANCH   4  18
ATOM     18  C   UNL     1      47.382   8.460  13.870  0.00  0.00    +0.000 C 
BRANCH  18  19
ATOM     19  N   UNL     1      47.791   7.654  14.996  0.00  0.00    +0.000 N 
ATOM     20  C   UNL     1      49.011   7.034  15.059  0.00  0.00    +0.000 C 
ATOM     21  O   UNL     1      49.833   7.109  14.150  0.00  0.00    +0.000 OA
ATOM     22  H   UNL     1      47.043   7.345  15.608  0.00  0.00    +0.000 HD
BRANCH  20  23
ATOM     23  C   UNL     1      49.313   6.336  16.315  0.00  0.00    +0.000 A 
ATOM     24  C   UNL     1      50.317   6.809  17.149  0.00  0.00    +0.000 A 
ATOM     25  S   UNL     1      50.515   5.885  18.569  0.00  0.00    +0.000 S 
ATOM     26  C   UNL     1      49.291   4.799  18.100  0.00  0.00    +0.000 A 
ATOM     27  N   UNL     1      48.973   3.722  18.872  0.00  0.00    +0.000 NA
ATOM     28  C   UNL     1      48.048   2.969  18.377  0.00  0.00    +0.000 A 
ATOM     29  N   UNL     1      47.399   3.204  17.194  0.00  0.00    +0.000 N 
ATOM     30  C   UNL     1      47.644   4.306  16.414  0.00  0.00    +0.000 A 
ATOM     31  O   UNL     1      46.975   4.537  15.417  0.00  0.00    +0.000 OA
ATOM     32  C   UNL     1      48.715   5.158  16.898  0.00  0.00    +0.000 A 
ATOM     33  H   UNL     1      46.664   2.588  16.872  0.00  0.00    +0.000 HD
ENDBRANCH  20  23
ENDBRANCH  18  19
ENDBRANCH   4  18
TORSDOF 6
ENDMDL
MODEL 2
REMARK VINA RESULT:    -8.053      0.671      0.974
REMARK INTER + INTRA:         -11.853
REMARK INTER:                 -10.847
REMARK INTRA:                  -1.006
REMARK UNBOUND:                -0.975
REMARK  Name = 
REMARK  6 active torsions:
REMARK  status: ('A' for Active; 'I' for Inactive)
REMARK    1  A    between atoms: C_2  and  C_25
REMARK    2  A    between atoms: N_3  and  C_4
REMARK    3  A    between atoms: C_4  and  C_5
REMARK    4  A    between atoms: C_8  and  C_9
REMARK    5  A    between atoms: C_9  and  N_10
REMARK    6  A    between atoms: C_11  and  C_13
REMARK                            x       y       z     vdW  Elec       q    Type
REMARK                         _______ _______ _______ _____ _____    ______ ____
ROOT
ATOM      1  C   UNL     1      45.125   6.439  11.358  0.00  0.00    +0.000 A 
ATOM      2  C   UNL     1      44.739   7.735  11.702  0.00  0.00    +0.000 A 
ATOM      3  C   UNL     1      45.536   8.493  12.558  0.00  0.00    +0.000 A 
ATOM      4  C   UNL     1      46.699   7.926  13.074  0.00  0.00    +0.000 A 
ATOM      5  N   UNL     1      47.102   6.673  12.742  0.00  0.00    +0.000 NA
ATOM      6  C   UNL     1      46.313   5.965  11.900  0.00  0.00    +0.000 A 
ENDROOT
BRANCH   1   7
ATOM      7  C   UNL     1      44.291   5.594  10.448  0.00  0.00    +0.000 C 
BRANCH   7  10
ATOM      8  O   UNL     1      43.877   2.941   9.748  0.00  0.00    +0.000 OA
ATOM      9  C   UNL     1      44.783   3.557   9.194  0.00  0.00    +0.000 C 
ATOM     10  N   UNL     1      45.077   4.875   9.476  0.00  0.00    +0.000 N 
ATOM     11  H   UNL     1      45.864   5.301   8.996  0.00  0.00    +0.000 HD
BRANCH   9  12
ATOM     12  C   UNL     1      45.639   2.900   8.156  0.00  0.00    +0.000 A 
ATOM     13  C   UNL     1      46.065   1.593   8.369  0.00  0.00    +0.000 A 
ATOM     14  C   UNL     1      46.874   0.996   7.410  0.00  0.00    +0.000 A 
ATOM     15  C   UNL     1      47.235   1.724   6.281  0.00  0.00    +0.000 A 
ATOM     16  C   UNL     1      46.758   3.022   6.149  0.00  0.00    +0.000 A 
ATOM     17  N   UNL     1      45.961   3.634   7.055  0.00  0.00    +0.000 NA
ENDBRANCH   9  12
ENDBRANCH   7  10
ENDBRANCH   1   7
BRANCH   4  18
ATOM     18  C   UNL     1      47.558   8.696  14.049  0.00  0.00    +0.000 C 
BRANCH  18  19
ATOM     19  N   UNL     1      47.951   7.909  15.193  0.00  0.00    +0.000 N 
ATOM     20  C   UNL     1      49.216   7.411  15.352  0.00  0.00    +0.000 C 
ATOM     21  O   UNL     1      50.100   7.586  14.518  0.00  0.00    +0.000 OA
ATOM     22  H   UNL     1      47.188   7.514  15.735  0.00  0.00    +0.000 HD
BRANCH  20  23
ATOM     23  C   UNL     1      49.480   6.717  16.618  0.00  0.00    +0.000 A 
ATOM     24  C   UNL     1      50.378   7.254  17.531  0.00  0.00    +0.000 A 
ATOM     25  S   UNL     1      50.545   6.323  18.951  0.00  0.00    +0.000 S 
ATOM     26  C   UNL     1      49.451   5.152  18.379  0.00  0.00    +0.000 A 
ATOM     27  N   UNL     1      49.165   4.039  19.112  0.00  0.00    +0.000 NA
ATOM     28  C   UNL     1      48.343   3.223  18.541  0.00  0.00    +0.000 A 
ATOM     29  N   UNL     1      47.767   3.426  17.315  0.00  0.00    +0.000 N 
ATOM     30  C   UNL     1      47.978   4.558  16.568  0.00  0.00    +0.000 A 
ATOM     31  O   UNL     1      47.369   4.752  15.527  0.00  0.00    +0.000 OA
ATOM     32  C   UNL     1      48.938   5.485  17.142  0.00  0.00    +0.000 A 
ATOM     33  H   UNL     1      47.110   2.760  16.931  0.00  0.00    +0.000 HD
ENDBRANCH  20  23
ENDBRANCH  18  19
ENDBRANCH   4  18
TORSDOF 6
ENDMDL
MODEL 3
REMARK VINA RESULT:    -7.666      1.780      2.132
REMARK INTER + INTRA:         -11.329
REMARK INTER:                 -10.526
REMARK INTRA:                  -0.803
REMARK UNBOUND:                -0.975
REMARK  Name = 
REMARK  6 active torsions:
REMARK  status: ('A' for Active; 'I' for Inactive)
REMARK    1  A    between atoms: C_2  and  C_25
REMARK    2  A    between atoms: N_3  and  C_4
REMARK    3  A    between atoms: C_4  and  C_5
REMARK    4  A    between atoms: C_8  and  C_9
REMARK    5  A    between atoms: C_9  and  N_10
REMARK    6  A    between atoms: C_11  and  C_13
REMARK                            x       y       z     vdW  Elec       q    Type
REMARK                         _______ _______ _______ _____ _____    ______ ____
ROOT
ATOM      1  C   UNL     1      45.139   6.248  11.406  0.00  0.00    +0.000 A 
ATOM      2  C   UNL     1      44.878   7.595  11.666  0.00  0.00    +0.000 A 
ATOM      3  C   UNL     1      45.727   8.318  12.500  0.00  0.00    +0.000 A 
ATOM      4  C   UNL     1      46.815   7.670  13.080  0.00  0.00    +0.000 A 
ATOM      5  N   UNL     1      47.098   6.366  12.831  0.00  0.00    +0.000 NA
ATOM      6  C   UNL     1      46.260   5.691  12.008  0.00  0.00    +0.000 A 
ENDROOT
BRANCH   1   7
ATOM      7  C   UNL     1      44.244   5.438  10.523  0.00  0.00    +0.000 C 
BRANCH   7  10
ATOM      8  O   UNL     1      44.461   2.679  10.326  0.00  0.00    +0.000 OA
ATOM      9  C   UNL     1      45.003   3.370   9.468  0.00  0.00    +0.000 C 
ATOM     10  N   UNL     1      44.963   4.749   9.480  0.00  0.00    +0.000 N 
ATOM     11  H   UNL     1      45.465   5.247   8.751  0.00  0.00    +0.000 HD
BRANCH   9  12
ATOM     12  C   UNL     1      45.754   2.744   8.335  0.00  0.00    +0.000 A 
ATOM     13  C   UNL     1      46.012   3.507   7.200  0.00  0.00    +0.000 A 
ATOM     14  C   UNL     1      46.694   2.913   6.145  0.00  0.00    +0.000 A 
ATOM     15  C   UNL     1      47.084   1.583   6.254  0.00  0.00    +0.000 A 
ATOM     16  C   UNL     1      46.789   0.900   7.427  0.00  0.00    +0.000 A 
ATOM     17  N   UNL     1      46.137   1.445   8.480  0.00  0.00    +0.000 NA
ENDBRANCH   9  12
ENDBRANCH   7  10
ENDBRANCH   1   7
BRANCH   4  18
ATOM     18  C   UNL     1      47.726   8.407  14.033  0.00  0.00    +0.000 C 
BRANCH  18  19
ATOM     19  N   UNL     1      47.888   7.724  15.294  0.00  0.00    +0.000 N 
ATOM     20  C   UNL     1      49.010   7.005  15.610  0.00  0.00    +0.000 C 
ATOM     21  O   UNL     1      49.949   6.878  14.830  0.00  0.00    +0.000 OA
ATOM     22  H   UNL     1      47.034   7.573  15.822  0.00  0.00    +0.000 HD
BRANCH  20  23
ATOM     23  C   UNL     1      49.060   6.456  16.971  0.00  0.00    +0.000 A 
ATOM     24  C   UNL     1      49.606   5.199  17.193  0.00  0.00    +0.000 A 
ATOM     25  S   UNL     1      49.596   4.731  18.834  0.00  0.00    +0.000 S 
ATOM     26  C   UNL     1      48.829   6.178  19.299  0.00  0.00    +0.000 A 
ATOM     27  N   UNL     1      48.489   6.408  20.599  0.00  0.00    +0.000 NA
ATOM     28  C   UNL     1      47.886   7.532  20.799  0.00  0.00    +0.000 A 
ATOM     29  N   UNL     1      47.608   8.454  19.826  0.00  0.00    +0.000 N 
ATOM     30  C   UNL     1      47.983   8.292  18.515  0.00  0.00    +0.000 A 
ATOM     31  O   UNL     1      47.809   9.180  17.693  0.00  0.00    +0.000 OA
ATOM     32  C   UNL     1      48.618   7.019  18.225  0.00  0.00    +0.000 A 
ATOM     33  H   UNL     1      47.153   9.328  20.050  0.00  0.00    +0.000 HD
ENDBRANCH  20  23
ENDBRANCH  18  19
ENDBRANCH   4  18
TORSDOF 6
ENDMDL
MODEL 4
REMARK VINA RESULT:    -7.278      1.821      2.189
REMARK INTER + INTRA:         -10.805
REMARK INTER:                  -9.950
REMARK INTRA:                  -0.855
REMARK UNBOUND:                -0.975
REMARK  Name = 
REMARK  6 active torsions:
REMARK  status: ('A' for Active; 'I' for Inactive)
REMARK    1  A    between atoms: C_2  and  C_25
REMARK    2  A    between atoms: N_3  and  C_4
REMARK    3  A    between atoms: C_4  and  C_5
REMARK    4  A    between atoms: C_8  and  C_9
REMARK    5  A    between atoms: C_9  and  N_10
REMARK    6  A    between atoms: C_11  and  C_13
REMARK                            x       y       z     vdW  Elec       q    Type
REMARK                         _______ _______ _______ _____ _____    ______ ____
ROOT
ATOM      1  C   UNL     1      45.134   6.057  11.615  0.00  0.00    +0.000 A 
ATOM      2  C   UNL     1      44.940   7.435  11.508  0.00  0.00    +0.000 A 
ATOM      3  C   UNL     1      45.687   8.304  12.300  0.00  0.00    +0.000 A 
ATOM      4  C   UNL     1      46.603   7.774  13.205  0.00  0.00    +0.000 A 
ATOM      5  N   UNL     1      46.820   6.438  13.316  0.00  0.00    +0.000 NA
ATOM      6  C   UNL     1      46.086   5.618  12.527  0.00  0.00    +0.000 A 
ENDROOT
BRANCH   1   7
ATOM      7  C   UNL     1      44.344   5.092  10.787  0.00  0.00    +0.000 C 
BRANCH   7  10
ATOM      8  O   UNL     1      44.014   2.482   9.908  0.00  0.00    +0.000 OA
ATOM      9  C   UNL     1      44.878   3.173   9.375  0.00  0.00    +0.000 C 
ATOM     10  N   UNL     1      45.128   4.478   9.745  0.00  0.00    +0.000 N 
ATOM     11  H   UNL     1      45.882   4.971   9.275  0.00  0.00    +0.000 HD
BRANCH   9  12
ATOM     12  C   UNL     1      45.727   2.628   8.269  0.00  0.00    +0.000 A 
ATOM     13  C   UNL     1      45.989   3.437   7.167  0.00  0.00    +0.000 A 
ATOM     14  C   UNL     1      46.763   2.918   6.136  0.00  0.00    +0.000 A 
ATOM     15  C   UNL     1      47.237   1.614   6.235  0.00  0.00    +0.000 A 
ATOM     16  C   UNL     1      46.929   0.882   7.375  0.00  0.00    +0.000 A 
ATOM     17  N   UNL     1      46.189   1.354   8.404  0.00  0.00    +0.000 NA
ENDBRANCH   9  12
ENDBRANCH   7  10
ENDBRANCH   1   7
BRANCH   4  18
ATOM     18  C   UNL     1      47.391   8.682  14.119  0.00  0.00    +0.000 C 
BRANCH  18  19
ATOM     19  N   UNL     1      48.669   8.127  14.495  0.00  0.00    +0.000 N 
ATOM     20  C   UNL     1      49.639   8.859  15.125  0.00  0.00    +0.000 C 
ATOM     21  O   UNL     1      49.492  10.048  15.395  0.00  0.00    +0.000 OA
ATOM     22  H   UNL     1      48.920   7.257  14.036  0.00  0.00    +0.000 HD
BRANCH  20  23
ATOM     23  C   UNL     1      50.842   8.121  15.530  0.00  0.00    +0.000 A 
ATOM     24  C   UNL     1      52.099   8.600  15.189  0.00  0.00    +0.000 A 
ATOM     25  S   UNL     1      53.378   7.623  15.757  0.00  0.00    +0.000 S 
ATOM     26  C   UNL     1      52.293   6.508  16.447  0.00  0.00    +0.000 A 
ATOM     27  N   UNL     1      52.744   5.385  17.075  0.00  0.00    +0.000 NA
ATOM     28  C   UNL     1      51.808   4.615  17.522  0.00  0.00    +0.000 A 
ATOM     29  N   UNL     1      50.468   4.873  17.418  0.00  0.00    +0.000 N 
ATOM     30  C   UNL     1      49.970   6.018  16.848  0.00  0.00    +0.000 A 
ATOM     31  O   UNL     1      48.772   6.263  16.863  0.00  0.00    +0.000 OA
ATOM     32  C   UNL     1      50.979   6.894  16.279  0.00  0.00    +0.000 A 
ATOM     33  H   UNL     1      49.783   4.241  17.811  0.00  0.00    +0.000 HD
ENDBRANCH  20  23
ENDBRANCH  18  19
ENDBRANCH   4  18
TORSDOF 6
ENDMDL
MODEL 5
REMARK VINA RESULT:    -7.132      1.833      2.533
REMARK INTER + INTRA:         -10.608
REMARK INTER:                  -9.689
REMARK INTRA:                  -0.918
REMARK UNBOUND:                -0.975
REMARK  Name = 
REMARK  6 active torsions:
REMARK  status: ('A' for Active; 'I' for Inactive)
REMARK    1  A    between atoms: C_2  and  C_25
REMARK    2  A    between atoms: N_3  and  C_4
REMARK    3  A    between atoms: C_4  and  C_5
REMARK    4  A    between atoms: C_8  and  C_9
REMARK    5  A    between atoms: C_9  and  N_10
REMARK    6  A    between atoms: C_11  and  C_13
REMARK                            x       y       z     vdW  Elec       q    Type
REMARK                         _______ _______ _______ _____ _____    ______ ____
ROOT
ATOM      1  C   UNL     1      45.542   5.814  11.858  0.00  0.00    +0.000 A 
ATOM      2  C   UNL     1      46.121   5.141  12.934  0.00  0.00    +0.000 A 
ATOM      3  C   UNL     1      46.976   5.821  13.799  0.00  0.00    +0.000 A 
ATOM      4  C   UNL     1      47.253   7.164  13.556  0.00  0.00    +0.000 A 
ATOM      5  N   UNL     1      46.690   7.843  12.524  0.00  0.00    +0.000 NA
ATOM      6  C   UNL     1      45.856   7.159  11.706  0.00  0.00    +0.000 A 
ENDROOT
BRANCH   1   7
ATOM      7  C   UNL     1      44.626   5.115  10.903  0.00  0.00    +0.000 C 
BRANCH   7  10
ATOM      8  O   UNL     1      44.054   2.575   9.945  0.00  0.00    +0.000 OA
ATOM      9  C   UNL     1      44.962   3.208   9.414  0.00  0.00    +0.000 C 
ATOM     10  N   UNL     1      45.331   4.474   9.821  0.00  0.00    +0.000 N 
ATOM     11  H   UNL     1      46.115   4.916   9.350  0.00  0.00    +0.000 HD
BRANCH   9  12
ATOM     12  C   UNL     1      45.736   2.633   8.269  0.00  0.00    +0.000 A 
ATOM     13  C   UNL     1      45.955   3.424   7.146  0.00  0.00    +0.000 A 
ATOM     14  C   UNL     1      46.659   2.877   6.079  0.00  0.00    +0.000 A 
ATOM     15  C   UNL     1      47.109   1.564   6.168  0.00  0.00    +0.000 A 
ATOM     16  C   UNL     1      46.849   0.851   7.332  0.00  0.00    +0.000 A 
ATOM     17  N   UNL     1      46.177   1.351   8.394  0.00  0.00    +0.000 NA
ENDBRANCH   9  12
ENDBRANCH   7  10
ENDBRANCH   1   7
BRANCH   4  18
ATOM     18  C   UNL     1      48.217   7.919  14.439  0.00  0.00    +0.000 C 
BRANCH  18  19
ATOM     19  N   UNL     1      48.832   7.082  15.443  0.00  0.00    +0.000 N 
ATOM     20  C   UNL     1      48.858   7.414  16.771  0.00  0.00    +0.000 C 
ATOM     21  O   UNL     1      48.374   8.459  17.195  0.00  0.00    +0.000 OA
ATOM     22  H   UNL     1      49.475   6.379  15.091  0.00  0.00    +0.000 HD
BRANCH  20  23
ATOM     23  C   UNL     1      49.431   6.408  17.673  0.00  0.00    +0.000 A 
ATOM     24  C   UNL     1      48.661   5.873  18.697  0.00  0.00    +0.000 A 
ATOM     25  S   UNL     1      49.484   4.708  19.633  0.00  0.00    +0.000 S 
ATOM     26  C   UNL     1      50.910   4.906  18.725  0.00  0.00    +0.000 A 
ATOM     27  N   UNL     1      52.042   4.212  19.034  0.00  0.00    +0.000 NA
ATOM     28  C   UNL     1      53.055   4.485  18.280  0.00  0.00    +0.000 A 
ATOM     29  N   UNL     1      53.035   5.372  17.237  0.00  0.00    +0.000 N 
ATOM     30  C   UNL     1      51.904   6.048  16.853  0.00  0.00    +0.000 A 
ATOM     31  O   UNL     1      51.897   6.754  15.854  0.00  0.00    +0.000 OA
ATOM     32  C   UNL     1      50.749   5.818  17.702  0.00  0.00    +0.000 A 
ATOM     33  H   UNL     1      53.856   5.525  16.667  0.00  0.00    +0.000 HD
ENDBRANCH  20  23
ENDBRANCH  18  19
ENDBRANCH   4  18
TORSDOF 6
ENDMDL
MODEL 6
REMARK VINA RESULT:    -6.933      4.029      8.636
REMARK INTER + INTRA:         -10.339
REMARK INTER:                  -9.247
REMARK INTRA:                  -1.092
REMARK UNBOUND:                -0.975
REMARK  Name = 
REMARK  6 active torsions:
REMARK  status: ('A' for Active; 'I' for Inactive)
REMARK    1  A    between atoms: C_2  and  C_25
REMARK    2  A    between atoms: N_3  and  C_4
REMARK    3  A    between atoms: C_4  and  C_5
REMARK    4  A    between atoms: C_8  and  C_9
REMARK    5  A    between atoms: C_9  and  N_10
REMARK    6  A    between atoms: C_11  and  C_13
REMARK                            x       y       z     vdW  Elec       q    Type
REMARK                         _______ _______ _______ _____ _____    ______ ____
ROOT
ATOM      1  C   UNL     1      49.618   4.515  17.521  0.00  0.00    +0.000 A 
ATOM      2  C   UNL     1      48.359   4.307  16.955  0.00  0.00    +0.000 A 
ATOM      3  C   UNL     1      47.903   5.155  15.948  0.00  0.00    +0.000 A 
ATOM      4  C   UNL     1      48.711   6.213  15.539  0.00  0.00    +0.000 A 
ATOM      5  N   UNL     1      49.945   6.426  16.065  0.00  0.00    +0.000 NA
ATOM      6  C   UNL     1      50.366   5.580  17.036  0.00  0.00    +0.000 A 
ENDROOT
BRANCH   1   7
ATOM      7  C   UNL     1      50.137   3.631  18.611  0.00  0.00    +0.000 C 
BRANCH   7  10
ATOM      8  O   UNL     1      50.822   1.290  17.289  0.00  0.00    +0.000 OA
ATOM      9  C   UNL     1      51.724   2.013  17.701  0.00  0.00    +0.000 C 
ATOM     10  N   UNL     1      51.491   3.192  18.378  0.00  0.00    +0.000 N 
ATOM     11  H   UNL     1      52.294   3.716  18.714  0.00  0.00    +0.000 HD
BRANCH   9  12
ATOM     12  C   UNL     1      53.161   1.651  17.487  0.00  0.00    +0.000 A 
ATOM     13  C   UNL     1      54.140   2.596  17.777  0.00  0.00    +0.000 A 
ATOM     14  C   UNL     1      55.470   2.259  17.559  0.00  0.00    +0.000 A 
ATOM     15  C   UNL     1      55.775   1.001  17.053  0.00  0.00    +0.000 A 
ATOM     16  C   UNL     1      54.732   0.118  16.798  0.00  0.00    +0.000 A 
ATOM     17  N   UNL     1      53.427   0.405  17.007  0.00  0.00    +0.000 NA
ENDBRANCH   9  12
ENDBRANCH   7  10
ENDBRANCH   1   7
BRANCH   4  18
ATOM     18  C   UNL     1      48.228   7.185  14.489  0.00  0.00    +0.000 C 
BRANCH  18  19
ATOM     19  N   UNL     1      46.981   6.782  13.885  0.00  0.00    +0.000 N 
ATOM     20  C   UNL     1      46.781   6.777  12.530  0.00  0.00    +0.000 C 
ATOM     21  O   UNL     1      47.647   7.134  11.738  0.00  0.00    +0.000 OA
ATOM     22  H   UNL     1      46.178   6.764  14.507  0.00  0.00    +0.000 HD
BRANCH  20  23
ATOM     23  C   UNL     1      45.491   6.244  12.073  0.00  0.00    +0.000 A 
ATOM     24  C   UNL     1      44.555   7.092  11.495  0.00  0.00    +0.000 A 
ATOM     25  S   UNL     1      43.125   6.299  11.009  0.00  0.00    +0.000 S 
ATOM     26  C   UNL     1      43.694   4.802  11.586  0.00  0.00    +0.000 A 
ATOM     27  N   UNL     1      42.922   3.680  11.511  0.00  0.00    +0.000 NA
ATOM     28  C   UNL     1      43.469   2.625  12.016  0.00  0.00    +0.000 A 
ATOM     29  N   UNL     1      44.721   2.582  12.569  0.00  0.00    +0.000 N 
ATOM     30  C   UNL     1      45.556   3.672  12.613  0.00  0.00    +0.000 A 
ATOM     31  O   UNL     1      46.704   3.573  13.022  0.00  0.00    +0.000 OA
ATOM     32  C   UNL     1      44.968   4.899  12.107  0.00  0.00    +0.000 A 
ATOM     33  H   UNL     1      45.104   1.718  12.927  0.00  0.00    +0.000 HD
ENDBRANCH  20  23
ENDBRANCH  18  19
ENDBRANCH   4  18
TORSDOF 6
ENDMDL
MODEL 7
REMARK VINA RESULT:    -6.717      4.231      5.250
REMARK INTER + INTRA:         -10.047
REMARK INTER:                  -9.156
REMARK INTRA:                  -0.891
REMARK UNBOUND:                -0.975
REMARK  Name = 
REMARK  6 active torsions:
REMARK  status: ('A' for Active; 'I' for Inactive)
REMARK    1  A    between atoms: C_2  and  C_25
REMARK    2  A    between atoms: N_3  and  C_4
REMARK    3  A    between atoms: C_4  and  C_5
REMARK    4  A    between atoms: C_8  and  C_9
REMARK    5  A    between atoms: C_9  and  N_10
REMARK    6  A    between atoms: C_11  and  C_13
REMARK                            x       y       z     vdW  Elec       q    Type
REMARK                         _______ _______ _______ _____ _____    ______ ____
ROOT
ATOM      1  C   UNL     1      45.369   6.711  11.283  0.00  0.00    +0.000 A 
ATOM      2  C   UNL     1      46.701   6.511  11.648  0.00  0.00    +0.000 A 
ATOM      3  C   UNL     1      47.437   7.562  12.191  0.00  0.00    +0.000 A 
ATOM      4  C   UNL     1      46.829   8.806  12.338  0.00  0.00    +0.000 A 
ATOM      5  N   UNL     1      45.531   9.021  12.004  0.00  0.00    +0.000 NA
ATOM      6  C   UNL     1      44.837   7.979  11.488  0.00  0.00    +0.000 A 
ENDROOT
BRANCH   1   7
ATOM      7  C   UNL     1      44.549   5.609  10.690  0.00  0.00    +0.000 C 
BRANCH   7  10
ATOM      8  O   UNL     1      43.888   3.044   9.864  0.00  0.00    +0.000 OA
ATOM      9  C   UNL     1      44.842   3.602   9.329  0.00  0.00    +0.000 C 
ATOM     10  N   UNL     1      45.257   4.872   9.673  0.00  0.00    +0.000 N 
ATOM     11  H   UNL     1      46.076   5.249   9.204  0.00  0.00    +0.000 HD
BRANCH   9  12
ATOM     12  C   UNL     1      45.624   2.924   8.248  0.00  0.00    +0.000 A 
ATOM     13  C   UNL     1      46.043   1.612   8.448  0.00  0.00    +0.000 A 
ATOM     14  C   UNL     1      46.785   0.995   7.448  0.00  0.00    +0.000 A 
ATOM     15  C   UNL     1      47.089   1.708   6.293  0.00  0.00    +0.000 A 
ATOM     16  C   UNL     1      46.624   3.012   6.178  0.00  0.00    +0.000 A 
ATOM     17  N   UNL     1      45.891   3.644   7.124  0.00  0.00    +0.000 NA
ENDBRANCH   9  12
ENDBRANCH   7  10
ENDBRANCH   1   7
BRANCH   4  18
ATOM     18  C   UNL     1      47.612   9.983  12.870  0.00  0.00    +0.000 C 
BRANCH  18  19
ATOM     19  N   UNL     1      49.037   9.832  12.699  0.00  0.00    +0.000 N 
ATOM     20  C   UNL     1      49.712  10.338  11.620  0.00  0.00    +0.000 C 
ATOM     21  O   UNL     1      49.144  10.941  10.715  0.00  0.00    +0.000 OA
ATOM     22  H   UNL     1      49.472   9.109  13.264  0.00  0.00    +0.000 HD
BRANCH  20  23
ATOM     23  C   UNL     1      51.172  10.186  11.646  0.00  0.00    +0.000 A 
ATOM     24  C   UNL     1      51.976  11.259  12.009  0.00  0.00    +0.000 A 
ATOM     25  S   UNL     1      53.643  10.895  12.000  0.00  0.00    +0.000 S 
ATOM     26  C   UNL     1      53.349   9.302  11.476  0.00  0.00    +0.000 A 
ATOM     27  N   UNL     1      54.378   8.442  11.231  0.00  0.00    +0.000 NA
ATOM     28  C   UNL     1      54.007   7.278  10.810  0.00  0.00    +0.000 A 
ATOM     29  N   UNL     1      52.706   6.890  10.631  0.00  0.00    +0.000 N 
ATOM     30  C   UNL     1      51.638   7.702  10.921  0.00  0.00    +0.000 A 
ATOM     31  O   UNL     1      50.490   7.288  10.846  0.00  0.00    +0.000 OA
ATOM     32  C   UNL     1      52.000   9.042  11.347  0.00  0.00    +0.000 A 
ATOM     33  H   UNL     1      52.479   5.955  10.321  0.00  0.00    +0.000 HD
ENDBRANCH  20  23
ENDBRANCH  18  19
ENDBRANCH   4  18
TORSDOF 6
ENDMDL
MODEL 8
REMARK VINA RESULT:    -6.525      4.843      7.631
REMARK INTER + INTRA:          -9.788
REMARK INTER:                  -8.883
REMARK INTRA:                  -0.906
REMARK UNBOUND:                -0.975
REMARK  Name = 
REMARK  6 active torsions:
REMARK  status: ('A' for Active; 'I' for Inactive)
REMARK    1  A    between atoms: C_2  and  C_25
REMARK    2  A    between atoms: N_3  and  C_4
REMARK    3  A    between atoms: C_4  and  C_5
REMARK    4  A    between atoms: C_8  and  C_9
REMARK    5  A    between atoms: C_9  and  N_10
REMARK    6  A    between atoms: C_11  and  C_13
REMARK                            x       y       z     vdW  Elec       q    Type
REMARK                         _______ _______ _______ _____ _____    ______ ____
ROOT
ATOM      1  C   UNL     1      50.295   8.610  12.309  0.00  0.00    +0.000 A 
ATOM      2  C   UNL     1      49.582   7.719  11.505  0.00  0.00    +0.000 A 
ATOM      3  C   UNL     1      48.213   7.551  11.701  0.00  0.00    +0.000 A 
ATOM      4  C   UNL     1      47.585   8.266  12.718  0.00  0.00    +0.000 A 
ATOM      5  N   UNL     1      48.254   9.149  13.502  0.00  0.00    +0.000 NA
ATOM      6  C   UNL     1      49.582   9.298  13.282  0.00  0.00    +0.000 A 
ENDROOT
BRANCH   1   7
ATOM      7  C   UNL     1      51.768   8.810  12.133  0.00  0.00    +0.000 C 
BRANCH   7  10
ATOM      8  O   UNL     1      52.509   9.187   9.487  0.00  0.00    +0.000 OA
ATOM      9  C   UNL     1      52.714   8.091  10.000  0.00  0.00    +0.000 C 
ATOM     10  N   UNL     1      52.374   7.798  11.305  0.00  0.00    +0.000 N 
ATOM     11  H   UNL     1      52.549   6.856  11.643  0.00  0.00    +0.000 HD
BRANCH   9  12
ATOM     12  C   UNL     1      53.359   6.985   9.224  0.00  0.00    +0.000 A 
ATOM     13  C   UNL     1      53.056   6.851   7.873  0.00  0.00    +0.000 A 
ATOM     14  C   UNL     1      53.644   5.811   7.163  0.00  0.00    +0.000 A 
ATOM     15  C   UNL     1      54.502   4.940   7.826  0.00  0.00    +0.000 A 
ATOM     16  C   UNL     1      54.750   5.153   9.176  0.00  0.00    +0.000 A 
ATOM     17  N   UNL     1      54.206   6.159   9.899  0.00  0.00    +0.000 NA
ENDBRANCH   9  12
ENDBRANCH   7  10
ENDBRANCH   1   7
BRANCH   4  18
ATOM     18  C   UNL     1      46.113   8.068  12.996  0.00  0.00    +0.000 C 
BRANCH  18  19
ATOM     19  N   UNL     1      45.649   6.747  12.646  0.00  0.00    +0.000 N 
ATOM     20  C   UNL     1      44.626   6.530  11.762  0.00  0.00    +0.000 C 
ATOM     21  O   UNL     1      44.022   7.451  11.220  0.00  0.00    +0.000 OA
ATOM     22  H   UNL     1      45.925   6.004  13.281  0.00  0.00    +0.000 HD
BRANCH  20  23
ATOM     23  C   UNL     1      44.343   5.127  11.438  0.00  0.00    +0.000 A 
ATOM     24  C   UNL     1      43.545   4.366  12.282  0.00  0.00    +0.000 A 
ATOM     25  S   UNL     1      43.310   2.766  11.740  0.00  0.00    +0.000 S 
ATOM     26  C   UNL     1      44.295   3.025  10.376  0.00  0.00    +0.000 A 
ATOM     27  N   UNL     1      44.548   2.019   9.490  0.00  0.00    +0.000 NA
ATOM     28  C   UNL     1      45.336   2.351   8.522  0.00  0.00    +0.000 A 
ATOM     29  N   UNL     1      45.877   3.596   8.347  0.00  0.00    +0.000 N 
ATOM     30  C   UNL     1      45.604   4.653   9.179  0.00  0.00    +0.000 A 
ATOM     31  O   UNL     1      46.024   5.776   8.935  0.00  0.00    +0.000 OA
ATOM     32  C   UNL     1      44.765   4.321  10.317  0.00  0.00    +0.000 A 
ATOM     33  H   UNL     1      46.470   3.800   7.553  0.00  0.00    +0.000 HD
ENDBRANCH  20  23
ENDBRANCH  18  19
ENDBRANCH   4  18
TORSDOF 6
ENDMDL
MODEL 9
REMARK VINA RESULT:    -5.890      5.080      7.142
REMARK INTER + INTRA:          -8.931
REMARK INTER:                  -8.587
REMARK INTRA:                  -0.344
REMARK UNBOUND:                -0.975
REMARK  Name = 
REMARK  6 active torsions:
REMARK  status: ('A' for Active; 'I' for Inactive)
REMARK    1  A    between atoms: C_2  and  C_25
REMARK    2  A    between atoms: N_3  and  C_4
REMARK    3  A    between atoms: C_4  and  C_5
REMARK    4  A    between atoms: C_8  and  C_9
REMARK    5  A    between atoms: C_9  and  N_10
REMARK    6  A    between atoms: C_11  and  C_13
REMARK                            x       y       z     vdW  Elec       q    Type
REMARK                         _______ _______ _______ _____ _____    ______ ____
ROOT
ATOM      1  C   UNL     1      51.745   9.017  12.135  0.00  0.00    +0.000 A 
ATOM      2  C   UNL     1      50.461   9.224  11.629  0.00  0.00    +0.000 A 
ATOM      3  C   UNL     1      49.349   8.914  12.411  0.00  0.00    +0.000 A 
ATOM      4  C   UNL     1      49.546   8.379  13.681  0.00  0.00    +0.000 A 
ATOM      5  N   UNL     1      50.786   8.183  14.200  0.00  0.00    +0.000 NA
ATOM      6  C   UNL     1      51.846   8.502  13.421  0.00  0.00    +0.000 A 
ENDROOT
BRANCH   1   7
ATOM      7  C   UNL     1      52.961   9.329  11.322  0.00  0.00    +0.000 C 
BRANCH   7  10
ATOM      8  O   UNL     1      54.459   6.995  11.415  0.00  0.00    +0.000 OA
ATOM      9  C   UNL     1      53.897   7.287  10.363  0.00  0.00    +0.000 C 
ATOM     10  N   UNL     1      53.137   8.428  10.210  0.00  0.00    +0.000 N 
ATOM     11  H   UNL     1      52.732   8.612   9.296  0.00  0.00    +0.000 HD
BRANCH   9  12
ATOM     12  C   UNL     1      54.004   6.401   9.161  0.00  0.00    +0.000 A 
ATOM     13  C   UNL     1      53.202   6.673   8.057  0.00  0.00    +0.000 A 
ATOM     14  C   UNL     1      53.294   5.835   6.951  0.00  0.00    +0.000 A 
ATOM     15  C   UNL     1      54.172   4.758   6.990  0.00  0.00    +0.000 A 
ATOM     16  C   UNL     1      54.938   4.567   8.133  0.00  0.00    +0.000 A 
ATOM     17  N   UNL     1      54.885   5.365   9.224  0.00  0.00    +0.000 NA
ENDBRANCH   9  12
ENDBRANCH   7  10
ENDBRANCH   1   7
BRANCH   4  18
ATOM     18  C   UNL     1      48.366   7.980  14.535  0.00  0.00    +0.000 C 
BRANCH  18  19
ATOM     19  N   UNL     1      47.217   7.586  13.755  0.00  0.00    +0.000 N 
ATOM     20  C   UNL     1      47.096   6.345  13.189  0.00  0.00    +0.000 C 
ATOM     21  O   UNL     1      47.969   5.488  13.293  0.00  0.00    +0.000 OA
ATOM     22  H   UNL     1      46.635   8.346  13.418  0.00  0.00    +0.000 HD
BRANCH  20  23
ATOM     23  C   UNL     1      45.823   6.068  12.513  0.00  0.00    +0.000 A 
ATOM     24  C   UNL     1      45.112   7.104  11.921  0.00  0.00    +0.000 A 
ATOM     25  S   UNL     1      43.668   6.596  11.168  0.00  0.00    +0.000 S 
ATOM     26  C   UNL     1      43.926   4.980  11.638  0.00  0.00    +0.000 A 
ATOM     27  N   UNL     1      43.020   4.007  11.337  0.00  0.00    +0.000 NA
ATOM     28  C   UNL     1      43.331   2.835  11.783  0.00  0.00    +0.000 A 
ATOM     29  N   UNL     1      44.471   2.544  12.484  0.00  0.00    +0.000 N 
ATOM     30  C   UNL     1      45.438   3.479  12.759  0.00  0.00    +0.000 A 
ATOM     31  O   UNL     1      46.489   3.162  13.297  0.00  0.00    +0.000 OA
ATOM     32  C   UNL     1      45.112   4.826  12.325  0.00  0.00    +0.000 A 
ATOM     33  H   UNL     1      44.670   1.600  12.786  0.00  0.00    +0.000 HD
ENDBRANCH  20  23
ENDBRANCH  18  19
ENDBRANCH   4  18
TORSDOF 6
ENDMDL
