MODEL 1
REMARK VINA RESULT:    -8.502      0.000      0.000
REMARK INTER + INTRA:         -13.107
REMARK INTER:                 -11.982
REMARK INTRA:                  -1.125
REMARK UNBOUND:                -1.125
REMARK  Name = 
REMARK  8 active torsions:
REMARK  status: ('A' for Active; 'I' for Inactive)
REMARK    1  A    between atoms: C_1  and  C_2
REMARK    2  A    between atoms: C_2  and  N_3
REMARK    3  A    between atoms: C_2  and  C_25
REMARK    4  A    between atoms: N_3  and  C_4
REMARK    5  A    between atoms: C_4  and  C_5
REMARK    6  A    between atoms: C_8  and  C_9
REMARK    7  A    between atoms: C_9  and  N_10
REMARK    8  A    between atoms: C_11  and  C_13
REMARK                            x       y       z     vdW  Elec       q    Type
REMARK                         _______ _______ _______ _____ _____    ______ ____
ROOT
ATOM      1  C   UNL     1      44.454   5.410  11.034  0.00  0.00    +0.000 A 
ATOM      2  C   UNL     1      44.097   5.881  12.305  0.00  0.00    +0.000 A 
ATOM      3  C   UNL     1      44.923   6.779  12.990  0.00  0.00    +0.000 A 
ATOM      4  C   UNL     1      46.115   7.235  12.410  0.00  0.00    +0.000 A 
ATOM      5  C   UNL     1      46.478   6.751  11.146  0.00  0.00    +0.000 A 
ATOM      6  C   UNL     1      45.656   5.854  10.465  0.00  0.00    +0.000 A 
ENDROOT
BRANCH   1   7
ATOM      7  C   UNL     1      43.686   4.287  10.380  0.00  0.00    +0.000 C 
BRANCH   7   8
ATOM      8  N   UNL     1      44.180   3.887   9.056  0.00  0.00    +0.000 NA
ATOM      9  H   UNL     1      44.749   4.645   8.683  0.00  0.00    +0.000 HD
BRANCH   8  11
ATOM     10  C   UNL     1      44.148   1.393   9.136  0.00  0.00    +0.000 C 
ATOM     11  C   UNL     1      45.013   2.672   9.141  0.00  0.00    +0.000 C 
BRANCH  11  12
ATOM     12  C   UNL     1      46.026   2.577   7.998  0.00  0.00    +0.000 A 
ATOM     13  C   UNL     1      46.770   1.400   7.795  0.00  0.00    +0.000 A 
ATOM     14  C   UNL     1      47.553   1.246   6.644  0.00  0.00    +0.000 A 
ATOM     15  C   UNL     1      47.601   2.253   5.684  0.00  0.00    +0.000 A 
ATOM     16  C   UNL     1      46.911   3.443   5.899  0.00  0.00    +0.000 A 
ATOM     17  C   UNL     1      46.149   3.609   7.056  0.00  0.00    +0.000 A 
ENDBRANCH  11  12
ENDBRANCH   8  11
ENDBRANCH   7   8
ENDBRANCH   1   7
BRANCH   4  18
ATOM     18  C   UNL     1      47.026   8.183  13.142  0.00  0.00    +0.000 C 
BRANCH  18  19
ATOM     19  N   UNL     1      47.450   7.636  14.406  0.00  0.00    +0.000 N 
ATOM     20  C   UNL     1      48.437   6.688  14.467  0.00  0.00    +0.000 C 
ATOM     21  O   UNL     1      49.022   6.285  13.466  0.00  0.00    +0.000 OA
ATOM     22  H   UNL     1      46.831   7.768  15.198  0.00  0.00    +0.000 HD
BRANCH  20  23
ATOM     23  C   UNL     1      48.812   6.223  15.807  0.00  0.00    +0.000 A 
ATOM     24  C   UNL     1      49.744   6.937  16.549  0.00  0.00    +0.000 A 
ATOM     25  S   UNL     1      50.018   6.294  18.105  0.00  0.00    +0.000 S 
ATOM     26  C   UNL     1      48.941   5.009  17.820  0.00  0.00    +0.000 A 
ATOM     27  N   UNL     1      48.728   4.055  18.768  0.00  0.00    +0.000 NA
ATOM     28  C   UNL     1      47.914   3.118  18.407  0.00  0.00    +0.000 A 
ATOM     29  N   UNL     1      47.291   3.052  17.190  0.00  0.00    +0.000 N 
ATOM     30  C   UNL     1      47.450   4.007  16.211  0.00  0.00    +0.000 A 
ATOM     31  O   UNL     1      46.848   3.940  15.152  0.00  0.00    +0.000 OA
ATOM     32  C   UNL     1      48.367   5.074  16.565  0.00  0.00    +0.000 A 
ATOM     33  H   UNL     1      46.658   2.298  16.975  0.00  0.00    +0.000 HD
ENDBRANCH  20  23
ENDBRANCH  18  19
ENDBRANCH   4  18
TORSDOF 7
ENDMDL
MODEL 2
REMARK VINA RESULT:    -8.477      1.682      2.133
REMARK INTER + INTRA:         -13.072
REMARK INTER:                 -12.041
REMARK INTRA:                  -1.030
REMARK UNBOUND:                -1.125
REMARK  Name = 
REMARK  8 active torsions:
REMARK  status: ('A' for Active; 'I' for Inactive)
REMARK    1  A    between atoms: C_1  and  C_2
REMARK    2  A    between atoms: C_2  and  N_3
REMARK    3  A    between atoms: C_2  and  C_25
REMARK    4  A    between atoms: N_3  and  C_4
REMARK    5  A    between atoms: C_4  and  C_5
REMARK    6  A    between atoms: C_8  and  C_9
REMARK    7  A    between atoms: C_9  and  N_10
REMARK    8  A    between atoms: C_11  and  C_13
REMARK                            x       y       z     vdW  Elec       q    Type
REMARK                         _______ _______ _______ _____ _____    ______ ____
ROOT
ATOM      1  C   UNL     1      44.667   5.606  11.528  0.00  0.00    +0.000 A 
ATOM      2  C   UNL     1      44.840   5.088  12.819  0.00  0.00    +0.000 A 
ATOM      3  C   UNL     1      46.002   5.365  13.548  0.00  0.00    +0.000 A 
ATOM      4  C   UNL     1      47.006   6.179  13.005  0.00  0.00    +0.000 A 
ATOM      5  C   UNL     1      46.837   6.685  11.709  0.00  0.00    +0.000 A 
ATOM      6  C   UNL     1      45.681   6.406  10.982  0.00  0.00    +0.000 A 
ENDROOT
BRANCH   1   7
ATOM      7  C   UNL     1      43.525   5.145  10.655  0.00  0.00    +0.000 C 
BRANCH   7   8
ATOM      8  N   UNL     1      43.927   4.459   9.419  0.00  0.00    +0.000 NA
ATOM      9  H   UNL     1      44.408   5.129   8.822  0.00  0.00    +0.000 HD
BRANCH   8  11
ATOM     10  C   UNL     1      44.095   2.139  10.324  0.00  0.00    +0.000 C 
ATOM     11  C   UNL     1      44.844   3.339   9.704  0.00  0.00    +0.000 C 
BRANCH  11  12
ATOM     12  C   UNL     1      45.583   2.857   8.454  0.00  0.00    +0.000 A 
ATOM     13  C   UNL     1      45.900   3.755   7.418  0.00  0.00    +0.000 A 
ATOM     14  C   UNL     1      46.737   3.359   6.367  0.00  0.00    +0.000 A 
ATOM     15  C   UNL     1      47.269   2.072   6.337  0.00  0.00    +0.000 A 
ATOM     16  C   UNL     1      46.921   1.159   7.329  0.00  0.00    +0.000 A 
ATOM     17  C   UNL     1      46.067   1.544   8.364  0.00  0.00    +0.000 A 
ENDBRANCH  11  12
ENDBRANCH   8  11
ENDBRANCH   7   8
ENDBRANCH   1   7
BRANCH   4  18
ATOM     18  C   UNL     1      48.271   6.469  13.767  0.00  0.00    +0.000 C 
BRANCH  18  19
ATOM     19  N   UNL     1      48.009   6.663  15.170  0.00  0.00    +0.000 N 
ATOM     20  C   UNL     1      49.007   6.520  16.099  0.00  0.00    +0.000 C 
ATOM     21  O   UNL     1      50.162   6.254  15.782  0.00  0.00    +0.000 OA
ATOM     22  H   UNL     1      47.039   6.640  15.467  0.00  0.00    +0.000 HD
BRANCH  20  23
ATOM     23  C   UNL     1      48.637   6.770  17.496  0.00  0.00    +0.000 A 
ATOM     24  C   UNL     1      48.277   8.050  17.895  0.00  0.00    +0.000 A 
ATOM     25  S   UNL     1      47.818   8.151  19.535  0.00  0.00    +0.000 S 
ATOM     26  C   UNL     1      48.138   6.499  19.781  0.00  0.00    +0.000 A 
ATOM     27  N   UNL     1      47.970   5.932  21.007  0.00  0.00    +0.000 NA
ATOM     28  C   UNL     1      48.282   4.678  21.061  0.00  0.00    +0.000 A 
ATOM     29  N   UNL     1      48.740   3.942  20.002  0.00  0.00    +0.000 N 
ATOM     30  C   UNL     1      48.897   4.462  18.737  0.00  0.00    +0.000 A 
ATOM     31  O   UNL     1      49.269   3.768  17.805  0.00  0.00    +0.000 OA
ATOM     32  C   UNL     1      48.572   5.872  18.629  0.00  0.00    +0.000 A 
ATOM     33  H   UNL     1      48.957   2.964  20.109  0.00  0.00    +0.000 HD
ENDBRANCH  20  23
ENDBRANCH  18  19
ENDBRANCH   4  18
TORSDOF 7
ENDMDL
MODEL 3
REMARK VINA RESULT:    -7.881      2.074      2.671
REMARK INTER + INTRA:         -12.231
REMARK INTER:                 -11.284
REMARK INTRA:                  -0.947
REMARK UNBOUND:                -1.125
REMARK  Name = 
REMARK  8 active torsions:
REMARK  status: ('A' for Active; 'I' for Inactive)
REMARK    1  A    between atoms: C_1  and  C_2
REMARK    2  A    between atoms: C_2  and  N_3
REMARK    3  A    between atoms: C_2  and  C_25
REMARK    4  A    between atoms: N_3  and  C_4
REMARK    5  A    between atoms: C_4  and  C_5
REMARK    6  A    between atoms: C_8  and  C_9
REMARK    7  A    between atoms: C_9  and  N_10
REMARK    8  A    between atoms: C_11  and  C_13
REMARK                            x       y       z     vdW  Elec       q    Type
REMARK                         _______ _______ _______ _____ _____    ______ ____
ROOT
ATOM      1  C   UNL     1      44.986   5.938  11.361  0.00  0.00    +0.000 A 
ATOM      2  C   UNL     1      45.113   7.333  11.398  0.00  0.00    +0.000 A 
ATOM      3  C   UNL     1      46.085   7.940  12.200  0.00  0.00    +0.000 A 
ATOM      4  C   UNL     1      46.961   7.161  12.970  0.00  0.00    +0.000 A 
ATOM      5  C   UNL     1      46.824   5.767  12.943  0.00  0.00    +0.000 A 
ATOM      6  C   UNL     1      45.853   5.163  12.146  0.00  0.00    +0.000 A 
ENDROOT
BRANCH   1   7
ATOM      7  C   UNL     1      43.814   5.283  10.672  0.00  0.00    +0.000 C 
BRANCH   7   8
ATOM      8  N   UNL     1      44.142   4.580   9.424  0.00  0.00    +0.000 NA
ATOM      9  H   UNL     1      44.682   5.210   8.833  0.00  0.00    +0.000 HD
BRANCH   8  11
ATOM     10  C   UNL     1      44.091   2.237  10.284  0.00  0.00    +0.000 C 
ATOM     11  C   UNL     1      44.950   3.373   9.688  0.00  0.00    +0.000 C 
BRANCH  11  12
ATOM     12  C   UNL     1      45.643   2.849   8.429  0.00  0.00    +0.000 A 
ATOM     13  C   UNL     1      45.958   3.718   7.368  0.00  0.00    +0.000 A 
ATOM     14  C   UNL     1      46.757   3.280   6.304  0.00  0.00    +0.000 A 
ATOM     15  C   UNL     1      47.253   1.979   6.285  0.00  0.00    +0.000 A 
ATOM     16  C   UNL     1      46.905   1.094   7.303  0.00  0.00    +0.000 A 
ATOM     17  C   UNL     1      46.089   1.521   8.351  0.00  0.00    +0.000 A 
ENDBRANCH  11  12
ENDBRANCH   8  11
ENDBRANCH   7   8
ENDBRANCH   1   7
BRANCH   4  18
ATOM     18  C   UNL     1      47.997   7.798  13.855  0.00  0.00    +0.000 C 
BRANCH  18  19
ATOM     19  N   UNL     1      47.929   7.286  15.200  0.00  0.00    +0.000 N 
ATOM     20  C   UNL     1      49.032   6.740  15.803  0.00  0.00    +0.000 C 
ATOM     21  O   UNL     1      50.124   6.689  15.245  0.00  0.00    +0.000 OA
ATOM     22  H   UNL     1      47.006   7.098  15.577  0.00  0.00    +0.000 HD
BRANCH  20  23
ATOM     23  C   UNL     1      48.858   6.277  17.183  0.00  0.00    +0.000 A 
ATOM     24  C   UNL     1      49.173   4.967  17.517  0.00  0.00    +0.000 A 
ATOM     25  S   UNL     1      48.971   4.614  19.173  0.00  0.00    +0.000 S 
ATOM     26  C   UNL     1      48.402   6.185  19.492  0.00  0.00    +0.000 A 
ATOM     27  N   UNL     1      48.021   6.546  20.748  0.00  0.00    +0.000 NA
ATOM     28  C   UNL     1      47.577   7.757  20.841  0.00  0.00    +0.000 A 
ATOM     29  N   UNL     1      47.485   8.638  19.797  0.00  0.00    +0.000 N 
ATOM     30  C   UNL     1      47.887   8.329  18.517  0.00  0.00    +0.000 A 
ATOM     31  O   UNL     1      47.831   9.151  17.617  0.00  0.00    +0.000 OA
ATOM     32  C   UNL     1      48.382   6.975  18.358  0.00  0.00    +0.000 A 
ATOM     33  H   UNL     1      47.138   9.572  19.940  0.00  0.00    +0.000 HD
ENDBRANCH  20  23
ENDBRANCH  18  19
ENDBRANCH   4  18
TORSDOF 7
ENDMDL
MODEL 4
REMARK VINA RESULT:    -7.547      1.732      2.120
REMARK INTER + INTRA:         -11.761
REMARK INTER:                 -10.627
REMARK INTRA:                  -1.133
REMARK UNBOUND:                -1.125
REMARK  Name = 
REMARK  8 active torsions:
REMARK  status: ('A' for Active; 'I' for Inactive)
REMARK    1  A    between atoms: C_1  and  C_2
REMARK    2  A    between atoms: C_2  and  N_3
REMARK    3  A    between atoms: C_2  and  C_25
REMARK    4  A    between atoms: N_3  and  C_4
REMARK    5  A    between atoms: C_4  and  C_5
REMARK    6  A    between atoms: C_8  and  C_9
REMARK    7  A    between atoms: C_9  and  N_10
REMARK    8  A    between atoms: C_11  and  C_13
REMARK                            x       y       z     vdW  Elec       q    Type
REMARK                         _______ _______ _______ _____ _____    ______ ____
ROOT
ATOM      1  C   UNL     1      45.080   4.740  12.427  0.00  0.00    +0.000 A 
ATOM      2  C   UNL     1      46.405   4.516  12.828  0.00  0.00    +0.000 A 
ATOM      3  C   UNL     1      47.223   5.583  13.211  0.00  0.00    +0.000 A 
ATOM      4  C   UNL     1      46.729   6.895  13.214  0.00  0.00    +0.000 A 
ATOM      5  C   UNL     1      45.410   7.119  12.799  0.00  0.00    +0.000 A 
ATOM      6  C   UNL     1      44.595   6.055  12.415  0.00  0.00    +0.000 A 
ENDROOT
BRANCH   1   7
ATOM      7  C   UNL     1      44.258   3.633  11.814  0.00  0.00    +0.000 C 
BRANCH   7   8
ATOM      8  N   UNL     1      44.996   2.742  10.908  0.00  0.00    +0.000 NA
ATOM      9  H   UNL     1      44.820   1.780  11.192  0.00  0.00    +0.000 HD
BRANCH   8  11
ATOM     10  C   UNL     1      44.047   4.346   9.248  0.00  0.00    +0.000 C 
ATOM     11  C   UNL     1      44.548   2.910   9.512  0.00  0.00    +0.000 C 
BRANCH  11  12
ATOM     12  C   UNL     1      45.652   2.588   8.503  0.00  0.00    +0.000 A 
ATOM     13  C   UNL     1      46.132   1.272   8.359  0.00  0.00    +0.000 A 
ATOM     14  C   UNL     1      47.001   0.944   7.311  0.00  0.00    +0.000 A 
ATOM     15  C   UNL     1      47.398   1.915   6.395  0.00  0.00    +0.000 A 
ATOM     16  C   UNL     1      46.972   3.231   6.557  0.00  0.00    +0.000 A 
ATOM     17  C   UNL     1      46.126   3.565   7.615  0.00  0.00    +0.000 A 
ENDBRANCH  11  12
ENDBRANCH   8  11
ENDBRANCH   7   8
ENDBRANCH   1   7
BRANCH   4  18
ATOM     18  C   UNL     1      47.603   8.057  13.601  0.00  0.00    +0.000 C 
BRANCH  18  19
ATOM     19  N   UNL     1      48.633   7.657  14.526  0.00  0.00    +0.000 N 
ATOM     20  C   UNL     1      48.736   8.241  15.761  0.00  0.00    +0.000 C 
ATOM     21  O   UNL     1      47.947   9.098  16.148  0.00  0.00    +0.000 OA
ATOM     22  H   UNL     1      49.421   7.144  14.146  0.00  0.00    +0.000 HD
BRANCH  20  23
ATOM     23  C   UNL     1      49.801   7.737  16.634  0.00  0.00    +0.000 A 
ATOM     24  C   UNL     1      50.783   8.603  17.095  0.00  0.00    +0.000 A 
ATOM     25  S   UNL     1      51.908   7.868  18.145  0.00  0.00    +0.000 S 
ATOM     26  C   UNL     1      51.153   6.353  17.976  0.00  0.00    +0.000 A 
ATOM     27  N   UNL     1      51.646   5.254  18.613  0.00  0.00    +0.000 NA
ATOM     28  C   UNL     1      50.997   4.163  18.369  0.00  0.00    +0.000 A 
ATOM     29  N   UNL     1      49.901   4.072  17.554  0.00  0.00    +0.000 N 
ATOM     30  C   UNL     1      49.348   5.158  16.913  0.00  0.00    +0.000 A 
ATOM     31  O   UNL     1      48.346   5.050  16.226  0.00  0.00    +0.000 OA
ATOM     32  C   UNL     1      50.050   6.406  17.146  0.00  0.00    +0.000 A 
ATOM     33  H   UNL     1      49.435   3.190  17.413  0.00  0.00    +0.000 HD
ENDBRANCH  20  23
ENDBRANCH  18  19
ENDBRANCH   4  18
TORSDOF 7
ENDMDL
MODEL 5
REMARK VINA RESULT:    -7.524      2.944      8.456
REMARK INTER + INTRA:         -11.728
REMARK INTER:                  -9.779
REMARK INTRA:                  -1.949
REMARK UNBOUND:                -1.125
REMARK  Name = 
REMARK  8 active torsions:
REMARK  status: ('A' for Active; 'I' for Inactive)
REMARK    1  A    between atoms: C_1  and  C_2
REMARK    2  A    between atoms: C_2  and  N_3
REMARK    3  A    between atoms: C_2  and  C_25
REMARK    4  A    between atoms: N_3  and  C_4
REMARK    5  A    between atoms: C_4  and  C_5
REMARK    6  A    between atoms: C_8  and  C_9
REMARK    7  A    between atoms: C_9  and  N_10
REMARK    8  A    between atoms: C_11  and  C_13
REMARK                            x       y       z     vdW  Elec       q    Type
REMARK                         _______ _______ _______ _____ _____    ______ ____
ROOT
ATOM      1  C   UNL     1      49.184   8.188  16.155  0.00  0.00    +0.000 A 
ATOM      2  C   UNL     1      49.659   7.144  15.349  0.00  0.00    +0.000 A 
ATOM      3  C   UNL     1      49.225   7.012  14.026  0.00  0.00    +0.000 A 
ATOM      4  C   UNL     1      48.318   7.930  13.478  0.00  0.00    +0.000 A 
ATOM      5  C   UNL     1      47.833   8.964  14.290  0.00  0.00    +0.000 A 
ATOM      6  C   UNL     1      48.265   9.094  15.610  0.00  0.00    +0.000 A 
ENDROOT
BRANCH   1   7
ATOM      7  C   UNL     1      49.478   8.219  17.635  0.00  0.00    +0.000 C 
BRANCH   7   8
ATOM      8  N   UNL     1      50.166   7.031  18.156  0.00  0.00    +0.000 NA
ATOM      9  H   UNL     1      50.934   7.339  18.750  0.00  0.00    +0.000 HD
BRANCH   8  11
ATOM     10  C   UNL     1      47.975   6.968  19.351  0.00  0.00    +0.000 C 
ATOM     11  C   UNL     1      49.255   6.195  18.962  0.00  0.00    +0.000 C 
BRANCH  11  12
ATOM     12  C   UNL     1      48.846   4.912  18.238  0.00  0.00    +0.000 A 
ATOM     13  C   UNL     1      47.619   4.834  17.552  0.00  0.00    +0.000 A 
ATOM     14  C   UNL     1      47.331   3.734  16.735  0.00  0.00    +0.000 A 
ATOM     15  C   UNL     1      48.256   2.704  16.588  0.00  0.00    +0.000 A 
ATOM     16  C   UNL     1      49.451   2.744  17.302  0.00  0.00    +0.000 A 
ATOM     17  C   UNL     1      49.731   3.828  18.135  0.00  0.00    +0.000 A 
ENDBRANCH  11  12
ENDBRANCH   8  11
ENDBRANCH   7   8
ENDBRANCH   1   7
BRANCH   4  18
ATOM     18  C   UNL     1      47.824   7.789  12.065  0.00  0.00    +0.000 C 
BRANCH  18  19
ATOM     19  N   UNL     1      47.100   6.557  11.879  0.00  0.00    +0.000 N 
ATOM     20  C   UNL     1      45.730   6.535  11.894  0.00  0.00    +0.000 C 
ATOM     21  O   UNL     1      45.061   7.555  12.033  0.00  0.00    +0.000 OA
ATOM     22  H   UNL     1      47.617   5.693  12.007  0.00  0.00    +0.000 HD
BRANCH  20  23
ATOM     23  C   UNL     1      45.096   5.232  11.665  0.00  0.00    +0.000 A 
ATOM     24  C   UNL     1      44.436   4.594  12.706  0.00  0.00    +0.000 A 
ATOM     25  S   UNL     1      43.705   3.121  12.253  0.00  0.00    +0.000 S 
ATOM     26  C   UNL     1      44.294   3.259  10.663  0.00  0.00    +0.000 A 
ATOM     27  N   UNL     1      44.041   2.290   9.740  0.00  0.00    +0.000 NA
ATOM     28  C   UNL     1      44.577   2.505   8.583  0.00  0.00    +0.000 A 
ATOM     29  N   UNL     1      45.335   3.598   8.265  0.00  0.00    +0.000 N 
ATOM     30  C   UNL     1      45.593   4.618   9.153  0.00  0.00    +0.000 A 
ATOM     31  O   UNL     1      46.238   5.600   8.825  0.00  0.00    +0.000 OA
ATOM     32  C   UNL     1      45.022   4.417  10.472  0.00  0.00    +0.000 A 
ATOM     33  H   UNL     1      45.716   3.710   7.339  0.00  0.00    +0.000 HD
ENDBRANCH  20  23
ENDBRANCH  18  19
ENDBRANCH   4  18
TORSDOF 7
ENDMDL
MODEL 6
REMARK VINA RESULT:    -7.422      3.966      9.079
REMARK INTER + INTRA:         -11.584
REMARK INTER:                  -8.994
REMARK INTRA:                  -2.590
REMARK UNBOUND:                -1.125
REMARK  Name = 
REMARK  8 active torsions:
REMARK  status: ('A' for Active; 'I' for Inactive)
REMARK    1  A    between atoms: C_1  and  C_2
REMARK    2  A    between atoms: C_2  and  N_3
REMARK    3  A    between atoms: C_2  and  C_25
REMARK    4  A    between atoms: N_3  and  C_4
REMARK    5  A    between atoms: C_4  and  C_5
REMARK    6  A    between atoms: C_8  and  C_9
REMARK    7  A    between atoms: C_9  and  N_10
REMARK    8  A    between atoms: C_11  and  C_13
REMARK                            x       y       z     vdW  Elec       q    Type
REMARK                         _______ _______ _______ _____ _____    ______ ____
ROOT
ATOM      1  C   UNL     1      49.650   5.380  19.643  0.00  0.00    +0.000 A 
ATOM      2  C   UNL     1      48.269   5.589  19.523  0.00  0.00    +0.000 A 
ATOM      3  C   UNL     1      47.541   4.969  18.502  0.00  0.00    +0.000 A 
ATOM      4  C   UNL     1      48.177   4.115  17.590  0.00  0.00    +0.000 A 
ATOM      5  C   UNL     1      49.560   3.919  17.702  0.00  0.00    +0.000 A 
ATOM      6  C   UNL     1      50.286   4.540  18.718  0.00  0.00    +0.000 A 
ENDROOT
BRANCH   1   7
ATOM      7  C   UNL     1      50.478   6.202  20.600  0.00  0.00    +0.000 C 
BRANCH   7   8
ATOM      8  N   UNL     1      50.295   7.655  20.488  0.00  0.00    +0.000 NA
ATOM      9  H   UNL     1      50.502   8.075  21.393  0.00  0.00    +0.000 HD
BRANCH   8  11
ATOM     10  C   UNL     1      52.621   7.628  19.586  0.00  0.00    +0.000 C 
ATOM     11  C   UNL     1      51.205   8.234  19.481  0.00  0.00    +0.000 C 
BRANCH  11  12
ATOM     12  C   UNL     1      50.696   8.035  18.052  0.00  0.00    +0.000 A 
ATOM     13  C   UNL     1      51.495   7.390  17.089  0.00  0.00    +0.000 A 
ATOM     14  C   UNL     1      50.960   7.040  15.843  0.00  0.00    +0.000 A 
ATOM     15  C   UNL     1      49.631   7.324  15.542  0.00  0.00    +0.000 A 
ATOM     16  C   UNL     1      48.846   8.008  16.466  0.00  0.00    +0.000 A 
ATOM     17  C   UNL     1      49.383   8.379  17.700  0.00  0.00    +0.000 A 
ENDBRANCH  11  12
ENDBRANCH   8  11
ENDBRANCH   7   8
ENDBRANCH   1   7
BRANCH   4  18
ATOM     18  C   UNL     1      47.413   3.459  16.473  0.00  0.00    +0.000 C 
BRANCH  18  19
ATOM     19  N   UNL     1      46.830   4.434  15.587  0.00  0.00    +0.000 N 
ATOM     20  C   UNL     1      46.775   4.215  14.236  0.00  0.00    +0.000 C 
ATOM     21  O   UNL     1      47.185   3.178  13.724  0.00  0.00    +0.000 OA
ATOM     22  H   UNL     1      46.713   5.375  15.949  0.00  0.00    +0.000 HD
BRANCH  20  23
ATOM     23  C   UNL     1      46.133   5.261  13.432  0.00  0.00    +0.000 A 
ATOM     24  C   UNL     1      46.790   6.464  13.214  0.00  0.00    +0.000 A 
ATOM     25  S   UNL     1      45.930   7.542  12.209  0.00  0.00    +0.000 S 
ATOM     26  C   UNL     1      44.626   6.459  12.077  0.00  0.00    +0.000 A 
ATOM     27  N   UNL     1      43.519   6.787  11.354  0.00  0.00    +0.000 NA
ATOM     28  C   UNL     1      42.590   5.887  11.367  0.00  0.00    +0.000 A 
ATOM     29  N   UNL     1      42.670   4.691  12.028  0.00  0.00    +0.000 N 
ATOM     30  C   UNL     1      43.779   4.302  12.745  0.00  0.00    +0.000 A 
ATOM     31  O   UNL     1      43.835   3.211  13.288  0.00  0.00    +0.000 OA
ATOM     32  C   UNL     1      44.845   5.285  12.772  0.00  0.00    +0.000 A 
ATOM     33  H   UNL     1      41.912   4.029  11.988  0.00  0.00    +0.000 HD
ENDBRANCH  20  23
ENDBRANCH  18  19
ENDBRANCH   4  18
TORSDOF 7
ENDMDL
MODEL 7
REMARK VINA RESULT:    -7.202      1.771      2.484
REMARK INTER + INTRA:         -11.275
REMARK INTER:                 -10.268
REMARK INTRA:                  -1.007
REMARK UNBOUND:                -1.125
REMARK  Name = 
REMARK  8 active torsions:
REMARK  status: ('A' for Active; 'I' for Inactive)
REMARK    1  A    between atoms: C_1  and  C_2
REMARK    2  A    between atoms: C_2  and  N_3
REMARK    3  A    between atoms: C_2  and  C_25
REMARK    4  A    between atoms: N_3  and  C_4
REMARK    5  A    between atoms: C_4  and  C_5
REMARK    6  A    between atoms: C_8  and  C_9
REMARK    7  A    between atoms: C_9  and  N_10
REMARK    8  A    between atoms: C_11  and  C_13
REMARK                            x       y       z     vdW  Elec       q    Type
REMARK                         _______ _______ _______ _____ _____    ______ ____
ROOT
ATOM      1  C   UNL     1      45.298   7.004  11.712  0.00  0.00    +0.000 A 
ATOM      2  C   UNL     1      45.297   8.356  12.083  0.00  0.00    +0.000 A 
ATOM      3  C   UNL     1      46.497   9.024  12.348  0.00  0.00    +0.000 A 
ATOM      4  C   UNL     1      47.724   8.356  12.232  0.00  0.00    +0.000 A 
ATOM      5  C   UNL     1      47.723   7.001  11.875  0.00  0.00    +0.000 A 
ATOM      6  C   UNL     1      46.527   6.336  11.613  0.00  0.00    +0.000 A 
ENDROOT
BRANCH   1   7
ATOM      7  C   UNL     1      44.011   6.221  11.631  0.00  0.00    +0.000 C 
BRANCH   7   8
ATOM      8  N   UNL     1      43.877   5.370  10.441  0.00  0.00    +0.000 NA
ATOM      9  H   UNL     1      44.365   5.819   9.669  0.00  0.00    +0.000 HD
BRANCH   8  11
ATOM     10  C   UNL     1      43.425   3.027  11.173  0.00  0.00    +0.000 C 
ATOM     11  C   UNL     1      44.475   4.039  10.666  0.00  0.00    +0.000 C 
BRANCH  11  12
ATOM     12  C   UNL     1      45.126   3.472   9.404  0.00  0.00    +0.000 A 
ATOM     13  C   UNL     1      45.669   4.330   8.429  0.00  0.00    +0.000 A 
ATOM     14  C   UNL     1      46.429   3.813   7.372  0.00  0.00    +0.000 A 
ATOM     15  C   UNL     1      46.661   2.443   7.275  0.00  0.00    +0.000 A 
ATOM     16  C   UNL     1      46.086   1.580   8.204  0.00  0.00    +0.000 A 
ATOM     17  C   UNL     1      45.308   2.090   9.244  0.00  0.00    +0.000 A 
ENDBRANCH  11  12
ENDBRANCH   8  11
ENDBRANCH   7   8
ENDBRANCH   1   7
BRANCH   4  18
ATOM     18  C   UNL     1      49.023   9.053  12.535  0.00  0.00    +0.000 C 
BRANCH  18  19
ATOM     19  N   UNL     1      49.864   8.253  13.388  0.00  0.00    +0.000 N 
ATOM     20  C   UNL     1      49.693   8.254  14.747  0.00  0.00    +0.000 C 
ATOM     21  O   UNL     1      48.807   8.903  15.295  0.00  0.00    +0.000 OA
ATOM     22  H   UNL     1      50.734   7.913  12.991  0.00  0.00    +0.000 HD
BRANCH  20  23
ATOM     23  C   UNL     1      50.585   7.380  15.516  0.00  0.00    +0.000 A 
ATOM     24  C   UNL     1      51.952   7.625  15.526  0.00  0.00    +0.000 A 
ATOM     25  S   UNL     1      52.833   6.553  16.518  0.00  0.00    +0.000 S 
ATOM     26  C   UNL     1      51.425   5.690  16.924  0.00  0.00    +0.000 A 
ATOM     27  N   UNL     1      51.486   4.604  17.744  0.00  0.00    +0.000 NA
ATOM     28  C   UNL     1      50.348   4.022  17.942  0.00  0.00    +0.000 A 
ATOM     29  N   UNL     1      49.158   4.429  17.400  0.00  0.00    +0.000 N 
ATOM     30  C   UNL     1      49.041   5.537  16.591  0.00  0.00    +0.000 A 
ATOM     31  O   UNL     1      47.959   5.897  16.158  0.00  0.00    +0.000 OA
ATOM     32  C   UNL     1      50.295   6.218  16.329  0.00  0.00    +0.000 A 
ATOM     33  H   UNL     1      48.304   3.936  17.602  0.00  0.00    +0.000 HD
ENDBRANCH  20  23
ENDBRANCH  18  19
ENDBRANCH   4  18
TORSDOF 7
ENDMDL
MODEL 8
REMARK VINA RESULT:    -7.166      3.717      8.295
REMARK INTER + INTRA:         -11.224
REMARK INTER:                  -9.225
REMARK INTRA:                  -1.999
REMARK UNBOUND:                -1.125
REMARK  Name = 
REMARK  8 active torsions:
REMARK  status: ('A' for Active; 'I' for Inactive)
REMARK    1  A    between atoms: C_1  and  C_2
REMARK    2  A    between atoms: C_2  and  N_3
REMARK    3  A    between atoms: C_2  and  C_25
REMARK    4  A    between atoms: N_3  and  C_4
REMARK    5  A    between atoms: C_4  and  C_5
REMARK    6  A    between atoms: C_8  and  C_9
REMARK    7  A    between atoms: C_9  and  N_10
REMARK    8  A    between atoms: C_11  and  C_13
REMARK                            x       y       z     vdW  Elec       q    Type
REMARK                         _______ _______ _______ _____ _____    ______ ____
ROOT
ATOM      1  C   UNL     1      49.592   7.540  18.114  0.00  0.00    +0.000 A 
ATOM      2  C   UNL     1      50.575   6.817  17.424  0.00  0.00    +0.000 A 
ATOM      3  C   UNL     1      50.598   6.803  16.025  0.00  0.00    +0.000 A 
ATOM      4  C   UNL     1      49.647   7.524  15.290  0.00  0.00    +0.000 A 
ATOM      5  C   UNL     1      48.657   8.234  15.981  0.00  0.00    +0.000 A 
ATOM      6  C   UNL     1      48.633   8.246  17.375  0.00  0.00    +0.000 A 
ENDROOT
BRANCH   1   7
ATOM      7  C   UNL     1      49.428   7.394  19.607  0.00  0.00    +0.000 C 
BRANCH   7   8
ATOM      8  N   UNL     1      49.726   6.056  20.136  0.00  0.00    +0.000 NA
ATOM      9  H   UNL     1      50.099   6.159  21.078  0.00  0.00    +0.000 HD
BRANCH   8  11
ATOM     10  C   UNL     1      47.252   6.079  20.469  0.00  0.00    +0.000 C 
ATOM     11  C   UNL     1      48.509   5.223  20.200  0.00  0.00    +0.000 C 
BRANCH  11  12
ATOM     12  C   UNL     1      48.285   4.419  18.919  0.00  0.00    +0.000 A 
ATOM     13  C   UNL     1      47.218   4.729  18.054  0.00  0.00    +0.000 A 
ATOM     14  C   UNL     1      47.125   4.122  16.795  0.00  0.00    +0.000 A 
ATOM     15  C   UNL     1      48.088   3.206  16.382  0.00  0.00    +0.000 A 
ATOM     16  C   UNL     1      49.119   2.851  17.249  0.00  0.00    +0.000 A 
ATOM     17  C   UNL     1      49.201   3.437  18.513  0.00  0.00    +0.000 A 
ENDBRANCH  11  12
ENDBRANCH   8  11
ENDBRANCH   7   8
ENDBRANCH   1   7
BRANCH   4  18
ATOM     18  C   UNL     1      49.644   7.500  13.785  0.00  0.00    +0.000 C 
BRANCH  18  19
ATOM     19  N   UNL     1      48.307   7.382  13.262  0.00  0.00    +0.000 N 
ATOM     20  C   UNL     1      47.733   6.153  13.066  0.00  0.00    +0.000 C 
ATOM     21  O   UNL     1      48.311   5.108  13.352  0.00  0.00    +0.000 OA
ATOM     22  H   UNL     1      47.917   8.198  12.801  0.00  0.00    +0.000 HD
BRANCH  20  23
ATOM     23  C   UNL     1      46.357   6.150  12.558  0.00  0.00    +0.000 A 
ATOM     24  C   UNL     1      45.780   7.336  12.124  0.00  0.00    +0.000 A 
ATOM     25  S   UNL     1      44.200   7.143  11.509  0.00  0.00    +0.000 S 
ATOM     26  C   UNL     1      44.214   5.477  11.854  0.00  0.00    +0.000 A 
ATOM     27  N   UNL     1      43.127   4.702  11.587  0.00  0.00    +0.000 NA
ATOM     28  C   UNL     1      43.261   3.462  11.930  0.00  0.00    +0.000 A 
ATOM     29  N   UNL     1      44.381   2.929  12.508  0.00  0.00    +0.000 N 
ATOM     30  C   UNL     1      45.515   3.665  12.769  0.00  0.00    +0.000 A 
ATOM     31  O   UNL     1      46.511   3.150  13.248  0.00  0.00    +0.000 OA
ATOM     32  C   UNL     1      45.409   5.067  12.413  0.00  0.00    +0.000 A 
ATOM     33  H   UNL     1      44.423   1.950  12.743  0.00  0.00    +0.000 HD
ENDBRANCH  20  23
ENDBRANCH  18  19
ENDBRANCH   4  18
TORSDOF 7
ENDMDL
MODEL 9
REMARK VINA RESULT:    -6.919      3.788      8.184
REMARK INTER + INTRA:         -10.876
REMARK INTER:                  -8.483
REMARK INTRA:                  -2.392
REMARK UNBOUND:                -1.125
REMARK  Name = 
REMARK  8 active torsions:
REMARK  status: ('A' for Active; 'I' for Inactive)
REMARK    1  A    between atoms: C_1  and  C_2
REMARK    2  A    between atoms: C_2  and  N_3
REMARK    3  A    between atoms: C_2  and  C_25
REMARK    4  A    between atoms: N_3  and  C_4
REMARK    5  A    between atoms: C_4  and  C_5
REMARK    6  A    between atoms: C_8  and  C_9
REMARK    7  A    between atoms: C_9  and  N_10
REMARK    8  A    between atoms: C_11  and  C_13
REMARK                            x       y       z     vdW  Elec       q    Type
REMARK                         _______ _______ _______ _____ _____    ______ ____
ROOT
ATOM      1  C   UNL     1      51.689   6.930  17.274  0.00  0.00    +0.000 A 
ATOM      2  C   UNL     1      51.543   7.017  15.883  0.00  0.00    +0.000 A 
ATOM      3  C   UNL     1      50.490   7.745  15.321  0.00  0.00    +0.000 A 
ATOM      4  C   UNL     1      49.569   8.414  16.140  0.00  0.00    +0.000 A 
ATOM      5  C   UNL     1      49.708   8.314  17.531  0.00  0.00    +0.000 A 
ATOM      6  C   UNL     1      50.757   7.586  18.091  0.00  0.00    +0.000 A 
ENDROOT
BRANCH   1   7
ATOM      7  C   UNL     1      52.687   5.981  17.891  0.00  0.00    +0.000 C 
BRANCH   7   8
ATOM      8  N   UNL     1      52.099   4.846  18.615  0.00  0.00    +0.000 NA
ATOM      9  H   UNL     1      51.254   5.168  19.083  0.00  0.00    +0.000 HD
BRANCH   8  11
ATOM     10  C   UNL     1      52.462   2.439  18.062  0.00  0.00    +0.000 C 
ATOM     11  C   UNL     1      51.738   3.752  17.692  0.00  0.00    +0.000 C 
BRANCH  11  12
ATOM     12  C   UNL     1      50.233   3.485  17.663  0.00  0.00    +0.000 A 
ATOM     13  C   UNL     1      49.342   4.323  18.361  0.00  0.00    +0.000 A 
ATOM     14  C   UNL     1      47.959   4.194  18.181  0.00  0.00    +0.000 A 
ATOM     15  C   UNL     1      47.448   3.237  17.308  0.00  0.00    +0.000 A 
ATOM     16  C   UNL     1      48.316   2.368  16.653  0.00  0.00    +0.000 A 
ATOM     17  C   UNL     1      49.694   2.479  16.848  0.00  0.00    +0.000 A 
ENDBRANCH  11  12
ENDBRANCH   8  11
ENDBRANCH   7   8
ENDBRANCH   1   7
BRANCH   4  18
ATOM     18  C   UNL     1      48.417   9.183  15.552  0.00  0.00    +0.000 C 
BRANCH  18  19
ATOM     19  N   UNL     1      47.494   8.312  14.871  0.00  0.00    +0.000 N 
ATOM     20  C   UNL     1      47.397   8.319  13.504  0.00  0.00    +0.000 C 
ATOM     21  O   UNL     1      48.103   9.036  12.801  0.00  0.00    +0.000 OA
ATOM     22  H   UNL     1      46.750   7.902  15.425  0.00  0.00    +0.000 HD
BRANCH  20  23
ATOM     23  C   UNL     1      46.447   7.370  12.913  0.00  0.00    +0.000 A 
ATOM     24  C   UNL     1      45.425   7.835  12.097  0.00  0.00    +0.000 A 
ATOM     25  S   UNL     1      44.451   6.595  11.445  0.00  0.00    +0.000 S 
ATOM     26  C   UNL     1      45.328   5.399  12.277  0.00  0.00    +0.000 A 
ATOM     27  N   UNL     1      44.986   4.085  12.171  0.00  0.00    +0.000 NA
ATOM     28  C   UNL     1      45.714   3.287  12.883  0.00  0.00    +0.000 A 
ATOM     29  N   UNL     1      46.753   3.682  13.682  0.00  0.00    +0.000 N 
ATOM     30  C   UNL     1      47.155   4.993  13.798  0.00  0.00    +0.000 A 
ATOM     31  O   UNL     1      48.111   5.307  14.487  0.00  0.00    +0.000 OA
ATOM     32  C   UNL     1      46.360   5.930  13.027  0.00  0.00    +0.000 A 
ATOM     33  H   UNL     1      47.287   3.006  14.204  0.00  0.00    +0.000 HD
ENDBRANCH  20  23
ENDBRANCH  18  19
ENDBRANCH   4  18
TORSDOF 7
ENDMDL
