MODEL 1
REMARK VINA RESULT:    -7.914      0.000      0.000
REMARK INTER + INTRA:         -10.909
REMARK INTER:                 -10.459
REMARK INTRA:                  -0.451
REMARK UNBOUND:                -0.451
REMARK  Name = 
REMARK  7 active torsions:
REMARK  status: ('A' for Active; 'I' for Inactive)
REMARK    1  A    between atoms: C_1  and  O_2
REMARK    2  A    between atoms: O_2  and  C_3
REMARK    3  A    between atoms: C_3  and  C_5
REMARK    4  A    between atoms: N_9  and  C_10
REMARK    5  A    between atoms: C_10  and  C_11
REMARK    6  A    between atoms: C_14  and  C_15
REMARK    7  A    between atoms: C_15  and  N_16
REMARK                            x       y       z     vdW  Elec       q    Type
REMARK                         _______ _______ _______ _____ _____    ______ ____
ROOT
ATOM      1  C   UNL     1      46.617   4.958  13.841  0.00  0.00    +0.000 A 
ATOM      2  C   UNL     1      46.916   5.951  12.940  0.00  0.00    +0.000 A 
ATOM      3  N   UNL     1      46.244   6.137  11.778  0.00  0.00    +0.000 NA
ATOM      4  C   UNL     1      45.225   5.303  11.514  0.00  0.00    +0.000 A 
ATOM      5  N   UNL     1      44.519   5.574  10.356  0.00  0.00    +0.000 N 
ATOM      6  N   UNL     1      44.871   4.292  12.317  0.00  0.00    +0.000 NA
ATOM      7  C   UNL     1      45.571   4.143  13.469  0.00  0.00    +0.000 A 
ATOM      8  H   UNL     1      45.097   6.159   9.767  0.00  0.00    +0.000 HD
ENDROOT
BRANCH   1   9
ATOM      9  C   UNL     1      47.380   4.808  15.088  0.00  0.00    +0.000 C 
ATOM     10  O   UNL     1      48.347   5.490  15.377  0.00  0.00    +0.000 OA
BRANCH   9  12
ATOM     11  C   UNL     1      47.112   3.888  17.232  0.00  0.00    +0.000 C 
ATOM     12  O   UNL     1      46.851   3.803  15.830  0.00  0.00    +0.000 OA
ENDBRANCH   9  12
ENDBRANCH   1   9
BRANCH   5  13
ATOM     13  C   UNL     1      43.887   4.451   9.695  0.00  0.00    +0.000 C 
BRANCH  13  14
ATOM     14  C   UNL     1      44.928   3.668   8.916  0.00  0.00    +0.000 A 
ATOM     15  C   UNL     1      45.058   2.278   9.061  0.00  0.00    +0.000 A 
ATOM     16  C   UNL     1      46.002   1.565   8.310  0.00  0.00    +0.000 A 
ATOM     17  C   UNL     1      46.844   2.223   7.402  0.00  0.00    +0.000 A 
ATOM     18  C   UNL     1      46.717   3.611   7.261  0.00  0.00    +0.000 A 
ATOM     19  C   UNL     1      45.769   4.322   8.005  0.00  0.00    +0.000 A 
BRANCH  17  20
ATOM     20  C   UNL     1      47.893   1.466   6.624  0.00  0.00    +0.000 C 
BRANCH  20  21
ATOM     21  N   UNL     1      48.378   2.218   5.472  0.00  0.00    +0.000 NA
ATOM     22  H   UNL     1      48.111   3.194   5.581  0.00  0.00    +0.000 HD
ATOM     23  H   UNL     1      47.908   1.881   4.634  0.00  0.00    +0.000 HD
ENDBRANCH  20  21
ENDBRANCH  17  20
ENDBRANCH  13  14
ENDBRANCH   5  13
TORSDOF 6
ENDMDL
MODEL 2
REMARK VINA RESULT:    -7.519      0.913      1.357
REMARK INTER + INTRA:         -10.387
REMARK INTER:                  -9.950
REMARK INTRA:                  -0.437
REMARK UNBOUND:                -0.451
REMARK  Name = 
REMARK  7 active torsions:
REMARK  status: ('A' for Active; 'I' for Inactive)
REMARK    1  A    between atoms: C_1  and  O_2
REMARK    2  A    between atoms: O_2  and  C_3
REMARK    3  A    between atoms: C_3  and  C_5
REMARK    4  A    between atoms: N_9  and  C_10
REMARK    5  A    between atoms: C_10  and  C_11
REMARK    6  A    between atoms: C_14  and  C_15
REMARK    7  A    between atoms: C_15  and  N_16
REMARK                            x       y       z     vdW  Elec       q    Type
REMARK                         _______ _______ _______ _____ _____    ______ ____
ROOT
ATOM      1  C   UNL     1      47.025   5.594  13.589  0.00  0.00    +0.000 A 
ATOM      2  C   UNL     1      47.159   6.484  12.551  0.00  0.00    +0.000 A 
ATOM      3  N   UNL     1      46.353   6.491  11.461  0.00  0.00    +0.000 NA
ATOM      4  C   UNL     1      45.369   5.579  11.414  0.00  0.00    +0.000 A 
ATOM      5  N   UNL     1      44.525   5.669  10.323  0.00  0.00    +0.000 N 
ATOM      6  N   UNL     1      45.172   4.656  12.364  0.00  0.00    +0.000 NA
ATOM      7  C   UNL     1      46.001   4.686  13.436  0.00  0.00    +0.000 A 
ATOM      8  H   UNL     1      44.995   6.208   9.608  0.00  0.00    +0.000 HD
ENDROOT
BRANCH   1   9
ATOM      9  C   UNL     1      47.927   5.637  14.748  0.00  0.00    +0.000 C 
ATOM     10  O   UNL     1      47.688   5.098  15.814  0.00  0.00    +0.000 OA
BRANCH   9  12
ATOM     11  C   UNL     1      49.595   7.088  15.541  0.00  0.00    +0.000 C 
ATOM     12  O   UNL     1      49.028   6.370  14.444  0.00  0.00    +0.000 OA
ENDBRANCH   9  12
ENDBRANCH   1   9
BRANCH   5  13
ATOM     13  C   UNL     1      43.900   4.443   9.874  0.00  0.00    +0.000 C 
BRANCH  13  14
ATOM     14  C   UNL     1      44.889   3.641   9.047  0.00  0.00    +0.000 A 
ATOM     15  C   UNL     1      45.023   2.254   9.208  0.00  0.00    +0.000 A 
ATOM     16  C   UNL     1      45.918   1.524   8.413  0.00  0.00    +0.000 A 
ATOM     17  C   UNL     1      46.704   2.163   7.444  0.00  0.00    +0.000 A 
ATOM     18  C   UNL     1      46.573   3.548   7.286  0.00  0.00    +0.000 A 
ATOM     19  C   UNL     1      45.674   4.277   8.074  0.00  0.00    +0.000 A 
BRANCH  17  20
ATOM     20  C   UNL     1      47.701   1.388   6.617  0.00  0.00    +0.000 C 
BRANCH  20  21
ATOM     21  N   UNL     1      48.403   2.235   5.658  0.00  0.00    +0.000 NA
ATOM     22  H   UNL     1      48.864   2.990   6.163  0.00  0.00    +0.000 HD
ATOM     23  H   UNL     1      47.722   2.673   5.041  0.00  0.00    +0.000 HD
ENDBRANCH  20  21
ENDBRANCH  17  20
ENDBRANCH  13  14
ENDBRANCH   5  13
TORSDOF 6
ENDMDL
MODEL 3
REMARK VINA RESULT:    -7.169      1.462      2.233
REMARK INTER + INTRA:          -9.924
REMARK INTER:                  -9.767
REMARK INTRA:                  -0.157
REMARK UNBOUND:                -0.451
REMARK  Name = 
REMARK  7 active torsions:
REMARK  status: ('A' for Active; 'I' for Inactive)
REMARK    1  A    between atoms: C_1  and  O_2
REMARK    2  A    between atoms: O_2  and  C_3
REMARK    3  A    between atoms: C_3  and  C_5
REMARK    4  A    between atoms: N_9  and  C_10
REMARK    5  A    between atoms: C_10  and  C_11
REMARK    6  A    between atoms: C_14  and  C_15
REMARK    7  A    between atoms: C_15  and  N_16
REMARK                            x       y       z     vdW  Elec       q    Type
REMARK                         _______ _______ _______ _____ _____    ______ ____
ROOT
ATOM      1  C   UNL     1      47.120   5.804  13.626  0.00  0.00    +0.000 A 
ATOM      2  C   UNL     1      46.618   4.698  14.268  0.00  0.00    +0.000 A 
ATOM      3  N   UNL     1      45.876   3.746  13.652  0.00  0.00    +0.000 NA
ATOM      4  C   UNL     1      45.637   3.901  12.340  0.00  0.00    +0.000 A 
ATOM      5  N   UNL     1      44.941   2.870  11.735  0.00  0.00    +0.000 N 
ATOM      6  N   UNL     1      46.063   4.954  11.632  0.00  0.00    +0.000 NA
ATOM      7  C   UNL     1      46.802   5.883  12.288  0.00  0.00    +0.000 A 
ATOM      8  H   UNL     1      44.473   2.342  12.460  0.00  0.00    +0.000 HD
ENDROOT
BRANCH   1   9
ATOM      9  C   UNL     1      47.922   6.802  14.346  0.00  0.00    +0.000 C 
ATOM     10  O   UNL     1      47.822   8.004  14.175  0.00  0.00    +0.000 OA
BRANCH   9  12
ATOM     11  C   UNL     1      49.149   6.937  16.344  0.00  0.00    +0.000 C 
ATOM     12  O   UNL     1      48.777   6.177  15.194  0.00  0.00    +0.000 OA
ENDBRANCH   9  12
ENDBRANCH   1   9
BRANCH   5  13
ATOM     13  C   UNL     1      44.129   3.213  10.586  0.00  0.00    +0.000 C 
BRANCH  13  14
ATOM     14  C   UNL     1      44.950   3.058   9.319  0.00  0.00    +0.000 A 
ATOM     15  C   UNL     1      45.177   4.142   8.458  0.00  0.00    +0.000 A 
ATOM     16  C   UNL     1      45.966   3.991   7.309  0.00  0.00    +0.000 A 
ATOM     17  C   UNL     1      46.539   2.752   6.989  0.00  0.00    +0.000 A 
ATOM     18  C   UNL     1      46.309   1.669   7.847  0.00  0.00    +0.000 A 
ATOM     19  C   UNL     1      45.529   1.822   8.998  0.00  0.00    +0.000 A 
BRANCH  17  20
ATOM     20  C   UNL     1      47.351   2.573   5.729  0.00  0.00    +0.000 C 
BRANCH  20  21
ATOM     21  N   UNL     1      48.452   1.632   5.909  0.00  0.00    +0.000 NA
ATOM     22  H   UNL     1      48.372   1.205   6.830  0.00  0.00    +0.000 HD
ATOM     23  H   UNL     1      49.332   2.144   5.902  0.00  0.00    +0.000 HD
ENDBRANCH  20  21
ENDBRANCH  17  20
ENDBRANCH  13  14
ENDBRANCH   5  13
TORSDOF 6
ENDMDL
MODEL 4
REMARK VINA RESULT:    -6.728      2.206      3.162
REMARK INTER + INTRA:          -9.342
REMARK INTER:                  -9.599
REMARK INTRA:                   0.258
REMARK UNBOUND:                -0.451
REMARK  Name = 
REMARK  7 active torsions:
REMARK  status: ('A' for Active; 'I' for Inactive)
REMARK    1  A    between atoms: C_1  and  O_2
REMARK    2  A    between atoms: O_2  and  C_3
REMARK    3  A    between atoms: C_3  and  C_5
REMARK    4  A    between atoms: N_9  and  C_10
REMARK    5  A    between atoms: C_10  and  C_11
REMARK    6  A    between atoms: C_14  and  C_15
REMARK    7  A    between atoms: C_15  and  N_16
REMARK                            x       y       z     vdW  Elec       q    Type
REMARK                         _______ _______ _______ _____ _____    ______ ____
ROOT
ATOM      1  C   UNL     1      46.049   6.767  12.346  0.00  0.00    +0.000 A 
ATOM      2  C   UNL     1      45.908   5.766  13.276  0.00  0.00    +0.000 A 
ATOM      3  N   UNL     1      45.515   4.506  12.967  0.00  0.00    +0.000 NA
ATOM      4  C   UNL     1      45.266   4.235  11.676  0.00  0.00    +0.000 A 
ATOM      5  N   UNL     1      44.941   2.921  11.395  0.00  0.00    +0.000 N 
ATOM      6  N   UNL     1      45.352   5.148  10.701  0.00  0.00    +0.000 NA
ATOM      7  C   UNL     1      45.749   6.396  11.055  0.00  0.00    +0.000 A 
ATOM      8  H   UNL     1      44.649   2.480  12.257  0.00  0.00    +0.000 HD
ENDROOT
BRANCH   1   9
ATOM      9  C   UNL     1      46.482   8.115  12.741  0.00  0.00    +0.000 C 
ATOM     10  O   UNL     1      47.645   8.480  12.741  0.00  0.00    +0.000 OA
BRANCH   9  12
ATOM     11  C   UNL     1      44.895   9.720  12.094  0.00  0.00    +0.000 C 
ATOM     12  O   UNL     1      45.406   8.853  13.108  0.00  0.00    +0.000 OA
ENDBRANCH   9  12
ENDBRANCH   1   9
BRANCH   5  13
ATOM     13  C   UNL     1      44.085   2.687  10.251  0.00  0.00    +0.000 C 
BRANCH  13  14
ATOM     14  C   UNL     1      44.925   2.651   8.987  0.00  0.00    +0.000 A 
ATOM     15  C   UNL     1      44.886   3.697   8.053  0.00  0.00    +0.000 A 
ATOM     16  C   UNL     1      45.692   3.664   6.906  0.00  0.00    +0.000 A 
ATOM     17  C   UNL     1      46.551   2.583   6.662  0.00  0.00    +0.000 A 
ATOM     18  C   UNL     1      46.586   1.537   7.593  0.00  0.00    +0.000 A 
ATOM     19  C   UNL     1      45.788   1.573   8.742  0.00  0.00    +0.000 A 
BRANCH  17  20
ATOM     20  C   UNL     1      47.388   2.521   5.407  0.00  0.00    +0.000 C 
BRANCH  20  21
ATOM     21  N   UNL     1      48.606   1.741   5.592  0.00  0.00    +0.000 NA
ATOM     22  H   UNL     1      48.834   1.274   4.716  0.00  0.00    +0.000 HD
ATOM     23  H   UNL     1      48.430   1.006   6.274  0.00  0.00    +0.000 HD
ENDBRANCH  20  21
ENDBRANCH  17  20
ENDBRANCH  13  14
ENDBRANCH   5  13
TORSDOF 6
ENDMDL
MODEL 5
REMARK VINA RESULT:    -6.641      3.544      6.705
REMARK INTER + INTRA:          -9.227
REMARK INTER:                  -8.933
REMARK INTRA:                  -0.294
REMARK UNBOUND:                -0.451
REMARK  Name = 
REMARK  7 active torsions:
REMARK  status: ('A' for Active; 'I' for Inactive)
REMARK    1  A    between atoms: C_1  and  O_2
REMARK    2  A    between atoms: O_2  and  C_3
REMARK    3  A    between atoms: C_3  and  C_5
REMARK    4  A    between atoms: N_9  and  C_10
REMARK    5  A    between atoms: C_10  and  C_11
REMARK    6  A    between atoms: C_14  and  C_15
REMARK    7  A    between atoms: C_15  and  N_16
REMARK                            x       y       z     vdW  Elec       q    Type
REMARK                         _______ _______ _______ _____ _____    ______ ____
ROOT
ATOM      1  C   UNL     1      46.057   2.444   8.085  0.00  0.00    +0.000 A 
ATOM      2  C   UNL     1      45.357   1.779   9.061  0.00  0.00    +0.000 A 
ATOM      3  N   UNL     1      44.459   2.380   9.880  0.00  0.00    +0.000 NA
ATOM      4  C   UNL     1      44.245   3.693   9.706  0.00  0.00    +0.000 A 
ATOM      5  N   UNL     1      43.268   4.250  10.511  0.00  0.00    +0.000 N 
ATOM      6  N   UNL     1      44.894   4.432   8.798  0.00  0.00    +0.000 NA
ATOM      7  C   UNL     1      45.784   3.791   8.000  0.00  0.00    +0.000 A 
ATOM      8  H   UNL     1      43.117   3.629  11.294  0.00  0.00    +0.000 HD
ENDROOT
BRANCH   1   9
ATOM      9  C   UNL     1      47.016   1.739   7.224  0.00  0.00    +0.000 C 
ATOM     10  O   UNL     1      47.097   0.525   7.151  0.00  0.00    +0.000 OA
BRANCH   9  12
ATOM     11  C   UNL     1      47.662   2.596   5.135  0.00  0.00    +0.000 C 
ATOM     12  O   UNL     1      47.782   2.638   6.557  0.00  0.00    +0.000 OA
ENDBRANCH   9  12
ENDBRANCH   1   9
BRANCH   5  13
ATOM     13  C   UNL     1      43.411   5.653  10.841  0.00  0.00    +0.000 C 
BRANCH  13  14
ATOM     14  C   UNL     1      44.632   5.845  11.722  0.00  0.00    +0.000 A 
ATOM     15  C   UNL     1      44.848   5.051  12.858  0.00  0.00    +0.000 A 
ATOM     16  C   UNL     1      45.998   5.220  13.642  0.00  0.00    +0.000 A 
ATOM     17  C   UNL     1      46.955   6.190  13.314  0.00  0.00    +0.000 A 
ATOM     18  C   UNL     1      46.737   6.986  12.182  0.00  0.00    +0.000 A 
ATOM     19  C   UNL     1      45.594   6.813  11.394  0.00  0.00    +0.000 A 
BRANCH  17  20
ATOM     20  C   UNL     1      48.173   6.407  14.181  0.00  0.00    +0.000 C 
BRANCH  20  21
ATOM     21  N   UNL     1      49.364   6.709  13.395  0.00  0.00    +0.000 NA
ATOM     22  H   UNL     1      50.112   6.076  13.676  0.00  0.00    +0.000 HD
ATOM     23  H   UNL     1      49.682   7.649  13.621  0.00  0.00    +0.000 HD
ENDBRANCH  20  21
ENDBRANCH  17  20
ENDBRANCH  13  14
ENDBRANCH   5  13
TORSDOF 6
ENDMDL
MODEL 6
REMARK VINA RESULT:    -6.272      3.860      7.748
REMARK INTER + INTRA:          -8.740
REMARK INTER:                  -8.341
REMARK INTRA:                  -0.398
REMARK UNBOUND:                -0.451
REMARK  Name = 
REMARK  7 active torsions:
REMARK  status: ('A' for Active; 'I' for Inactive)
REMARK    1  A    between atoms: C_1  and  O_2
REMARK    2  A    between atoms: O_2  and  C_3
REMARK    3  A    between atoms: C_3  and  C_5
REMARK    4  A    between atoms: N_9  and  C_10
REMARK    5  A    between atoms: C_10  and  C_11
REMARK    6  A    between atoms: C_14  and  C_15
REMARK    7  A    between atoms: C_15  and  N_16
REMARK                            x       y       z     vdW  Elec       q    Type
REMARK                         _______ _______ _______ _____ _____    ______ ____
ROOT
ATOM      1  C   UNL     1      45.232   4.278  11.655  0.00  0.00    +0.000 A 
ATOM      2  C   UNL     1      45.669   5.540  11.977  0.00  0.00    +0.000 A 
ATOM      3  N   UNL     1      46.342   5.832  13.117  0.00  0.00    +0.000 NA
ATOM      4  C   UNL     1      46.597   4.819  13.961  0.00  0.00    +0.000 A 
ATOM      5  N   UNL     1      47.349   5.146  15.074  0.00  0.00    +0.000 N 
ATOM      6  N   UNL     1      46.193   3.561  13.747  0.00  0.00    +0.000 NA
ATOM      7  C   UNL     1      45.524   3.314  12.594  0.00  0.00    +0.000 A 
ATOM      8  H   UNL     1      47.301   6.149  15.200  0.00  0.00    +0.000 HD
ENDROOT
BRANCH   1   9
ATOM      9  C   UNL     1      44.511   4.021  10.401  0.00  0.00    +0.000 C 
ATOM     10  O   UNL     1      43.384   3.560  10.349  0.00  0.00    +0.000 OA
BRANCH   9  12
ATOM     11  C   UNL     1      45.644   3.274   8.484  0.00  0.00    +0.000 C 
ATOM     12  O   UNL     1      45.293   4.358   9.345  0.00  0.00    +0.000 OA
ENDBRANCH   9  12
ENDBRANCH   1   9
BRANCH   5  13
ATOM     13  C   UNL     1      47.136   4.353  16.267  0.00  0.00    +0.000 C 
BRANCH  13  14
ATOM     14  C   UNL     1      48.430   3.664  16.657  0.00  0.00    +0.000 A 
ATOM     15  C   UNL     1      48.677   2.325  16.318  0.00  0.00    +0.000 A 
ATOM     16  C   UNL     1      49.892   1.713  16.658  0.00  0.00    +0.000 A 
ATOM     17  C   UNL     1      50.884   2.419  17.351  0.00  0.00    +0.000 A 
ATOM     18  C   UNL     1      50.635   3.755  17.694  0.00  0.00    +0.000 A 
ATOM     19  C   UNL     1      49.426   4.369  17.348  0.00  0.00    +0.000 A 
BRANCH  17  20
ATOM     20  C   UNL     1      52.175   1.751  17.759  0.00  0.00    +0.000 C 
BRANCH  20  21
ATOM     21  N   UNL     1      51.978   0.358  18.147  0.00  0.00    +0.000 NA
ATOM     22  H   UNL     1      52.090   0.279  19.156  0.00  0.00    +0.000 HD
ATOM     23  H   UNL     1      52.713  -0.210  17.730  0.00  0.00    +0.000 HD
ENDBRANCH  20  21
ENDBRANCH  17  20
ENDBRANCH  13  14
ENDBRANCH   5  13
TORSDOF 6
ENDMDL
MODEL 7
REMARK VINA RESULT:    -6.239      1.919      2.841
REMARK INTER + INTRA:          -8.696
REMARK INTER:                  -8.308
REMARK INTRA:                  -0.388
REMARK UNBOUND:                -0.451
REMARK  Name = 
REMARK  7 active torsions:
REMARK  status: ('A' for Active; 'I' for Inactive)
REMARK    1  A    between atoms: C_1  and  O_2
REMARK    2  A    between atoms: O_2  and  C_3
REMARK    3  A    between atoms: C_3  and  C_5
REMARK    4  A    between atoms: N_9  and  C_10
REMARK    5  A    between atoms: C_10  and  C_11
REMARK    6  A    between atoms: C_14  and  C_15
REMARK    7  A    between atoms: C_15  and  N_16
REMARK                            x       y       z     vdW  Elec       q    Type
REMARK                         _______ _______ _______ _____ _____    ______ ____
ROOT
ATOM      1  C   UNL     1      48.271   5.711  15.541  0.00  0.00    +0.000 A 
ATOM      2  C   UNL     1      47.572   4.608  15.967  0.00  0.00    +0.000 A 
ATOM      3  N   UNL     1      46.592   4.015  15.241  0.00  0.00    +0.000 NA
ATOM      4  C   UNL     1      46.312   4.540  14.037  0.00  0.00    +0.000 A 
ATOM      5  N   UNL     1      45.360   3.861  13.299  0.00  0.00    +0.000 N 
ATOM      6  N   UNL     1      46.922   5.625  13.545  0.00  0.00    +0.000 NA
ATOM      7  C   UNL     1      47.895   6.186  14.306  0.00  0.00    +0.000 A 
ATOM      8  H   UNL     1      44.831   3.277  13.933  0.00  0.00    +0.000 HD
ENDROOT
BRANCH   1   9
ATOM      9  C   UNL     1      49.326   6.308  16.372  0.00  0.00    +0.000 C 
ATOM     10  O   UNL     1      50.507   6.024  16.276  0.00  0.00    +0.000 OA
BRANCH   9  12
ATOM     11  C   UNL     1      48.958   6.861  18.624  0.00  0.00    +0.000 C 
ATOM     12  O   UNL     1      48.778   7.188  17.246  0.00  0.00    +0.000 OA
ENDBRANCH   9  12
ENDBRANCH   1   9
BRANCH   5  13
ATOM     13  C   UNL     1      44.576   4.641  12.364  0.00  0.00    +0.000 C 
BRANCH  13  14
ATOM     14  C   UNL     1      44.931   4.239  10.944  0.00  0.00    +0.000 A 
ATOM     15  C   UNL     1      44.692   2.941  10.469  0.00  0.00    +0.000 A 
ATOM     16  C   UNL     1      44.995   2.595   9.145  0.00  0.00    +0.000 A 
ATOM     17  C   UNL     1      45.552   3.534   8.266  0.00  0.00    +0.000 A 
ATOM     18  C   UNL     1      45.795   4.829   8.742  0.00  0.00    +0.000 A 
ATOM     19  C   UNL     1      45.485   5.178  10.061  0.00  0.00    +0.000 A 
BRANCH  17  20
ATOM     20  C   UNL     1      45.922   3.154   6.853  0.00  0.00    +0.000 C 
BRANCH  20  21
ATOM     21  N   UNL     1      46.874   4.087   6.260  0.00  0.00    +0.000 NA
ATOM     22  H   UNL     1      47.517   4.404   6.983  0.00  0.00    +0.000 HD
ATOM     23  H   UNL     1      46.374   4.912   5.936  0.00  0.00    +0.000 HD
ENDBRANCH  20  21
ENDBRANCH  17  20
ENDBRANCH  13  14
ENDBRANCH   5  13
TORSDOF 6
ENDMDL
MODEL 8
REMARK VINA RESULT:    -6.169      3.478      6.876
REMARK INTER + INTRA:          -8.604
REMARK INTER:                  -8.850
REMARK INTRA:                   0.246
REMARK UNBOUND:                -0.451
REMARK  Name = 
REMARK  7 active torsions:
REMARK  status: ('A' for Active; 'I' for Inactive)
REMARK    1  A    between atoms: C_1  and  O_2
REMARK    2  A    between atoms: O_2  and  C_3
REMARK    3  A    between atoms: C_3  and  C_5
REMARK    4  A    between atoms: N_9  and  C_10
REMARK    5  A    between atoms: C_10  and  C_11
REMARK    6  A    between atoms: C_14  and  C_15
REMARK    7  A    between atoms: C_15  and  N_16
REMARK                            x       y       z     vdW  Elec       q    Type
REMARK                         _______ _______ _______ _____ _____    ______ ____
ROOT
ATOM      1  C   UNL     1      46.470   2.939   7.416  0.00  0.00    +0.000 A 
ATOM      2  C   UNL     1      45.423   2.376   8.104  0.00  0.00    +0.000 A 
ATOM      3  N   UNL     1      44.630   3.067   8.960  0.00  0.00    +0.000 NA
ATOM      4  C   UNL     1      44.889   4.374   9.123  0.00  0.00    +0.000 A 
ATOM      5  N   UNL     1      44.012   5.057   9.946  0.00  0.00    +0.000 N 
ATOM      6  N   UNL     1      45.899   5.008   8.515  0.00  0.00    +0.000 NA
ATOM      7  C   UNL     1      46.667   4.278   7.668  0.00  0.00    +0.000 A 
ATOM      8  H   UNL     1      43.525   4.378  10.515  0.00  0.00    +0.000 HD
ENDROOT
BRANCH   1   9
ATOM      9  C   UNL     1      47.292   2.140   6.497  0.00  0.00    +0.000 C 
ATOM     10  O   UNL     1      47.422   2.390   5.312  0.00  0.00    +0.000 OA
BRANCH   9  12
ATOM     11  C   UNL     1      46.958   0.025   7.463  0.00  0.00    +0.000 C 
ATOM     12  O   UNL     1      47.850   1.101   7.168  0.00  0.00    +0.000 OA
ENDBRANCH   9  12
ENDBRANCH   1   9
BRANCH   5  13
ATOM     13  C   UNL     1      44.536   6.207  10.652  0.00  0.00    +0.000 C 
BRANCH  13  14
ATOM     14  C   UNL     1      45.311   5.745  11.872  0.00  0.00    +0.000 A 
ATOM     15  C   UNL     1      46.552   6.308  12.207  0.00  0.00    +0.000 A 
ATOM     16  C   UNL     1      47.241   5.892  13.355  0.00  0.00    +0.000 A 
ATOM     17  C   UNL     1      46.711   4.900  14.191  0.00  0.00    +0.000 A 
ATOM     18  C   UNL     1      45.474   4.335  13.854  0.00  0.00    +0.000 A 
ATOM     19  C   UNL     1      44.782   4.755  12.713  0.00  0.00    +0.000 A 
BRANCH  17  20
ATOM     20  C   UNL     1      47.469   4.417  15.404  0.00  0.00    +0.000 C 
BRANCH  20  21
ATOM     21  N   UNL     1      47.866   3.018  15.288  0.00  0.00    +0.000 NA
ATOM     22  H   UNL     1      47.423   2.618  14.463  0.00  0.00    +0.000 HD
ATOM     23  H   UNL     1      47.505   2.502  16.088  0.00  0.00    +0.000 HD
ENDBRANCH  20  21
ENDBRANCH  17  20
ENDBRANCH  13  14
ENDBRANCH   5  13
TORSDOF 6
ENDMDL
MODEL 9
REMARK VINA RESULT:    -5.719      3.757      6.310
REMARK INTER + INTRA:          -8.009
REMARK INTER:                  -7.719
REMARK INTRA:                  -0.290
REMARK UNBOUND:                -0.451
REMARK  Name = 
REMARK  7 active torsions:
REMARK  status: ('A' for Active; 'I' for Inactive)
REMARK    1  A    between atoms: C_1  and  O_2
REMARK    2  A    between atoms: O_2  and  C_3
REMARK    3  A    between atoms: C_3  and  C_5
REMARK    4  A    between atoms: N_9  and  C_10
REMARK    5  A    between atoms: C_10  and  C_11
REMARK    6  A    between atoms: C_14  and  C_15
REMARK    7  A    between atoms: C_15  and  N_16
REMARK                            x       y       z     vdW  Elec       q    Type
REMARK                         _______ _______ _______ _____ _____    ______ ____
ROOT
ATOM      1  C   UNL     1      44.217   4.270  11.588  0.00  0.00    +0.000 A 
ATOM      2  C   UNL     1      45.029   4.219  12.695  0.00  0.00    +0.000 A 
ATOM      3  N   UNL     1      45.616   5.310  13.246  0.00  0.00    +0.000 NA
ATOM      4  C   UNL     1      45.369   6.499  12.674  0.00  0.00    +0.000 A 
ATOM      5  N   UNL     1      45.924   7.593  13.311  0.00  0.00    +0.000 N 
ATOM      6  N   UNL     1      44.610   6.649  11.581  0.00  0.00    +0.000 NA
ATOM      7  C   UNL     1      44.044   5.531  11.063  0.00  0.00    +0.000 A 
ATOM      8  H   UNL     1      46.669   7.261  13.909  0.00  0.00    +0.000 HD
ENDROOT
BRANCH   1   9
ATOM      9  C   UNL     1      43.606   3.053  11.038  0.00  0.00    +0.000 C 
ATOM     10  O   UNL     1      43.007   2.231  11.710  0.00  0.00    +0.000 OA
BRANCH   9  12
ATOM     11  C   UNL     1      44.934   2.177   9.310  0.00  0.00    +0.000 C 
ATOM     12  O   UNL     1      43.829   2.992   9.701  0.00  0.00    +0.000 OA
ENDBRANCH   9  12
ENDBRANCH   1   9
BRANCH   5  13
ATOM     13  C   UNL     1      46.247   8.739  12.486  0.00  0.00    +0.000 C 
BRANCH  13  14
ATOM     14  C   UNL     1      47.725   8.717  12.140  0.00  0.00    +0.000 A 
ATOM     15  C   UNL     1      48.461   7.523  12.154  0.00  0.00    +0.000 A 
ATOM     16  C   UNL     1      49.818   7.514  11.800  0.00  0.00    +0.000 A 
ATOM     17  C   UNL     1      50.473   8.698  11.433  0.00  0.00    +0.000 A 
ATOM     18  C   UNL     1      49.738   9.890  11.424  0.00  0.00    +0.000 A 
ATOM     19  C   UNL     1      48.382   9.899  11.768  0.00  0.00    +0.000 A 
BRANCH  17  20
ATOM     20  C   UNL     1      51.944   8.701  11.095  0.00  0.00    +0.000 C 
BRANCH  20  21
ATOM     21  N   UNL     1      52.480   7.353  10.942  0.00  0.00    +0.000 NA
ATOM     22  H   UNL     1      52.063   6.925  10.117  0.00  0.00    +0.000 HD
ATOM     23  H   UNL     1      52.191   6.787  11.738  0.00  0.00    +0.000 HD
ENDBRANCH  20  21
ENDBRANCH  17  20
ENDBRANCH  13  14
ENDBRANCH   5  13
TORSDOF 6
ENDMDL
