MODEL 1
REMARK VINA RESULT:    -9.080      0.000      0.000
REMARK INTER + INTRA:         -12.039
REMARK INTER:                 -11.203
REMARK INTRA:                  -0.836
REMARK UNBOUND:                -0.836
REMARK  Name = 
REMARK  4 active torsions:
REMARK  status: ('A' for Active; 'I' for Inactive)
REMARK    1  A    between atoms: C_2  and  C_4
REMARK    2  A    between atoms: N_8  and  C_9
REMARK    3  A    between atoms: C_9  and  C_10
REMARK    4  A    between atoms: C_15  and  C_16
REMARK                            x       y       z     vdW  Elec       q    Type
REMARK                         _______ _______ _______ _____ _____    ______ ____
ROOT
ATOM      1  C   UNL     1      43.593   4.790  11.136  0.00  0.00    +0.000 C 
ENDROOT
BRANCH   1   6
ATOM      2  C   UNL     1      46.338   2.214   7.667  0.00  0.00    +0.000 A 
ATOM      3  C   UNL     1      45.699   1.744   8.807  0.00  0.00    +0.000 A 
ATOM      4  C   UNL     1      44.860   2.599   9.520  0.00  0.00    +0.000 A 
ATOM      5  C   UNL     1      44.689   3.913   9.098  0.00  0.00    +0.000 A 
ATOM      6  N   UNL     1      43.832   4.800   9.710  0.00  0.00    +0.000 N 
ATOM      7  N   UNL     1      45.310   4.382   7.996  0.00  0.00    +0.000 NA
ATOM      8  C   UNL     1      46.123   3.534   7.309  0.00  0.00    +0.000 A 
ATOM      9  H   UNL     1      43.951   5.712   9.279  0.00  0.00    +0.000 HD
BRANCH   2  11
ATOM     10  N   UNL     1      48.284   1.990   6.228  0.00  0.00    +0.000 N 
ATOM     11  C   UNL     1      47.233   1.370   6.852  0.00  0.00    +0.000 C 
ATOM     12  O   UNL     1      47.064   0.166   6.757  0.00  0.00    +0.000 OA
ATOM     13  H   UNL     1      48.941   1.390   5.752  0.00  0.00    +0.000 HD
ATOM     14  H   UNL     1      48.596   2.914   6.481  0.00  0.00    +0.000 HD
ENDBRANCH   2  11
ENDBRANCH   1   6
BRANCH   1  15
ATOM     15  C   UNL     1      44.833   5.094  11.946  0.00  0.00    +0.000 A 
ATOM     16  C   UNL     1      45.208   4.264  13.003  0.00  0.00    +0.000 A 
ATOM     17  C   UNL     1      46.258   4.635  13.838  0.00  0.00    +0.000 A 
ATOM     18  C   UNL     1      46.952   5.837  13.632  0.00  0.00    +0.000 A 
ATOM     19 CL   UNL     1      48.102   6.237  14.866  0.00  0.00    +0.000 Cl
ATOM     20  C   UNL     1      46.655   6.678  12.535  0.00  0.00    +0.000 A 
ATOM     21  C   UNL     1      45.580   6.263  11.707  0.00  0.00    +0.000 A 
BRANCH  20  22
ATOM     22  C   UNL     1      47.366   7.951  12.217  0.00  0.00    +0.000 A 
ATOM     23  C   UNL     1      46.780   9.214  12.359  0.00  0.00    +0.000 A 
ATOM     24  N   UNL     1      47.381  10.402  12.076  0.00  0.00    +0.000 NA
ATOM     25  C   UNL     1      48.664  10.348  11.660  0.00  0.00    +0.000 A 
ATOM     26  C   UNL     1      49.365   9.166  11.522  0.00  0.00    +0.000 A 
ATOM     27 CL   UNL     1      51.016   9.172  11.049  0.00  0.00    +0.000 Cl
ATOM     28  C   UNL     1      48.708   7.964  11.789  0.00  0.00    +0.000 A 
ENDBRANCH  20  22
ENDBRANCH   1  15
TORSDOF 4
ENDMDL
MODEL 2
REMARK VINA RESULT:    -9.009      2.168      4.083
REMARK INTER + INTRA:         -11.952
REMARK INTER:                 -11.151
REMARK INTRA:                  -0.801
REMARK UNBOUND:                -0.836
REMARK  Name = 
REMARK  4 active torsions:
REMARK  status: ('A' for Active; 'I' for Inactive)
REMARK    1  A    between atoms: C_2  and  C_4
REMARK    2  A    between atoms: N_8  and  C_9
REMARK    3  A    between atoms: C_9  and  C_10
REMARK    4  A    between atoms: C_15  and  C_16
REMARK                            x       y       z     vdW  Elec       q    Type
REMARK                         _______ _______ _______ _____ _____    ______ ____
ROOT
ATOM      1  C   UNL     1      43.522   4.814  11.085  0.00  0.00    +0.000 C 
ENDROOT
BRANCH   1   6
ATOM      2  C   UNL     1      46.346   2.246   7.675  0.00  0.00    +0.000 A 
ATOM      3  C   UNL     1      45.666   1.770   8.789  0.00  0.00    +0.000 A 
ATOM      4  C   UNL     1      44.815   2.627   9.486  0.00  0.00    +0.000 A 
ATOM      5  C   UNL     1      44.671   3.947   9.073  0.00  0.00    +0.000 A 
ATOM      6  N   UNL     1      43.805   4.837   9.668  0.00  0.00    +0.000 N 
ATOM      7  N   UNL     1      45.331   4.421   7.996  0.00  0.00    +0.000 NA
ATOM      8  C   UNL     1      46.156   3.572   7.325  0.00  0.00    +0.000 A 
ATOM      9  H   UNL     1      43.948   5.752   9.251  0.00  0.00    +0.000 HD
BRANCH   2  11
ATOM     10  N   UNL     1      48.305   2.024   6.253  0.00  0.00    +0.000 N 
ATOM     11  C   UNL     1      47.256   1.401   6.879  0.00  0.00    +0.000 C 
ATOM     12  O   UNL     1      47.102   0.193   6.800  0.00  0.00    +0.000 OA
ATOM     13  H   UNL     1      48.972   1.426   5.791  0.00  0.00    +0.000 HD
ATOM     14  H   UNL     1      48.603   2.956   6.495  0.00  0.00    +0.000 HD
ENDBRANCH   2  11
ENDBRANCH   1   6
BRANCH   1  15
ATOM     15  C   UNL     1      44.593   5.488  11.914  0.00  0.00    +0.000 A 
ATOM     16  C   UNL     1      45.025   6.776  11.598  0.00  0.00    +0.000 A 
ATOM     17  C   UNL     1      46.114   7.327  12.267  0.00  0.00    +0.000 A 
ATOM     18  C   UNL     1      46.788   6.603  13.263  0.00  0.00    +0.000 A 
ATOM     19 CL   UNL     1      48.230   7.356  13.863  0.00  0.00    +0.000 Cl
ATOM     20  C   UNL     1      46.345   5.322  13.667  0.00  0.00    +0.000 A 
ATOM     21  C   UNL     1      45.232   4.798  12.962  0.00  0.00    +0.000 A 
BRANCH  20  22
ATOM     22  C   UNL     1      46.975   4.501  14.742  0.00  0.00    +0.000 A 
ATOM     23  C   UNL     1      47.500   3.221  14.524  0.00  0.00    +0.000 A 
ATOM     24  N   UNL     1      48.076   2.430  15.469  0.00  0.00    +0.000 NA
ATOM     25  C   UNL     1      48.180   2.947  16.711  0.00  0.00    +0.000 A 
ATOM     26  C   UNL     1      47.741   4.215  17.042  0.00  0.00    +0.000 A 
ATOM     27 CL   UNL     1      47.961   4.836  18.627  0.00  0.00    +0.000 Cl
ATOM     28  C   UNL     1      47.125   4.986  16.055  0.00  0.00    +0.000 A 
ENDBRANCH  20  22
ENDBRANCH   1  15
TORSDOF 4
ENDMDL
MODEL 3
REMARK VINA RESULT:    -8.052      2.027      2.694
REMARK INTER + INTRA:         -10.771
REMARK INTER:                 -10.515
REMARK INTRA:                  -0.256
REMARK UNBOUND:                -0.836
REMARK  Name = 
REMARK  4 active torsions:
REMARK  status: ('A' for Active; 'I' for Inactive)
REMARK    1  A    between atoms: C_2  and  C_4
REMARK    2  A    between atoms: N_8  and  C_9
REMARK    3  A    between atoms: C_9  and  C_10
REMARK    4  A    between atoms: C_15  and  C_16
REMARK                            x       y       z     vdW  Elec       q    Type
REMARK                         _______ _______ _______ _____ _____    ______ ____
ROOT
ATOM      1  C   UNL     1      43.377   3.349  11.217  0.00  0.00    +0.000 C 
ENDROOT
BRANCH   1   6
ATOM      2  C   UNL     1      46.514   2.710   7.222  0.00  0.00    +0.000 A 
ATOM      3  C   UNL     1      45.958   3.880   7.725  0.00  0.00    +0.000 A 
ATOM      4  C   UNL     1      45.263   3.841   8.933  0.00  0.00    +0.000 A 
ATOM      5  C   UNL     1      45.116   2.634   9.609  0.00  0.00    +0.000 A 
ATOM      6  N   UNL     1      44.501   2.523  10.835  0.00  0.00    +0.000 N 
ATOM      7  N   UNL     1      45.647   1.492   9.127  0.00  0.00    +0.000 NA
ATOM      8  C   UNL     1      46.324   1.546   7.948  0.00  0.00    +0.000 A 
ATOM      9  H   UNL     1      44.438   1.538  11.075  0.00  0.00    +0.000 HD
BRANCH   2  11
ATOM     10  N   UNL     1      48.621   2.442   6.040  0.00  0.00    +0.000 N 
ATOM     11  C   UNL     1      47.271   2.670   5.957  0.00  0.00    +0.000 C 
ATOM     12  O   UNL     1      46.721   2.806   4.877  0.00  0.00    +0.000 OA
ATOM     13  H   UNL     1      49.111   2.323   5.167  0.00  0.00    +0.000 HD
ATOM     14  H   UNL     1      49.059   2.082   6.874  0.00  0.00    +0.000 HD
ENDBRANCH   2  11
ENDBRANCH   1   6
BRANCH   1  15
ATOM     15  C   UNL     1      43.765   4.785  11.495  0.00  0.00    +0.000 A 
ATOM     16  C   UNL     1      42.888   5.826  11.188  0.00  0.00    +0.000 A 
ATOM     17  C   UNL     1      43.311   7.147  11.303  0.00  0.00    +0.000 A 
ATOM     18  C   UNL     1      44.613   7.451  11.726  0.00  0.00    +0.000 A 
ATOM     19 CL   UNL     1      45.037   9.130  11.636  0.00  0.00    +0.000 Cl
ATOM     20  C   UNL     1      45.516   6.434  12.115  0.00  0.00    +0.000 A 
ATOM     21  C   UNL     1      45.046   5.102  11.986  0.00  0.00    +0.000 A 
BRANCH  20  22
ATOM     22  C   UNL     1      46.902   6.668  12.615  0.00  0.00    +0.000 A 
ATOM     23  C   UNL     1      47.361   6.205  13.854  0.00  0.00    +0.000 A 
ATOM     24  N   UNL     1      48.610   6.398  14.359  0.00  0.00    +0.000 NA
ATOM     25  C   UNL     1      49.485   7.061  13.574  0.00  0.00    +0.000 A 
ATOM     26  C   UNL     1      49.166   7.529  12.314  0.00  0.00    +0.000 A 
ATOM     27 CL   UNL     1      50.346   8.310  11.342  0.00  0.00    +0.000 Cl
ATOM     28  C   UNL     1      47.867   7.342  11.841  0.00  0.00    +0.000 A 
ENDBRANCH  20  22
ENDBRANCH   1  15
TORSDOF 4
ENDMDL
MODEL 4
REMARK VINA RESULT:    -7.445      1.949      2.636
REMARK INTER + INTRA:         -10.021
REMARK INTER:                  -9.237
REMARK INTRA:                  -0.784
REMARK UNBOUND:                -0.836
REMARK  Name = 
REMARK  4 active torsions:
REMARK  status: ('A' for Active; 'I' for Inactive)
REMARK    1  A    between atoms: C_2  and  C_4
REMARK    2  A    between atoms: N_8  and  C_9
REMARK    3  A    between atoms: C_9  and  C_10
REMARK    4  A    between atoms: C_15  and  C_16
REMARK                            x       y       z     vdW  Elec       q    Type
REMARK                         _______ _______ _______ _____ _____    ______ ____
ROOT
ATOM      1  C   UNL     1      43.343   5.257  10.806  0.00  0.00    +0.000 C 
ENDROOT
BRANCH   1   6
ATOM      2  C   UNL     1      46.379   2.615   7.644  0.00  0.00    +0.000 A 
ATOM      3  C   UNL     1      46.113   3.978   7.672  0.00  0.00    +0.000 A 
ATOM      4  C   UNL     1      45.382   4.509   8.734  0.00  0.00    +0.000 A 
ATOM      5  C   UNL     1      44.912   3.670   9.739  0.00  0.00    +0.000 A 
ATOM      6  N   UNL     1      44.239   4.123  10.851  0.00  0.00    +0.000 N 
ATOM      7  N   UNL     1      45.160   2.344   9.719  0.00  0.00    +0.000 NA
ATOM      8  C   UNL     1      45.876   1.841   8.677  0.00  0.00    +0.000 A 
ATOM      9  H   UNL     1      43.923   3.320  11.386  0.00  0.00    +0.000 HD
BRANCH   2  11
ATOM     10  N   UNL     1      47.841   2.806   5.712  0.00  0.00    +0.000 N 
ATOM     11  C   UNL     1      47.153   1.979   6.561  0.00  0.00    +0.000 C 
ATOM     12  O   UNL     1      47.204   0.766   6.439  0.00  0.00    +0.000 OA
ATOM     13  H   UNL     1      48.440   2.358   5.035  0.00  0.00    +0.000 HD
ATOM     14  H   UNL     1      48.024   3.773   5.927  0.00  0.00    +0.000 HD
ENDBRANCH   2  11
ENDBRANCH   1   6
BRANCH   1  15
ATOM     15  C   UNL     1      44.005   6.553  11.220  0.00  0.00    +0.000 A 
ATOM     16  C   UNL     1      43.356   7.772  11.026  0.00  0.00    +0.000 A 
ATOM     17  C   UNL     1      44.031   8.965  11.265  0.00  0.00    +0.000 A 
ATOM     18  C   UNL     1      45.364   8.961  11.704  0.00  0.00    +0.000 A 
ATOM     19 CL   UNL     1      46.114  10.524  11.774  0.00  0.00    +0.000 Cl
ATOM     20  C   UNL     1      46.043   7.752  11.981  0.00  0.00    +0.000 A 
ATOM     21  C   UNL     1      45.319   6.560  11.727  0.00  0.00    +0.000 A 
BRANCH  20  22
ATOM     22  C   UNL     1      47.443   7.656  12.488  0.00  0.00    +0.000 A 
ATOM     23  C   UNL     1      47.760   7.407  13.829  0.00  0.00    +0.000 A 
ATOM     24  N   UNL     1      49.017   7.318  14.343  0.00  0.00    +0.000 NA
ATOM     25  C   UNL     1      50.038   7.445  13.470  0.00  0.00    +0.000 A 
ATOM     26  C   UNL     1      49.855   7.649  12.116  0.00  0.00    +0.000 A 
ATOM     27 CL   UNL     1      51.199   7.738  11.050  0.00  0.00    +0.000 Cl
ATOM     28  C   UNL     1      48.553   7.768  11.628  0.00  0.00    +0.000 A 
ENDBRANCH  20  22
ENDBRANCH   1  15
TORSDOF 4
ENDMDL
MODEL 5
REMARK VINA RESULT:    -6.584      6.040      8.497
REMARK INTER + INTRA:          -8.960
REMARK INTER:                  -8.294
REMARK INTRA:                  -0.665
REMARK UNBOUND:                -0.836
REMARK  Name = 
REMARK  4 active torsions:
REMARK  status: ('A' for Active; 'I' for Inactive)
REMARK    1  A    between atoms: C_2  and  C_4
REMARK    2  A    between atoms: N_8  and  C_9
REMARK    3  A    between atoms: C_9  and  C_10
REMARK    4  A    between atoms: C_15  and  C_16
REMARK                            x       y       z     vdW  Elec       q    Type
REMARK                         _______ _______ _______ _____ _____    ______ ____
ROOT
ATOM      1  C   UNL     1      48.972   5.990  17.066  0.00  0.00    +0.000 C 
ENDROOT
BRANCH   1   6
ATOM      2  C   UNL     1      52.175   2.044  17.673  0.00  0.00    +0.000 A 
ATOM      3  C   UNL     1      52.391   3.396  17.909  0.00  0.00    +0.000 A 
ATOM      4  C   UNL     1      51.316   4.281  17.837  0.00  0.00    +0.000 A 
ATOM      5  C   UNL     1      50.050   3.808  17.511  0.00  0.00    +0.000 A 
ATOM      6  N   UNL     1      48.928   4.606  17.481  0.00  0.00    +0.000 N 
ATOM      7  N   UNL     1      49.830   2.499  17.274  0.00  0.00    +0.000 NA
ATOM      8  C   UNL     1      50.888   1.646  17.351  0.00  0.00    +0.000 A 
ATOM      9  H   UNL     1      48.150   4.054  17.130  0.00  0.00    +0.000 HD
BRANCH   2  11
ATOM     10  N   UNL     1      52.928  -0.205  18.206  0.00  0.00    +0.000 N 
ATOM     11  C   UNL     1      53.256   1.043  17.740  0.00  0.00    +0.000 C 
ATOM     12  O   UNL     1      54.390   1.300  17.371  0.00  0.00    +0.000 OA
ATOM     13  H   UNL     1      53.651  -0.906  18.159  0.00  0.00    +0.000 HD
ATOM     14  H   UNL     1      51.975  -0.523  18.279  0.00  0.00    +0.000 HD
ENDBRANCH   2  11
ENDBRANCH   1   6
BRANCH   1  15
ATOM     15  C   UNL     1      48.660   6.179  15.598  0.00  0.00    +0.000 A 
ATOM     16  C   UNL     1      49.378   7.102  14.836  0.00  0.00    +0.000 A 
ATOM     17  C   UNL     1      48.984   7.380  13.531  0.00  0.00    +0.000 A 
ATOM     18  C   UNL     1      47.869   6.743  12.964  0.00  0.00    +0.000 A 
ATOM     19 CL   UNL     1      47.404   7.338  11.403  0.00  0.00    +0.000 Cl
ATOM     20  C   UNL     1      47.152   5.751  13.671  0.00  0.00    +0.000 A 
ATOM     21  C   UNL     1      47.586   5.495  14.997  0.00  0.00    +0.000 A 
BRANCH  20  22
ATOM     22  C   UNL     1      45.983   4.995  13.132  0.00  0.00    +0.000 A 
ATOM     23  C   UNL     1      45.962   3.601  13.004  0.00  0.00    +0.000 A 
ATOM     24  N   UNL     1      44.927   2.867  12.513  0.00  0.00    +0.000 NA
ATOM     25  C   UNL     1      43.817   3.547  12.157  0.00  0.00    +0.000 A 
ATOM     26  C   UNL     1      43.698   4.918  12.277  0.00  0.00    +0.000 A 
ATOM     27 CL   UNL     1      42.234   5.714  11.865  0.00  0.00    +0.000 Cl
ATOM     28  C   UNL     1      44.791   5.643  12.754  0.00  0.00    +0.000 A 
ENDBRANCH  20  22
ENDBRANCH   1  15
TORSDOF 4
ENDMDL
MODEL 6
REMARK VINA RESULT:    -6.505      5.163      8.178
REMARK INTER + INTRA:          -8.861
REMARK INTER:                  -8.276
REMARK INTRA:                  -0.586
REMARK UNBOUND:                -0.836
REMARK  Name = 
REMARK  4 active torsions:
REMARK  status: ('A' for Active; 'I' for Inactive)
REMARK    1  A    between atoms: C_2  and  C_4
REMARK    2  A    between atoms: N_8  and  C_9
REMARK    3  A    between atoms: C_9  and  C_10
REMARK    4  A    between atoms: C_15  and  C_16
REMARK                            x       y       z     vdW  Elec       q    Type
REMARK                         _______ _______ _______ _____ _____    ______ ____
ROOT
ATOM      1  C   UNL     1      48.518   7.507  14.302  0.00  0.00    +0.000 C 
ENDROOT
BRANCH   1   6
ATOM      2  C   UNL     1      50.906   4.523  17.708  0.00  0.00    +0.000 A 
ATOM      3  C   UNL     1      51.296   5.752  17.189  0.00  0.00    +0.000 A 
ATOM      4  C   UNL     1      50.404   6.472  16.397  0.00  0.00    +0.000 A 
ATOM      5  C   UNL     1      49.146   5.948  16.117  0.00  0.00    +0.000 A 
ATOM      6  N   UNL     1      48.187   6.623  15.397  0.00  0.00    +0.000 N 
ATOM      7  N   UNL     1      48.759   4.754  16.611  0.00  0.00    +0.000 NA
ATOM      8  C   UNL     1      49.640   4.063  17.385  0.00  0.00    +0.000 A 
ATOM      9  H   UNL     1      47.397   6.001  15.251  0.00  0.00    +0.000 HD
BRANCH   2  11
ATOM     10  N   UNL     1      51.951   4.109  19.863  0.00  0.00    +0.000 N 
ATOM     11  C   UNL     1      51.787   3.706  18.562  0.00  0.00    +0.000 C 
ATOM     12  O   UNL     1      52.328   2.696  18.143  0.00  0.00    +0.000 OA
ATOM     13  H   UNL     1      52.479   3.492  20.461  0.00  0.00    +0.000 HD
ATOM     14  H   UNL     1      51.338   4.775  20.305  0.00  0.00    +0.000 HD
ENDBRANCH   2  11
ENDBRANCH   1   6
BRANCH   1  15
ATOM     15  C   UNL     1      47.375   7.704  13.331  0.00  0.00    +0.000 A 
ATOM     16  C   UNL     1      46.748   8.945  13.220  0.00  0.00    +0.000 A 
ATOM     17  C   UNL     1      45.602   9.077  12.441  0.00  0.00    +0.000 A 
ATOM     18  C   UNL     1      45.064   7.974  11.761  0.00  0.00    +0.000 A 
ATOM     19 CL   UNL     1      43.537   8.266  10.992  0.00  0.00    +0.000 Cl
ATOM     20  C   UNL     1      45.701   6.712  11.787  0.00  0.00    +0.000 A 
ATOM     21  C   UNL     1      46.867   6.620  12.589  0.00  0.00    +0.000 A 
BRANCH  20  22
ATOM     22  C   UNL     1      45.222   5.499  11.062  0.00  0.00    +0.000 A 
ATOM     23  C   UNL     1      44.270   4.616  11.586  0.00  0.00    +0.000 A 
ATOM     24  N   UNL     1      43.806   3.495  10.971  0.00  0.00    +0.000 NA
ATOM     25  C   UNL     1      44.284   3.240   9.735  0.00  0.00    +0.000 A 
ATOM     26  C   UNL     1      45.193   4.058   9.092  0.00  0.00    +0.000 A 
ATOM     27 CL   UNL     1      45.713   3.710   7.493  0.00  0.00    +0.000 Cl
ATOM     28  C   UNL     1      45.672   5.183   9.766  0.00  0.00    +0.000 A 
ENDBRANCH  20  22
ENDBRANCH   1  15
TORSDOF 4
ENDMDL
MODEL 7
REMARK VINA RESULT:    -6.265      2.811      4.945
REMARK INTER + INTRA:          -8.566
REMARK INTER:                  -7.797
REMARK INTRA:                  -0.769
REMARK UNBOUND:                -0.836
REMARK  Name = 
REMARK  4 active torsions:
REMARK  status: ('A' for Active; 'I' for Inactive)
REMARK    1  A    between atoms: C_2  and  C_4
REMARK    2  A    between atoms: N_8  and  C_9
REMARK    3  A    between atoms: C_9  and  C_10
REMARK    4  A    between atoms: C_15  and  C_16
REMARK                            x       y       z     vdW  Elec       q    Type
REMARK                         _______ _______ _______ _____ _____    ______ ____
ROOT
ATOM      1  C   UNL     1      45.282   9.065  12.129  0.00  0.00    +0.000 C 
ENDROOT
BRANCH   1   6
ATOM      2  C   UNL     1      44.626   4.491   9.927  0.00  0.00    +0.000 A 
ATOM      3  C   UNL     1      45.764   5.287   9.979  0.00  0.00    +0.000 A 
ATOM      4  C   UNL     1      45.764   6.425  10.784  0.00  0.00    +0.000 A 
ATOM      5  C   UNL     1      44.625   6.763  11.506  0.00  0.00    +0.000 A 
ATOM      6  N   UNL     1      44.565   7.833  12.371  0.00  0.00    +0.000 N 
ATOM      7  N   UNL     1      43.513   6.001  11.459  0.00  0.00    +0.000 NA
ATOM      8  C   UNL     1      43.529   4.891  10.671  0.00  0.00    +0.000 A 
ATOM      9  H   UNL     1      43.610   7.925  12.704  0.00  0.00    +0.000 HD
BRANCH   2  11
ATOM     10  N   UNL     1      44.444   2.072   9.775  0.00  0.00    +0.000 N 
ATOM     11  C   UNL     1      44.550   3.266   9.109  0.00  0.00    +0.000 C 
ATOM     12  O   UNL     1      44.553   3.310   7.890  0.00  0.00    +0.000 OA
ATOM     13  H   UNL     1      44.298   1.252   9.206  0.00  0.00    +0.000 HD
ATOM     14  H   UNL     1      44.190   2.015  10.748  0.00  0.00    +0.000 HD
ENDBRANCH   2  11
ENDBRANCH   1   6
BRANCH   1  15
ATOM     15  C   UNL     1      46.707   9.031  12.633  0.00  0.00    +0.000 A 
ATOM     16  C   UNL     1      47.724   9.669  11.922  0.00  0.00    +0.000 A 
ATOM     17  C   UNL     1      49.051   9.503  12.308  0.00  0.00    +0.000 A 
ATOM     18  C   UNL     1      49.385   8.700  13.409  0.00  0.00    +0.000 A 
ATOM     19 CL   UNL     1      51.085   8.449  13.641  0.00  0.00    +0.000 Cl
ATOM     20  C   UNL     1      48.387   8.089  14.203  0.00  0.00    +0.000 A 
ATOM     21  C   UNL     1      47.048   8.285  13.777  0.00  0.00    +0.000 A 
BRANCH  20  22
ATOM     22  C   UNL     1      48.649   7.254  15.412  0.00  0.00    +0.000 A 
ATOM     23  C   UNL     1      49.245   7.753  16.576  0.00  0.00    +0.000 A 
ATOM     24  N   UNL     1      49.513   7.034  17.700  0.00  0.00    +0.000 NA
ATOM     25  C   UNL     1      49.133   5.739  17.695  0.00  0.00    +0.000 A 
ATOM     26  C   UNL     1      48.498   5.141  16.624  0.00  0.00    +0.000 A 
ATOM     27 CL   UNL     1      47.985   3.505  16.707  0.00  0.00    +0.000 Cl
ATOM     28  C   UNL     1      48.268   5.900  15.475  0.00  0.00    +0.000 A 
ENDBRANCH  20  22
ENDBRANCH   1  15
TORSDOF 4
ENDMDL
MODEL 8
REMARK VINA RESULT:    -6.195      4.342      6.512
REMARK INTER + INTRA:          -8.479
REMARK INTER:                  -7.807
REMARK INTRA:                  -0.672
REMARK UNBOUND:                -0.836
REMARK  Name = 
REMARK  4 active torsions:
REMARK  status: ('A' for Active; 'I' for Inactive)
REMARK    1  A    between atoms: C_2  and  C_4
REMARK    2  A    between atoms: N_8  and  C_9
REMARK    3  A    between atoms: C_9  and  C_10
REMARK    4  A    between atoms: C_15  and  C_16
REMARK                            x       y       z     vdW  Elec       q    Type
REMARK                         _______ _______ _______ _____ _____    ______ ____
ROOT
ATOM      1  C   UNL     1      47.962   8.476  13.824  0.00  0.00    +0.000 C 
ENDROOT
BRANCH   1   6
ATOM      2  C   UNL     1      44.595   5.487  11.388  0.00  0.00    +0.000 A 
ATOM      3  C   UNL     1      45.699   5.127  12.151  0.00  0.00    +0.000 A 
ATOM      4  C   UNL     1      46.382   6.109  12.867  0.00  0.00    +0.000 A 
ATOM      5  C   UNL     1      45.967   7.434  12.795  0.00  0.00    +0.000 A 
ATOM      6  N   UNL     1      46.549   8.451  13.520  0.00  0.00    +0.000 N 
ATOM      7  N   UNL     1      44.901   7.796  12.053  0.00  0.00    +0.000 NA
ATOM      8  C   UNL     1      44.242   6.826  11.362  0.00  0.00    +0.000 A 
ATOM      9  H   UNL     1      46.134   9.331  13.229  0.00  0.00    +0.000 HD
BRANCH   2  11
ATOM     10  N   UNL     1      43.928   4.555   9.245  0.00  0.00    +0.000 N 
ATOM     11  C   UNL     1      43.813   4.508  10.611  0.00  0.00    +0.000 C 
ATOM     12  O   UNL     1      43.113   3.671  11.155  0.00  0.00    +0.000 OA
ATOM     13  H   UNL     1      43.464   3.823   8.729  0.00  0.00    +0.000 HD
ATOM     14  H   UNL     1      44.671   5.053   8.781  0.00  0.00    +0.000 HD
ENDBRANCH   2  11
ENDBRANCH   1   6
BRANCH   1  15
ATOM     15  C   UNL     1      48.268   8.085  15.253  0.00  0.00    +0.000 A 
ATOM     16  C   UNL     1      48.277   9.048  16.262  0.00  0.00    +0.000 A 
ATOM     17  C   UNL     1      48.709   8.709  17.541  0.00  0.00    +0.000 A 
ATOM     18  C   UNL     1      49.138   7.406  17.834  0.00  0.00    +0.000 A 
ATOM     19 CL   UNL     1      49.817   7.199  19.416  0.00  0.00    +0.000 Cl
ATOM     20  C   UNL     1      49.082   6.379  16.864  0.00  0.00    +0.000 A 
ATOM     21  C   UNL     1      48.634   6.764  15.575  0.00  0.00    +0.000 A 
BRANCH  20  22
ATOM     22  C   UNL     1      49.478   4.959  17.099  0.00  0.00    +0.000 A 
ATOM     23  C   UNL     1      48.592   3.882  16.973  0.00  0.00    +0.000 A 
ATOM     24  N   UNL     1      48.900   2.574  17.184  0.00  0.00    +0.000 NA
ATOM     25  C   UNL     1      50.181   2.298  17.505  0.00  0.00    +0.000 A 
ATOM     26  C   UNL     1      51.160   3.267  17.616  0.00  0.00    +0.000 A 
ATOM     27 CL   UNL     1      52.786   2.841  17.966  0.00  0.00    +0.000 Cl
ATOM     28  C   UNL     1      50.801   4.602  17.426  0.00  0.00    +0.000 A 
ENDBRANCH  20  22
ENDBRANCH   1  15
TORSDOF 4
ENDMDL
MODEL 9
REMARK VINA RESULT:    -6.193      3.236      5.561
REMARK INTER + INTRA:          -8.477
REMARK INTER:                  -7.741
REMARK INTRA:                  -0.737
REMARK UNBOUND:                -0.836
REMARK  Name = 
REMARK  4 active torsions:
REMARK  status: ('A' for Active; 'I' for Inactive)
REMARK    1  A    between atoms: C_2  and  C_4
REMARK    2  A    between atoms: N_8  and  C_9
REMARK    3  A    between atoms: C_9  and  C_10
REMARK    4  A    between atoms: C_15  and  C_16
REMARK                            x       y       z     vdW  Elec       q    Type
REMARK                         _______ _______ _______ _____ _____    ______ ____
ROOT
ATOM      1  C   UNL     1      46.992   8.439  12.658  0.00  0.00    +0.000 C 
ENDROOT
BRANCH   1   6
ATOM      2  C   UNL     1      44.813   3.988  11.374  0.00  0.00    +0.000 A 
ATOM      3  C   UNL     1      44.862   5.181  10.662  0.00  0.00    +0.000 A 
ATOM      4  C   UNL     1      45.661   6.222  11.132  0.00  0.00    +0.000 A 
ATOM      5  C   UNL     1      46.380   6.066  12.312  0.00  0.00    +0.000 A 
ATOM      6  N   UNL     1      47.239   7.022  12.808  0.00  0.00    +0.000 N 
ATOM      7  N   UNL     1      46.335   4.916  13.014  0.00  0.00    +0.000 NA
ATOM      8  C   UNL     1      45.553   3.907  12.542  0.00  0.00    +0.000 A 
ATOM      9  H   UNL     1      47.570   6.716  13.718  0.00  0.00    +0.000 HD
BRANCH   2  11
ATOM     10  N   UNL     1      44.458   2.116   9.865  0.00  0.00    +0.000 N 
ATOM     11  C   UNL     1      44.001   2.836  10.939  0.00  0.00    +0.000 C 
ATOM     12  O   UNL     1      42.979   2.517  11.523  0.00  0.00    +0.000 OA
ATOM     13  H   UNL     1      43.947   1.277   9.636  0.00  0.00    +0.000 HD
ATOM     14  H   UNL     1      45.403   2.193   9.524  0.00  0.00    +0.000 HD
ENDBRANCH   2  11
ENDBRANCH   1   6
BRANCH   1  15
ATOM     15  C   UNL     1      48.181   9.193  12.107  0.00  0.00    +0.000 A 
ATOM     16  C   UNL     1      48.041  10.510  11.669  0.00  0.00    +0.000 A 
ATOM     17  C   UNL     1      49.099  11.143  11.023  0.00  0.00    +0.000 A 
ATOM     18  C   UNL     1      50.313  10.474  10.805  0.00  0.00    +0.000 A 
ATOM     19 CL   UNL     1      51.456  11.336   9.826  0.00  0.00    +0.000 Cl
ATOM     20  C   UNL     1      50.527   9.164  11.292  0.00  0.00    +0.000 A 
ATOM     21  C   UNL     1      49.426   8.555  11.946  0.00  0.00    +0.000 A 
BRANCH  20  22
ATOM     22  C   UNL     1      51.797   8.394  11.142  0.00  0.00    +0.000 A 
ATOM     23  C   UNL     1      52.875   8.508  12.028  0.00  0.00    +0.000 A 
ATOM     24  N   UNL     1      54.054   7.837  11.932  0.00  0.00    +0.000 NA
ATOM     25  C   UNL     1      54.171   6.961  10.913  0.00  0.00    +0.000 A 
ATOM     26  C   UNL     1      53.163   6.726   9.998  0.00  0.00    +0.000 A 
ATOM     27 CL   UNL     1      53.353   5.550   8.761  0.00  0.00    +0.000 Cl
ATOM     28  C   UNL     1      51.978   7.456  10.107  0.00  0.00    +0.000 A 
ENDBRANCH  20  22
ENDBRANCH   1  15
TORSDOF 4
ENDMDL
