MODEL 1
REMARK VINA RESULT:    -8.491      0.000      0.000
REMARK INTER + INTRA:         -13.371
REMARK INTER:                 -11.965
REMARK INTRA:                  -1.406
REMARK UNBOUND:                -1.406
REMARK  Name = 
REMARK  8 active torsions:
REMARK  status: ('A' for Active; 'I' for Inactive)
REMARK    1  A    between atoms: C_1  and  C_2
REMARK    2  A    between atoms: C_2  and  C_3
REMARK    3  A    between atoms: C_7  and  C_8
REMARK    4  A    between atoms: C_8  and  C_9
REMARK    5  A    between atoms: C_9  and  N_10
REMARK    6  A    between atoms: N_10  and  C_11
REMARK    7  A    between atoms: C_14  and  C_15
REMARK    8  A    between atoms: C_23  and  C_24
REMARK                            x       y       z     vdW  Elec       q    Type
REMARK                         _______ _______ _______ _____ _____    ______ ____
ROOT
ATOM      1  C   UNL     1      46.848   6.579  13.004  0.00  0.00    +0.000 A 
ATOM      2  C   UNL     1      47.465   5.448  13.561  0.00  0.00    +0.000 A 
ATOM      3  C   UNL     1      46.768   4.243  13.695  0.00  0.00    +0.000 A 
ATOM      4  C   UNL     1      45.434   4.144  13.293  0.00  0.00    +0.000 A 
ATOM      5  C   UNL     1      44.782   5.248  12.739  0.00  0.00    +0.000 A 
ATOM      6  C   UNL     1      45.516   6.439  12.583  0.00  0.00    +0.000 A 
ENDROOT
BRANCH   1   8
ATOM      7  C   UNL     1      46.584   9.077  12.767  0.00  0.00    +0.000 C 
ATOM      8  C   UNL     1      47.588   7.921  12.892  0.00  0.00    +0.000 C 
ATOM      9  C   UNL     1      48.550   8.123  14.051  0.00  0.00    +0.000 C 
ATOM     10  C   UNL     1      49.813   8.236  13.609  0.00  0.00    +0.000 C 
ATOM     11  C   UNL     1      49.834   8.154  12.163  0.00  0.00    +0.000 C 
ATOM     12  C   UNL     1      48.568   8.009  11.726  0.00  0.00    +0.000 C 
BRANCH  11  13
ATOM     13  C   UNL     1      51.082   8.219  11.346  0.00  0.00    +0.000 C 
ATOM     14  F   UNL     1      51.203   7.179  10.484  0.00  0.00    +0.000 F 
ATOM     15  F   UNL     1      51.126   9.356  10.602  0.00  0.00    +0.000 F 
ATOM     16  F   UNL     1      52.195   8.220  12.125  0.00  0.00    +0.000 F 
ENDBRANCH  11  13
ENDBRANCH   1   8
BRANCH   5  17
ATOM     17  C   UNL     1      43.311   5.145  12.354  0.00  0.00    +0.000 C 
BRANCH  17  18
ATOM     18  C   UNL     1      43.081   4.368  11.051  0.00  0.00    +0.000 C 
BRANCH  18  19
ATOM     19  N   UNL     1      43.780   4.921   9.890  0.00  0.00    +0.000 N 
ATOM     20  H   UNL     1      44.307   5.762  10.122  0.00  0.00    +0.000 HD
BRANCH  19  21
ATOM     21  C   UNL     1      44.587   3.988   9.198  0.00  0.00    +0.000 A 
ATOM     22  C   UNL     1      45.570   4.361   8.270  0.00  0.00    +0.000 A 
ATOM     23  C   UNL     1      46.385   3.407   7.664  0.00  0.00    +0.000 A 
ATOM     24  C   UNL     1      46.223   2.083   8.029  0.00  0.00    +0.000 A 
ATOM     25  N   UNL     1      45.314   1.659   8.950  0.00  0.00    +0.000 NA
ATOM     26  C   UNL     1      44.542   2.625   9.515  0.00  0.00    +0.000 A 
BRANCH  24  27
ATOM     27  C   UNL     1      47.104   1.041   7.411  0.00  0.00    +0.000 C 
ATOM     28  N   UNL     1      46.765  -0.254   7.695  0.00  0.00    +0.000 N 
ATOM     29  O   UNL     1      48.066   1.315   6.706  0.00  0.00    +0.000 OA
ATOM     30  H   UNL     1      45.977  -0.437   8.309  0.00  0.00    +0.000 HD
ATOM     31  H   UNL     1      47.336  -1.006   7.346  0.00  0.00    +0.000 HD
ENDBRANCH  24  27
ENDBRANCH  19  21
ENDBRANCH  18  19
ENDBRANCH  17  18
ENDBRANCH   5  17
TORSDOF 7
ENDMDL
MODEL 2
REMARK VINA RESULT:    -8.079      1.194      1.378
REMARK INTER + INTRA:         -12.791
REMARK INTER:                 -11.410
REMARK INTRA:                  -1.381
REMARK UNBOUND:                -1.406
REMARK  Name = 
REMARK  8 active torsions:
REMARK  status: ('A' for Active; 'I' for Inactive)
REMARK    1  A    between atoms: C_1  and  C_2
REMARK    2  A    between atoms: C_2  and  C_3
REMARK    3  A    between atoms: C_7  and  C_8
REMARK    4  A    between atoms: C_8  and  C_9
REMARK    5  A    between atoms: C_9  and  N_10
REMARK    6  A    between atoms: N_10  and  C_11
REMARK    7  A    between atoms: C_14  and  C_15
REMARK    8  A    between atoms: C_23  and  C_24
REMARK                            x       y       z     vdW  Elec       q    Type
REMARK                         _______ _______ _______ _____ _____    ______ ____
ROOT
ATOM      1  C   UNL     1      47.176   6.941  12.818  0.00  0.00    +0.000 A 
ATOM      2  C   UNL     1      47.706   5.900  13.595  0.00  0.00    +0.000 A 
ATOM      3  C   UNL     1      46.938   4.774  13.906  0.00  0.00    +0.000 A 
ATOM      4  C   UNL     1      45.618   4.669  13.463  0.00  0.00    +0.000 A 
ATOM      5  C   UNL     1      45.051   5.685  12.692  0.00  0.00    +0.000 A 
ATOM      6  C   UNL     1      45.856   6.792  12.364  0.00  0.00    +0.000 A 
ENDROOT
BRANCH   1   8
ATOM      7  C   UNL     1      47.062   9.372  12.153  0.00  0.00    +0.000 C 
ATOM      8  C   UNL     1      47.995   8.205  12.507  0.00  0.00    +0.000 C 
ATOM      9  C   UNL     1      48.935   8.552  13.649  0.00  0.00    +0.000 C 
ATOM     10  C   UNL     1      50.214   8.522  13.240  0.00  0.00    +0.000 C 
ATOM     11  C   UNL     1      50.268   8.193  11.830  0.00  0.00    +0.000 C 
ATOM     12  C   UNL     1      49.008   8.041  11.379  0.00  0.00    +0.000 C 
BRANCH  11  13
ATOM     13  C   UNL     1      51.540   8.053  11.059  0.00  0.00    +0.000 C 
ATOM     14  F   UNL     1      51.513   7.019  10.181  0.00  0.00    +0.000 F 
ATOM     15  F   UNL     1      51.807   9.175  10.340  0.00  0.00    +0.000 F 
ATOM     16  F   UNL     1      52.606   7.851  11.876  0.00  0.00    +0.000 F 
ENDBRANCH  11  13
ENDBRANCH   1   8
BRANCH   5  17
ATOM     17  C   UNL     1      43.593   5.587  12.259  0.00  0.00    +0.000 C 
BRANCH  17  18
ATOM     18  C   UNL     1      43.425   5.144  10.800  0.00  0.00    +0.000 C 
BRANCH  18  19
ATOM     19  N   UNL     1      43.591   3.705  10.585  0.00  0.00    +0.000 N 
ATOM     20  H   UNL     1      42.710   3.245  10.363  0.00  0.00    +0.000 HD
BRANCH  19  21
ATOM     21  C   UNL     1      44.594   3.368   9.646  0.00  0.00    +0.000 A 
ATOM     22  C   UNL     1      44.968   2.047   9.362  0.00  0.00    +0.000 A 
ATOM     23  C   UNL     1      45.915   1.764   8.380  0.00  0.00    +0.000 A 
ATOM     24  C   UNL     1      46.450   2.820   7.665  0.00  0.00    +0.000 A 
ATOM     25  N   UNL     1      46.102   4.122   7.865  0.00  0.00    +0.000 NA
ATOM     26  C   UNL     1      45.175   4.349   8.833  0.00  0.00    +0.000 A 
BRANCH  24  27
ATOM     27  C   UNL     1      47.450   2.541   6.586  0.00  0.00    +0.000 C 
ATOM     28  N   UNL     1      47.267   3.237   5.423  0.00  0.00    +0.000 N 
ATOM     29  O   UNL     1      48.368   1.742   6.720  0.00  0.00    +0.000 OA
ATOM     30  H   UNL     1      46.475   3.869   5.343  0.00  0.00    +0.000 HD
ATOM     31  H   UNL     1      47.878   3.071   4.640  0.00  0.00    +0.000 HD
ENDBRANCH  24  27
ENDBRANCH  19  21
ENDBRANCH  18  19
ENDBRANCH  17  18
ENDBRANCH   5  17
TORSDOF 7
ENDMDL
MODEL 3
REMARK VINA RESULT:    -8.057      3.602      4.599
REMARK INTER + INTRA:         -12.760
REMARK INTER:                 -11.617
REMARK INTRA:                  -1.143
REMARK UNBOUND:                -1.406
REMARK  Name = 
REMARK  8 active torsions:
REMARK  status: ('A' for Active; 'I' for Inactive)
REMARK    1  A    between atoms: C_1  and  C_2
REMARK    2  A    between atoms: C_2  and  C_3
REMARK    3  A    between atoms: C_7  and  C_8
REMARK    4  A    between atoms: C_8  and  C_9
REMARK    5  A    between atoms: C_9  and  N_10
REMARK    6  A    between atoms: N_10  and  C_11
REMARK    7  A    between atoms: C_14  and  C_15
REMARK    8  A    between atoms: C_23  and  C_24
REMARK                            x       y       z     vdW  Elec       q    Type
REMARK                         _______ _______ _______ _____ _____    ______ ____
ROOT
ATOM      1  C   UNL     1      47.690   5.005  15.602  0.00  0.00    +0.000 A 
ATOM      2  C   UNL     1      48.217   6.188  15.061  0.00  0.00    +0.000 A 
ATOM      3  C   UNL     1      47.856   6.615  13.780  0.00  0.00    +0.000 A 
ATOM      4  C   UNL     1      46.973   5.863  13.002  0.00  0.00    +0.000 A 
ATOM      5  C   UNL     1      46.430   4.677  13.500  0.00  0.00    +0.000 A 
ATOM      6  C   UNL     1      46.783   4.287  14.806  0.00  0.00    +0.000 A 
ENDROOT
BRANCH   1   8
ATOM      7  C   UNL     1      47.164   5.043  18.069  0.00  0.00    +0.000 C 
ATOM      8  C   UNL     1      48.114   4.502  16.991  0.00  0.00    +0.000 C 
ATOM      9  C   UNL     1      48.213   2.986  17.026  0.00  0.00    +0.000 C 
ATOM     10  C   UNL     1      49.464   2.596  17.320  0.00  0.00    +0.000 C 
ATOM     11  C   UNL     1      50.301   3.759  17.534  0.00  0.00    +0.000 C 
ATOM     12  C   UNL     1      49.543   4.862  17.386  0.00  0.00    +0.000 C 
BRANCH  11  13
ATOM     13  C   UNL     1      51.757   3.685  17.856  0.00  0.00    +0.000 C 
ATOM     14  F   UNL     1      52.316   2.501  17.502  0.00  0.00    +0.000 F 
ATOM     15  F   UNL     1      52.454   4.659  17.214  0.00  0.00    +0.000 F 
ATOM     16  F   UNL     1      51.989   3.851  19.184  0.00  0.00    +0.000 F 
ENDBRANCH  11  13
ENDBRANCH   1   8
BRANCH   5  17
ATOM     17  C   UNL     1      45.511   3.836  12.624  0.00  0.00    +0.000 C 
BRANCH  17  18
ATOM     18  C   UNL     1      44.643   4.676  11.678  0.00  0.00    +0.000 C 
BRANCH  18  19
ATOM     19  N   UNL     1      43.960   3.900  10.641  0.00  0.00    +0.000 N 
ATOM     20  H   UNL     1      43.102   4.350  10.326  0.00  0.00    +0.000 HD
BRANCH  19  21
ATOM     21  C   UNL     1      44.782   3.543   9.545  0.00  0.00    +0.000 A 
ATOM     22  C   UNL     1      45.417   4.484   8.722  0.00  0.00    +0.000 A 
ATOM     23  C   UNL     1      46.270   4.082   7.697  0.00  0.00    +0.000 A 
ATOM     24  C   UNL     1      46.503   2.728   7.535  0.00  0.00    +0.000 A 
ATOM     25  N   UNL     1      45.948   1.766   8.322  0.00  0.00    +0.000 NA
ATOM     26  C   UNL     1      45.123   2.206   9.309  0.00  0.00    +0.000 A 
BRANCH  24  27
ATOM     27  C   UNL     1      47.436   2.271   6.456  0.00  0.00    +0.000 C 
ATOM     28  N   UNL     1      47.458   3.051   5.332  0.00  0.00    +0.000 N 
ATOM     29  O   UNL     1      48.129   1.267   6.557  0.00  0.00    +0.000 OA
ATOM     30  H   UNL     1      46.845   3.859   5.278  0.00  0.00    +0.000 HD
ATOM     31  H   UNL     1      48.032   2.782   4.550  0.00  0.00    +0.000 HD
ENDBRANCH  24  27
ENDBRANCH  19  21
ENDBRANCH  18  19
ENDBRANCH  17  18
ENDBRANCH   5  17
TORSDOF 7
ENDMDL
MODEL 4
REMARK VINA RESULT:    -7.575      2.602      3.572
REMARK INTER + INTRA:         -12.081
REMARK INTER:                 -10.943
REMARK INTRA:                  -1.138
REMARK UNBOUND:                -1.406
REMARK  Name = 
REMARK  8 active torsions:
REMARK  status: ('A' for Active; 'I' for Inactive)
REMARK    1  A    between atoms: C_1  and  C_2
REMARK    2  A    between atoms: C_2  and  C_3
REMARK    3  A    between atoms: C_7  and  C_8
REMARK    4  A    between atoms: C_8  and  C_9
REMARK    5  A    between atoms: C_9  and  N_10
REMARK    6  A    between atoms: N_10  and  C_11
REMARK    7  A    between atoms: C_14  and  C_15
REMARK    8  A    between atoms: C_23  and  C_24
REMARK                            x       y       z     vdW  Elec       q    Type
REMARK                         _______ _______ _______ _____ _____    ______ ____
ROOT
ATOM      1  C   UNL     1      46.978   8.143  12.468  0.00  0.00    +0.000 A 
ATOM      2  C   UNL     1      46.606   9.483  12.279  0.00  0.00    +0.000 A 
ATOM      3  C   UNL     1      45.348   9.812  11.762  0.00  0.00    +0.000 A 
ATOM      4  C   UNL     1      44.441   8.812  11.407  0.00  0.00    +0.000 A 
ATOM      5  C   UNL     1      44.775   7.466  11.575  0.00  0.00    +0.000 A 
ATOM      6  C   UNL     1      46.033   7.162  12.129  0.00  0.00    +0.000 A 
ENDROOT
BRANCH   1   8
ATOM      7  C   UNL     1      49.335   7.520  11.821  0.00  0.00    +0.000 C 
ATOM      8  C   UNL     1      48.373   7.768  12.992  0.00  0.00    +0.000 C 
ATOM      9  C   UNL     1      48.905   8.814  13.956  0.00  0.00    +0.000 C 
ATOM     10  C   UNL     1      49.121   8.280  15.170  0.00  0.00    +0.000 C 
ATOM     11  C   UNL     1      48.797   6.868  15.146  0.00  0.00    +0.000 C 
ATOM     12  C   UNL     1      48.400   6.542  13.901  0.00  0.00    +0.000 C 
BRANCH  11  13
ATOM     13  C   UNL     1      48.899   5.974  16.338  0.00  0.00    +0.000 C 
ATOM     14  F   UNL     1      50.182   5.703  16.685  0.00  0.00    +0.000 F 
ATOM     15  F   UNL     1      48.305   6.531  17.426  0.00  0.00    +0.000 F 
ATOM     16  F   UNL     1      48.286   4.781  16.127  0.00  0.00    +0.000 F 
ENDBRANCH  11  13
ENDBRANCH   1   8
BRANCH   5  17
ATOM     17  C   UNL     1      43.800   6.382  11.134  0.00  0.00    +0.000 C 
BRANCH  17  18
ATOM     18  C   UNL     1      44.311   4.962  11.411  0.00  0.00    +0.000 C 
BRANCH  18  19
ATOM     19  N   UNL     1      43.807   3.950  10.481  0.00  0.00    +0.000 N 
ATOM     20  H   UNL     1      42.943   4.241  10.025  0.00  0.00    +0.000 HD
BRANCH  19  21
ATOM     21  C   UNL     1      44.759   3.505   9.533  0.00  0.00    +0.000 A 
ATOM     22  C   UNL     1      45.031   2.150   9.296  0.00  0.00    +0.000 A 
ATOM     23  C   UNL     1      45.930   1.761   8.304  0.00  0.00    +0.000 A 
ATOM     24  C   UNL     1      46.519   2.747   7.533  0.00  0.00    +0.000 A 
ATOM     25  N   UNL     1      46.269   4.077   7.688  0.00  0.00    +0.000 NA
ATOM     26  C   UNL     1      45.387   4.408   8.667  0.00  0.00    +0.000 A 
BRANCH  24  27
ATOM     27  C   UNL     1      47.469   2.354   6.444  0.00  0.00    +0.000 C 
ATOM     28  N   UNL     1      47.264   2.970   5.240  0.00  0.00    +0.000 N 
ATOM     29  O   UNL     1      48.364   1.536   6.605  0.00  0.00    +0.000 OA
ATOM     30  H   UNL     1      46.491   3.621   5.141  0.00  0.00    +0.000 HD
ATOM     31  H   UNL     1      47.840   2.725   4.450  0.00  0.00    +0.000 HD
ENDBRANCH  24  27
ENDBRANCH  19  21
ENDBRANCH  18  19
ENDBRANCH  17  18
ENDBRANCH   5  17
TORSDOF 7
ENDMDL
MODEL 5
REMARK VINA RESULT:    -7.519      3.484      4.427
REMARK INTER + INTRA:         -12.002
REMARK INTER:                 -10.705
REMARK INTRA:                  -1.298
REMARK UNBOUND:                -1.406
REMARK  Name = 
REMARK  8 active torsions:
REMARK  status: ('A' for Active; 'I' for Inactive)
REMARK    1  A    between atoms: C_1  and  C_2
REMARK    2  A    between atoms: C_2  and  C_3
REMARK    3  A    between atoms: C_7  and  C_8
REMARK    4  A    between atoms: C_8  and  C_9
REMARK    5  A    between atoms: C_9  and  N_10
REMARK    6  A    between atoms: N_10  and  C_11
REMARK    7  A    between atoms: C_14  and  C_15
REMARK    8  A    between atoms: C_23  and  C_24
REMARK                            x       y       z     vdW  Elec       q    Type
REMARK                         _______ _______ _______ _____ _____    ______ ____
ROOT
ATOM      1  C   UNL     1      48.576   7.049  14.084  0.00  0.00    +0.000 A 
ATOM      2  C   UNL     1      49.088   7.841  13.044  0.00  0.00    +0.000 A 
ATOM      3  C   UNL     1      48.499   7.828  11.776  0.00  0.00    +0.000 A 
ATOM      4  C   UNL     1      47.397   7.011  11.511  0.00  0.00    +0.000 A 
ATOM      5  C   UNL     1      46.862   6.204  12.517  0.00  0.00    +0.000 A 
ATOM      6  C   UNL     1      47.451   6.261  13.794  0.00  0.00    +0.000 A 
ENDROOT
BRANCH   1   8
ATOM      7  C   UNL     1      50.769   7.108  15.330  0.00  0.00    +0.000 C 
ATOM      8  C   UNL     1      49.242   7.020  15.469  0.00  0.00    +0.000 C 
ATOM      9  C   UNL     1      48.688   8.107  16.375  0.00  0.00    +0.000 C 
ATOM     10  C   UNL     1      48.109   7.573  17.462  0.00  0.00    +0.000 C 
ATOM     11  C   UNL     1      48.230   6.130  17.422  0.00  0.00    +0.000 C 
ATOM     12  C   UNL     1      48.907   5.790  16.307  0.00  0.00    +0.000 C 
BRANCH  11  13
ATOM     13  C   UNL     1      47.673   5.220  18.467  0.00  0.00    +0.000 C 
ATOM     14  F   UNL     1      47.123   4.094  17.947  0.00  0.00    +0.000 F 
ATOM     15  F   UNL     1      48.637   4.823  19.339  0.00  0.00    +0.000 F 
ATOM     16  F   UNL     1      46.708   5.829  19.203  0.00  0.00    +0.000 F 
ENDBRANCH  11  13
ENDBRANCH   1   8
BRANCH   5  17
ATOM     17  C   UNL     1      45.694   5.276  12.204  0.00  0.00    +0.000 C 
BRANCH  17  18
ATOM     18  C   UNL     1      44.774   5.814  11.100  0.00  0.00    +0.000 C 
BRANCH  18  19
ATOM     19  N   UNL     1      44.058   4.776  10.357  0.00  0.00    +0.000 N 
ATOM     20  H   UNL     1      43.216   5.135   9.909  0.00  0.00    +0.000 HD
BRANCH  19  21
ATOM     21  C   UNL     1      44.860   4.061   9.436  0.00  0.00    +0.000 A 
ATOM     22  C   UNL     1      45.724   4.684   8.524  0.00  0.00    +0.000 A 
ATOM     23  C   UNL     1      46.543   3.933   7.683  0.00  0.00    +0.000 A 
ATOM     24  C   UNL     1      46.509   2.555   7.798  0.00  0.00    +0.000 A 
ATOM     25  N   UNL     1      45.721   1.890   8.688  0.00  0.00    +0.000 NA
ATOM     26  C   UNL     1      44.940   2.664   9.487  0.00  0.00    +0.000 A 
BRANCH  24  27
ATOM     27  C   UNL     1      47.399   1.726   6.924  0.00  0.00    +0.000 C 
ATOM     28  N   UNL     1      48.438   2.398   6.342  0.00  0.00    +0.000 N 
ATOM     29  O   UNL     1      47.215   0.532   6.730  0.00  0.00    +0.000 OA
ATOM     30  H   UNL     1      48.537   3.396   6.506  0.00  0.00    +0.000 HD
ATOM     31  H   UNL     1      49.053   1.914   5.709  0.00  0.00    +0.000 HD
ENDBRANCH  24  27
ENDBRANCH  19  21
ENDBRANCH  18  19
ENDBRANCH  17  18
ENDBRANCH   5  17
TORSDOF 7
ENDMDL
MODEL 6
REMARK VINA RESULT:    -7.445      3.041      3.853
REMARK INTER + INTRA:         -11.898
REMARK INTER:                 -10.718
REMARK INTRA:                  -1.181
REMARK UNBOUND:                -1.406
REMARK  Name = 
REMARK  8 active torsions:
REMARK  status: ('A' for Active; 'I' for Inactive)
REMARK    1  A    between atoms: C_1  and  C_2
REMARK    2  A    between atoms: C_2  and  C_3
REMARK    3  A    between atoms: C_7  and  C_8
REMARK    4  A    between atoms: C_8  and  C_9
REMARK    5  A    between atoms: C_9  and  N_10
REMARK    6  A    between atoms: N_10  and  C_11
REMARK    7  A    between atoms: C_14  and  C_15
REMARK    8  A    between atoms: C_23  and  C_24
REMARK                            x       y       z     vdW  Elec       q    Type
REMARK                         _______ _______ _______ _____ _____    ______ ____
ROOT
ATOM      1  C   UNL     1      47.896   6.403  14.265  0.00  0.00    +0.000 A 
ATOM      2  C   UNL     1      47.589   5.186  14.893  0.00  0.00    +0.000 A 
ATOM      3  C   UNL     1      46.693   4.285  14.310  0.00  0.00    +0.000 A 
ATOM      4  C   UNL     1      46.070   4.584  13.096  0.00  0.00    +0.000 A 
ATOM      5  C   UNL     1      46.345   5.787  12.442  0.00  0.00    +0.000 A 
ATOM      6  C   UNL     1      47.276   6.662  13.032  0.00  0.00    +0.000 A 
ENDROOT
BRANCH   1   8
ATOM      7  C   UNL     1      50.155   7.517  14.123  0.00  0.00    +0.000 C 
ATOM      8  C   UNL     1      48.844   7.423  14.917  0.00  0.00    +0.000 C 
ATOM      9  C   UNL     1      48.176   8.777  15.080  0.00  0.00    +0.000 C 
ATOM     10  C   UNL     1      48.110   9.125  16.375  0.00  0.00    +0.000 C 
ATOM     11  C   UNL     1      48.727   8.096  17.189  0.00  0.00    +0.000 C 
ATOM     12  C   UNL     1      49.186   7.127  16.374  0.00  0.00    +0.000 C 
BRANCH  11  13
ATOM     13  C   UNL     1      48.805   8.152  18.679  0.00  0.00    +0.000 C 
ATOM     14  F   UNL     1      49.823   7.410  19.182  0.00  0.00    +0.000 F 
ATOM     15  F   UNL     1      48.992   9.426  19.115  0.00  0.00    +0.000 F 
ATOM     16  F   UNL     1      47.662   7.704  19.261  0.00  0.00    +0.000 F 
ENDBRANCH  11  13
ENDBRANCH   1   8
BRANCH   5  17
ATOM     17  C   UNL     1      45.620   6.129  11.146  0.00  0.00    +0.000 C 
BRANCH  17  18
ATOM     18  C   UNL     1      44.220   5.508  11.055  0.00  0.00    +0.000 C 
BRANCH  18  19
ATOM     19  N   UNL     1      43.851   5.051   9.714  0.00  0.00    +0.000 N 
ATOM     20  H   UNL     1      43.764   5.823   9.055  0.00  0.00    +0.000 HD
BRANCH  19  21
ATOM     21  C   UNL     1      44.682   4.030   9.198  0.00  0.00    +0.000 A 
ATOM     22  C   UNL     1      44.538   2.677   9.538  0.00  0.00    +0.000 A 
ATOM     23  C   UNL     1      45.339   1.699   8.950  0.00  0.00    +0.000 A 
ATOM     24  C   UNL     1      46.256   2.095   7.993  0.00  0.00    +0.000 A 
ATOM     25  N   UNL     1      46.419   3.386   7.591  0.00  0.00    +0.000 NA
ATOM     26  C   UNL     1      45.616   4.303   8.192  0.00  0.00    +0.000 A 
BRANCH  24  27
ATOM     27  C   UNL     1      47.111   1.061   7.328  0.00  0.00    +0.000 C 
ATOM     28  N   UNL     1      46.801  -0.237   7.630  0.00  0.00    +0.000 N 
ATOM     29  O   UNL     1      48.031   1.343   6.572  0.00  0.00    +0.000 OA
ATOM     30  H   UNL     1      46.048  -0.427   8.286  0.00  0.00    +0.000 HD
ATOM     31  H   UNL     1      47.359  -0.984   7.251  0.00  0.00    +0.000 HD
ENDBRANCH  24  27
ENDBRANCH  19  21
ENDBRANCH  18  19
ENDBRANCH  17  18
ENDBRANCH   5  17
TORSDOF 7
ENDMDL
MODEL 7
REMARK VINA RESULT:    -7.363      5.730      8.185
REMARK INTER + INTRA:         -11.782
REMARK INTER:                 -10.671
REMARK INTRA:                  -1.111
REMARK UNBOUND:                -1.406
REMARK  Name = 
REMARK  8 active torsions:
REMARK  status: ('A' for Active; 'I' for Inactive)
REMARK    1  A    between atoms: C_1  and  C_2
REMARK    2  A    between atoms: C_2  and  C_3
REMARK    3  A    between atoms: C_7  and  C_8
REMARK    4  A    between atoms: C_8  and  C_9
REMARK    5  A    between atoms: C_9  and  N_10
REMARK    6  A    between atoms: N_10  and  C_11
REMARK    7  A    between atoms: C_14  and  C_15
REMARK    8  A    between atoms: C_23  and  C_24
REMARK                            x       y       z     vdW  Elec       q    Type
REMARK                         _______ _______ _______ _____ _____    ______ ____
ROOT
ATOM      1  C   UNL     1      45.817   5.383  12.355  0.00  0.00    +0.000 A 
ATOM      2  C   UNL     1      46.200   6.530  11.643  0.00  0.00    +0.000 A 
ATOM      3  C   UNL     1      47.228   7.355  12.110  0.00  0.00    +0.000 A 
ATOM      4  C   UNL     1      47.886   7.063  13.308  0.00  0.00    +0.000 A 
ATOM      5  C   UNL     1      47.531   5.933  14.049  0.00  0.00    +0.000 A 
ATOM      6  C   UNL     1      46.517   5.101  13.539  0.00  0.00    +0.000 A 
ENDROOT
BRANCH   1   8
ATOM      7  C   UNL     1      43.756   4.108  13.057  0.00  0.00    +0.000 C 
ATOM      8  C   UNL     1      44.658   4.494  11.876  0.00  0.00    +0.000 C 
ATOM      9  C   UNL     1      43.877   5.157  10.754  0.00  0.00    +0.000 C 
ATOM     10  C   UNL     1      43.927   4.417   9.635  0.00  0.00    +0.000 C 
ATOM     11  C   UNL     1      44.692   3.211   9.880  0.00  0.00    +0.000 C 
ATOM     12  C   UNL     1      45.092   3.215  11.166  0.00  0.00    +0.000 C 
BRANCH  11  13
ATOM     13  C   UNL     1      44.965   2.176   8.840  0.00  0.00    +0.000 C 
ATOM     14  F   UNL     1      44.208   1.060   8.995  0.00  0.00    +0.000 F 
ATOM     15  F   UNL     1      44.714   2.652   7.592  0.00  0.00    +0.000 F 
ATOM     16  F   UNL     1      46.264   1.778   8.852  0.00  0.00    +0.000 F 
ENDBRANCH  11  13
ENDBRANCH   1   8
BRANCH   5  17
ATOM     17  C   UNL     1      48.217   5.653  15.380  0.00  0.00    +0.000 C 
BRANCH  17  18
ATOM     18  C   UNL     1      47.530   4.547  16.192  0.00  0.00    +0.000 C 
BRANCH  18  19
ATOM     19  N   UNL     1      48.113   4.323  17.516  0.00  0.00    +0.000 N 
ATOM     20  H   UNL     1      47.449   3.902  18.163  0.00  0.00    +0.000 HD
BRANCH  19  21
ATOM     21  C   UNL     1      49.334   3.609  17.501  0.00  0.00    +0.000 A 
ATOM     22  C   UNL     1      50.512   4.088  18.093  0.00  0.00    +0.000 A 
ATOM     23  C   UNL     1      51.672   3.317  18.110  0.00  0.00    +0.000 A 
ATOM     24  C   UNL     1      51.622   2.049  17.559  0.00  0.00    +0.000 A 
ATOM     25  N   UNL     1      50.502   1.511  17.002  0.00  0.00    +0.000 NA
ATOM     26  C   UNL     1      49.395   2.300  17.009  0.00  0.00    +0.000 A 
BRANCH  24  27
ATOM     27  C   UNL     1      52.849   1.190  17.587  0.00  0.00    +0.000 C 
ATOM     28  N   UNL     1      52.688  -0.041  18.162  0.00  0.00    +0.000 N 
ATOM     29  O   UNL     1      53.927   1.555  17.138  0.00  0.00    +0.000 OA
ATOM     30  H   UNL     1      51.783  -0.293  18.549  0.00  0.00    +0.000 HD
ATOM     31  H   UNL     1      53.479  -0.656  18.252  0.00  0.00    +0.000 HD
ENDBRANCH  24  27
ENDBRANCH  19  21
ENDBRANCH  18  19
ENDBRANCH  17  18
ENDBRANCH   5  17
TORSDOF 7
ENDMDL
MODEL 8
REMARK VINA RESULT:    -7.334      1.502      2.450
REMARK INTER + INTRA:         -11.741
REMARK INTER:                 -10.667
REMARK INTRA:                  -1.074
REMARK UNBOUND:                -1.406
REMARK  Name = 
REMARK  8 active torsions:
REMARK  status: ('A' for Active; 'I' for Inactive)
REMARK    1  A    between atoms: C_1  and  C_2
REMARK    2  A    between atoms: C_2  and  C_3
REMARK    3  A    between atoms: C_7  and  C_8
REMARK    4  A    between atoms: C_8  and  C_9
REMARK    5  A    between atoms: C_9  and  N_10
REMARK    6  A    between atoms: N_10  and  C_11
REMARK    7  A    between atoms: C_14  and  C_15
REMARK    8  A    between atoms: C_23  and  C_24
REMARK                            x       y       z     vdW  Elec       q    Type
REMARK                         _______ _______ _______ _____ _____    ______ ____
ROOT
ATOM      1  C   UNL     1      46.397   7.195  12.829  0.00  0.00    +0.000 A 
ATOM      2  C   UNL     1      46.129   8.357  12.088  0.00  0.00    +0.000 A 
ATOM      3  C   UNL     1      44.892   8.539  11.463  0.00  0.00    +0.000 A 
ATOM      4  C   UNL     1      43.900   7.559  11.548  0.00  0.00    +0.000 A 
ATOM      5  C   UNL     1      44.129   6.386  12.271  0.00  0.00    +0.000 A 
ATOM      6  C   UNL     1      45.370   6.242  12.919  0.00  0.00    +0.000 A 
ENDROOT
BRANCH   1   8
ATOM      7  C   UNL     1      47.731   5.712  14.374  0.00  0.00    +0.000 C 
ATOM      8  C   UNL     1      47.769   6.963  13.483  0.00  0.00    +0.000 C 
ATOM      9  C   UNL     1      48.875   6.889  12.443  0.00  0.00    +0.000 C 
ATOM     10  C   UNL     1      49.777   7.865  12.636  0.00  0.00    +0.000 C 
ATOM     11  C   UNL     1      49.406   8.651  13.795  0.00  0.00    +0.000 C 
ATOM     12  C   UNL     1      48.279   8.132  14.319  0.00  0.00    +0.000 C 
BRANCH  11  13
ATOM     13  C   UNL     1      50.180   9.833  14.279  0.00  0.00    +0.000 C 
ATOM     14  F   UNL     1      49.470  10.617  15.129  0.00  0.00    +0.000 F 
ATOM     15  F   UNL     1      51.304   9.449  14.941  0.00  0.00    +0.000 F 
ATOM     16  F   UNL     1      50.584  10.625  13.253  0.00  0.00    +0.000 F 
ENDBRANCH  11  13
ENDBRANCH   1   8
BRANCH   5  17
ATOM     17  C   UNL     1      43.062   5.300  12.312  0.00  0.00    +0.000 C 
BRANCH  17  18
ATOM     18  C   UNL     1      43.209   4.266  11.189  0.00  0.00    +0.000 C 
BRANCH  18  19
ATOM     19  N   UNL     1      43.744   4.809   9.939  0.00  0.00    +0.000 N 
ATOM     20  H   UNL     1      44.214   5.702  10.076  0.00  0.00    +0.000 HD
BRANCH  19  21
ATOM     21  C   UNL     1      44.560   3.908   9.215  0.00  0.00    +0.000 A 
ATOM     22  C   UNL     1      45.566   4.323   8.331  0.00  0.00    +0.000 A 
ATOM     23  C   UNL     1      46.389   3.398   7.693  0.00  0.00    +0.000 A 
ATOM     24  C   UNL     1      46.212   2.057   7.983  0.00  0.00    +0.000 A 
ATOM     25  N   UNL     1      45.279   1.590   8.860  0.00  0.00    +0.000 NA
ATOM     26  C   UNL     1      44.500   2.531   9.458  0.00  0.00    +0.000 A 
BRANCH  24  27
ATOM     27  C   UNL     1      47.100   1.043   7.330  0.00  0.00    +0.000 C 
ATOM     28  N   UNL     1      46.868  -0.256   7.691  0.00  0.00    +0.000 N 
ATOM     29  O   UNL     1      47.979   1.344   6.534  0.00  0.00    +0.000 OA
ATOM     30  H   UNL     1      46.148  -0.459   8.377  0.00  0.00    +0.000 HD
ATOM     31  H   UNL     1      47.453  -0.988   7.322  0.00  0.00    +0.000 HD
ENDBRANCH  24  27
ENDBRANCH  19  21
ENDBRANCH  18  19
ENDBRANCH  17  18
ENDBRANCH   5  17
TORSDOF 7
ENDMDL
MODEL 9
REMARK VINA RESULT:    -7.223      1.453      2.232
REMARK INTER + INTRA:         -11.585
REMARK INTER:                 -10.664
REMARK INTRA:                  -0.920
REMARK UNBOUND:                -1.406
REMARK  Name = 
REMARK  8 active torsions:
REMARK  status: ('A' for Active; 'I' for Inactive)
REMARK    1  A    between atoms: C_1  and  C_2
REMARK    2  A    between atoms: C_2  and  C_3
REMARK    3  A    between atoms: C_7  and  C_8
REMARK    4  A    between atoms: C_8  and  C_9
REMARK    5  A    between atoms: C_9  and  N_10
REMARK    6  A    between atoms: N_10  and  C_11
REMARK    7  A    between atoms: C_14  and  C_15
REMARK    8  A    between atoms: C_23  and  C_24
REMARK                            x       y       z     vdW  Elec       q    Type
REMARK                         _______ _______ _______ _____ _____    ______ ____
ROOT
ATOM      1  C   UNL     1      46.963   7.558  12.773  0.00  0.00    +0.000 A 
ATOM      2  C   UNL     1      45.887   8.343  12.331  0.00  0.00    +0.000 A 
ATOM      3  C   UNL     1      44.712   7.750  11.859  0.00  0.00    +0.000 A 
ATOM      4  C   UNL     1      44.591   6.359  11.799  0.00  0.00    +0.000 A 
ATOM      5  C   UNL     1      45.641   5.543  12.224  0.00  0.00    +0.000 A 
ATOM      6  C   UNL     1      46.799   6.164  12.728  0.00  0.00    +0.000 A 
ENDROOT
BRANCH   1   8
ATOM      7  C   UNL     1      48.251   8.393  14.775  0.00  0.00    +0.000 C 
ATOM      8  C   UNL     1      48.276   8.197  13.252  0.00  0.00    +0.000 C 
ATOM      9  C   UNL     1      49.483   7.394  12.799  0.00  0.00    +0.000 C 
ATOM     10  C   UNL     1      50.278   8.131  12.007  0.00  0.00    +0.000 C 
ATOM     11  C   UNL     1      49.729   9.465  11.870  0.00  0.00    +0.000 C 
ATOM     12  C   UNL     1      48.601   9.539  12.602  0.00  0.00    +0.000 C 
BRANCH  11  13
ATOM     13  C   UNL     1      50.351  10.536  11.036  0.00  0.00    +0.000 C 
ATOM     14  F   UNL     1      50.941  11.507  11.779  0.00  0.00    +0.000 F 
ATOM     15  F   UNL     1      51.309  10.030  10.216  0.00  0.00    +0.000 F 
ATOM     16  F   UNL     1      49.439  11.148  10.238  0.00  0.00    +0.000 F 
ENDBRANCH  11  13
ENDBRANCH   1   8
BRANCH   5  17
ATOM     17  C   UNL     1      45.521   4.029  12.105  0.00  0.00    +0.000 C 
BRANCH  17  18
ATOM     18  C   UNL     1      44.098   3.560  11.772  0.00  0.00    +0.000 C 
BRANCH  18  19
ATOM     19  N   UNL     1      43.675   3.853  10.401  0.00  0.00    +0.000 N 
ATOM     20  H   UNL     1      43.400   4.828  10.283  0.00  0.00    +0.000 HD
BRANCH  19  21
ATOM     21  C   UNL     1      44.603   3.460   9.408  0.00  0.00    +0.000 A 
ATOM     22  C   UNL     1      45.296   4.372   8.600  0.00  0.00    +0.000 A 
ATOM     23  C   UNL     1      46.250   3.938   7.681  0.00  0.00    +0.000 A 
ATOM     24  C   UNL     1      46.522   2.583   7.615  0.00  0.00    +0.000 A 
ATOM     25  N   UNL     1      45.913   1.650   8.397  0.00  0.00    +0.000 NA
ATOM     26  C   UNL     1      44.990   2.121   9.277  0.00  0.00    +0.000 A 
BRANCH  24  27
ATOM     27  C   UNL     1      47.562   2.093   6.654  0.00  0.00    +0.000 C 
ATOM     28  N   UNL     1      47.871   2.955   5.638  0.00  0.00    +0.000 N 
ATOM     29  O   UNL     1      48.098   0.998   6.755  0.00  0.00    +0.000 OA
ATOM     30  H   UNL     1      47.382   3.842   5.573  0.00  0.00    +0.000 HD
ATOM     31  H   UNL     1      48.533   2.676   4.932  0.00  0.00    +0.000 HD
ENDBRANCH  24  27
ENDBRANCH  19  21
ENDBRANCH  18  19
ENDBRANCH  17  18
ENDBRANCH   5  17
TORSDOF 7
ENDMDL
