MODEL 1
REMARK VINA RESULT:    -9.145      0.000      0.000
REMARK INTER + INTRA:         -12.924
REMARK INTER:                 -11.818
REMARK INTRA:                  -1.107
REMARK UNBOUND:                -1.107
REMARK  Name = 
REMARK  5 active torsions:
REMARK  status: ('A' for Active; 'I' for Inactive)
REMARK    1  A    between atoms: C_2  and  C_4
REMARK    2  A    between atoms: C_7  and  O_8
REMARK    3  A    between atoms: O_8  and  C_9
REMARK    4  A    between atoms: C_9  and  C_10
REMARK    5  A    between atoms: C_15  and  C_16
REMARK                            x       y       z     vdW  Elec       q    Type
REMARK                         _______ _______ _______ _____ _____    ______ ____
ROOT
ATOM      1  C   UNL     1      44.757   4.866  12.035  0.00  0.00    +0.000 A 
ATOM      2  C   UNL     1      45.369   3.927  12.868  0.00  0.00    +0.000 A 
ATOM      3  C   UNL     1      46.575   4.234  13.484  0.00  0.00    +0.000 A 
ATOM      4  F   UNL     1      47.158   3.325  14.277  0.00  0.00    +0.000 F 
ATOM      5  C   UNL     1      47.198   5.463  13.280  0.00  0.00    +0.000 A 
ATOM      6  C   UNL     1      46.632   6.423  12.426  0.00  0.00    +0.000 A 
ATOM      7  C   UNL     1      45.404   6.098  11.814  0.00  0.00    +0.000 A 
ENDROOT
BRANCH   6   8
ATOM      8  C   UNL     1      47.312   7.711  12.151  0.00  0.00    +0.000 A 
ATOM      9  C   UNL     1      48.670   7.765  11.774  0.00  0.00    +0.000 A 
ATOM     10  C   UNL     1      49.319   8.984  11.543  0.00  0.00    +0.000 A 
ATOM     11  C   UNL     1      48.618  10.180  11.668  0.00  0.00    +0.000 A 
ATOM     12  C   UNL     1      47.280  10.142  12.031  0.00  0.00    +0.000 A 
ATOM     13  F   UNL     1      46.600  11.290  12.155  0.00  0.00    +0.000 F 
ATOM     14  C   UNL     1      46.632   8.935  12.275  0.00  0.00    +0.000 A 
ENDBRANCH   6   8
BRANCH   1  15
ATOM     15  C   UNL     1      43.481   4.514  11.307  0.00  0.00    +0.000 C 
BRANCH  15  16
ATOM     16  O   UNL     1      43.648   4.688   9.899  0.00  0.00    +0.000 OA
BRANCH  16  20
ATOM     17  C   UNL     1      46.332   2.250   7.836  0.00  0.00    +0.000 A 
ATOM     18  C   UNL     1      45.447   1.652   8.739  0.00  0.00    +0.000 A 
ATOM     19  C   UNL     1      44.531   2.434   9.450  0.00  0.00    +0.000 A 
ATOM     20  C   UNL     1      44.496   3.819   9.269  0.00  0.00    +0.000 A 
ATOM     21  C   UNL     1      45.392   4.415   8.376  0.00  0.00    +0.000 A 
ATOM     22  C   UNL     1      46.312   3.637   7.668  0.00  0.00    +0.000 A 
BRANCH  17  24
ATOM     23  N   UNL     1      48.402   2.116   6.560  0.00  0.00    +0.000 N 
ATOM     24  C   UNL     1      47.315   1.452   7.058  0.00  0.00    +0.000 C 
ATOM     25  O   UNL     1      47.185   0.246   6.901  0.00  0.00    +0.000 OA
ATOM     26  H   UNL     1      49.117   1.538   6.136  0.00  0.00    +0.000 HD
ATOM     27  H   UNL     1      48.676   3.029   6.888  0.00  0.00    +0.000 HD
ENDBRANCH  17  24
ENDBRANCH  16  20
ENDBRANCH  15  16
ENDBRANCH   1  15
TORSDOF 5
ENDMDL
MODEL 2
REMARK VINA RESULT:    -8.972      0.694      1.158
REMARK INTER + INTRA:         -12.701
REMARK INTER:                 -11.852
REMARK INTRA:                  -0.849
REMARK UNBOUND:                -1.107
REMARK  Name = 
REMARK  5 active torsions:
REMARK  status: ('A' for Active; 'I' for Inactive)
REMARK    1  A    between atoms: C_2  and  C_4
REMARK    2  A    between atoms: C_7  and  O_8
REMARK    3  A    between atoms: O_8  and  C_9
REMARK    4  A    between atoms: C_9  and  C_10
REMARK    5  A    between atoms: C_15  and  C_16
REMARK                            x       y       z     vdW  Elec       q    Type
REMARK                         _______ _______ _______ _____ _____    ______ ____
ROOT
ATOM      1  C   UNL     1      44.711   4.869  11.752  0.00  0.00    +0.000 A 
ATOM      2  C   UNL     1      45.281   3.913  12.596  0.00  0.00    +0.000 A 
ATOM      3  C   UNL     1      46.443   4.213  13.291  0.00  0.00    +0.000 A 
ATOM      4  F   UNL     1      46.986   3.288  14.094  0.00  0.00    +0.000 F 
ATOM      5  C   UNL     1      47.066   5.452  13.158  0.00  0.00    +0.000 A 
ATOM      6  C   UNL     1      46.544   6.430  12.297  0.00  0.00    +0.000 A 
ATOM      7  C   UNL     1      45.358   6.111  11.603  0.00  0.00    +0.000 A 
ENDROOT
BRANCH   6   8
ATOM      8  C   UNL     1      47.227   7.730  12.097  0.00  0.00    +0.000 A 
ATOM      9  C   UNL     1      48.611   7.807  11.839  0.00  0.00    +0.000 A 
ATOM     10  C   UNL     1      49.261   9.037  11.679  0.00  0.00    +0.000 A 
ATOM     11  C   UNL     1      48.536  10.222  11.760  0.00  0.00    +0.000 A 
ATOM     12  C   UNL     1      47.172  10.162  12.006  0.00  0.00    +0.000 A 
ATOM     13  F   UNL     1      46.467  11.300  12.087  0.00  0.00    +0.000 F 
ATOM     14  C   UNL     1      46.521   8.943  12.179  0.00  0.00    +0.000 A 
ENDBRANCH   6   8
BRANCH   1  15
ATOM     15  C   UNL     1      43.485   4.526  10.939  0.00  0.00    +0.000 C 
BRANCH  15  16
ATOM     16  O   UNL     1      43.626   3.233  10.349  0.00  0.00    +0.000 OA
BRANCH  16  20
ATOM     17  C   UNL     1      46.524   2.586   7.418  0.00  0.00    +0.000 A 
ATOM     18  C   UNL     1      45.999   3.874   7.563  0.00  0.00    +0.000 A 
ATOM     19  C   UNL     1      45.026   4.133   8.534  0.00  0.00    +0.000 A 
ATOM     20  C   UNL     1      44.566   3.107   9.363  0.00  0.00    +0.000 A 
ATOM     21  C   UNL     1      45.083   1.817   9.205  0.00  0.00    +0.000 A 
ATOM     22  C   UNL     1      46.052   1.554   8.232  0.00  0.00    +0.000 A 
BRANCH  17  24
ATOM     23  N   UNL     1      47.657   3.116   5.328  0.00  0.00    +0.000 N 
ATOM     24  C   UNL     1      47.564   2.274   6.403  0.00  0.00    +0.000 C 
ATOM     25  O   UNL     1      48.332   1.332   6.535  0.00  0.00    +0.000 OA
ATOM     26  H   UNL     1      48.443   2.958   4.709  0.00  0.00    +0.000 HD
ATOM     27  H   UNL     1      47.234   4.031   5.319  0.00  0.00    +0.000 HD
ENDBRANCH  17  24
ENDBRANCH  16  20
ENDBRANCH  15  16
ENDBRANCH   1  15
TORSDOF 5
ENDMDL
MODEL 3
REMARK VINA RESULT:    -8.345      2.188      4.023
REMARK INTER + INTRA:         -11.891
REMARK INTER:                 -11.050
REMARK INTRA:                  -0.841
REMARK UNBOUND:                -1.107
REMARK  Name = 
REMARK  5 active torsions:
REMARK  status: ('A' for Active; 'I' for Inactive)
REMARK    1  A    between atoms: C_2  and  C_4
REMARK    2  A    between atoms: C_7  and  O_8
REMARK    3  A    between atoms: O_8  and  C_9
REMARK    4  A    between atoms: C_9  and  C_10
REMARK    5  A    between atoms: C_15  and  C_16
REMARK                            x       y       z     vdW  Elec       q    Type
REMARK                         _______ _______ _______ _____ _____    ______ ____
ROOT
ATOM      1  C   UNL     1      45.429   5.380  12.052  0.00  0.00    +0.000 A 
ATOM      2  C   UNL     1      46.112   6.425  11.424  0.00  0.00    +0.000 A 
ATOM      3  C   UNL     1      47.265   6.939  12.000  0.00  0.00    +0.000 A 
ATOM      4  F   UNL     1      47.911   7.944  11.394  0.00  0.00    +0.000 F 
ATOM      5  C   UNL     1      47.755   6.441  13.205  0.00  0.00    +0.000 A 
ATOM      6  C   UNL     1      47.082   5.412  13.884  0.00  0.00    +0.000 A 
ATOM      7  C   UNL     1      45.916   4.897  13.281  0.00  0.00    +0.000 A 
ENDROOT
BRANCH   6   8
ATOM      8  C   UNL     1      47.556   4.912  15.197  0.00  0.00    +0.000 A 
ATOM      9  C   UNL     1      47.212   3.629  15.669  0.00  0.00    +0.000 A 
ATOM     10  C   UNL     1      47.637   3.169  16.921  0.00  0.00    +0.000 A 
ATOM     11  C   UNL     1      48.430   3.980  17.727  0.00  0.00    +0.000 A 
ATOM     12  C   UNL     1      48.783   5.243  17.273  0.00  0.00    +0.000 A 
ATOM     13  F   UNL     1      49.546   6.029  18.045  0.00  0.00    +0.000 F 
ATOM     14  C   UNL     1      48.354   5.711  16.035  0.00  0.00    +0.000 A 
ENDBRANCH   6   8
BRANCH   1  15
ATOM     15  C   UNL     1      44.136   4.863  11.466  0.00  0.00    +0.000 C 
BRANCH  15  16
ATOM     16  O   UNL     1      44.150   4.985  10.043  0.00  0.00    +0.000 OA
BRANCH  16  20
ATOM     17  C   UNL     1      46.414   2.301   7.789  0.00  0.00    +0.000 A 
ATOM     18  C   UNL     1      45.540   1.790   8.754  0.00  0.00    +0.000 A 
ATOM     19  C   UNL     1      44.763   2.656   9.529  0.00  0.00    +0.000 A 
ATOM     20  C   UNL     1      44.857   4.039   9.353  0.00  0.00    +0.000 A 
ATOM     21  C   UNL     1      45.743   4.546   8.398  0.00  0.00    +0.000 A 
ATOM     22  C   UNL     1      46.526   3.684   7.625  0.00  0.00    +0.000 A 
BRANCH  17  24
ATOM     23  N   UNL     1      48.202   2.011   6.160  0.00  0.00    +0.000 N 
ATOM     24  C   UNL     1      47.251   1.413   6.942  0.00  0.00    +0.000 C 
ATOM     25  O   UNL     1      47.130   0.196   6.968  0.00  0.00    +0.000 OA
ATOM     26  H   UNL     1      48.838   1.386   5.681  0.00  0.00    +0.000 HD
ATOM     27  H   UNL     1      48.506   2.960   6.310  0.00  0.00    +0.000 HD
ENDBRANCH  17  24
ENDBRANCH  16  20
ENDBRANCH  15  16
ENDBRANCH   1  15
TORSDOF 5
ENDMDL
MODEL 4
REMARK VINA RESULT:    -8.054      1.718      2.972
REMARK INTER + INTRA:         -11.514
REMARK INTER:                 -10.571
REMARK INTRA:                  -0.943
REMARK UNBOUND:                -1.107
REMARK  Name = 
REMARK  5 active torsions:
REMARK  status: ('A' for Active; 'I' for Inactive)
REMARK    1  A    between atoms: C_2  and  C_4
REMARK    2  A    between atoms: C_7  and  O_8
REMARK    3  A    between atoms: O_8  and  C_9
REMARK    4  A    between atoms: C_9  and  C_10
REMARK    5  A    between atoms: C_15  and  C_16
REMARK                            x       y       z     vdW  Elec       q    Type
REMARK                         _______ _______ _______ _____ _____    ______ ____
ROOT
ATOM      1  C   UNL     1      44.782   5.793  11.665  0.00  0.00    +0.000 A 
ATOM      2  C   UNL     1      43.976   6.890  11.352  0.00  0.00    +0.000 A 
ATOM      3  C   UNL     1      44.505   8.172  11.412  0.00  0.00    +0.000 A 
ATOM      4  F   UNL     1      43.724   9.219  11.116  0.00  0.00    +0.000 F 
ATOM      5  C   UNL     1      45.827   8.392  11.791  0.00  0.00    +0.000 A 
ATOM      6  C   UNL     1      46.662   7.318  12.143  0.00  0.00    +0.000 A 
ATOM      7  C   UNL     1      46.111   6.022  12.070  0.00  0.00    +0.000 A 
ENDROOT
BRANCH   6   8
ATOM      8  C   UNL     1      48.052   7.539  12.607  0.00  0.00    +0.000 A 
ATOM      9  C   UNL     1      49.031   8.108  11.767  0.00  0.00    +0.000 A 
ATOM     10  C   UNL     1      50.351   8.290  12.197  0.00  0.00    +0.000 A 
ATOM     11  C   UNL     1      50.720   7.919  13.486  0.00  0.00    +0.000 A 
ATOM     12  C   UNL     1      49.766   7.365  14.327  0.00  0.00    +0.000 A 
ATOM     13  F   UNL     1      50.115   7.004  15.570  0.00  0.00    +0.000 F 
ATOM     14  C   UNL     1      48.455   7.169  13.902  0.00  0.00    +0.000 A 
ENDBRANCH   6   8
BRANCH   1  15
ATOM     15  C   UNL     1      44.195   4.401  11.669  0.00  0.00    +0.000 C 
BRANCH  15  16
ATOM     16  O   UNL     1      43.693   4.069  10.373  0.00  0.00    +0.000 OA
BRANCH  16  20
ATOM     17  C   UNL     1      46.452   2.476   7.679  0.00  0.00    +0.000 A 
ATOM     18  C   UNL     1      46.203   3.852   7.642  0.00  0.00    +0.000 A 
ATOM     19  C   UNL     1      45.286   4.426   8.529  0.00  0.00    +0.000 A 
ATOM     20  C   UNL     1      44.606   3.629   9.454  0.00  0.00    +0.000 A 
ATOM     21  C   UNL     1      44.846   2.252   9.477  0.00  0.00    +0.000 A 
ATOM     22  C   UNL     1      45.759   1.675   8.589  0.00  0.00    +0.000 A 
BRANCH  17  24
ATOM     23  N   UNL     1      48.523   2.564   6.400  0.00  0.00    +0.000 N 
ATOM     24  C   UNL     1      47.424   1.832   6.757  0.00  0.00    +0.000 C 
ATOM     25  O   UNL     1      47.276   0.684   6.364  0.00  0.00    +0.000 OA
ATOM     26  H   UNL     1      49.230   2.071   5.869  0.00  0.00    +0.000 HD
ATOM     27  H   UNL     1      48.811   3.390   6.903  0.00  0.00    +0.000 HD
ENDBRANCH  17  24
ENDBRANCH  16  20
ENDBRANCH  15  16
ENDBRANCH   1  15
TORSDOF 5
ENDMDL
MODEL 5
REMARK VINA RESULT:    -7.867      3.465      6.937
REMARK INTER + INTRA:         -11.273
REMARK INTER:                 -10.246
REMARK INTRA:                  -1.027
REMARK UNBOUND:                -1.107
REMARK  Name = 
REMARK  5 active torsions:
REMARK  status: ('A' for Active; 'I' for Inactive)
REMARK    1  A    between atoms: C_2  and  C_4
REMARK    2  A    between atoms: C_7  and  O_8
REMARK    3  A    between atoms: O_8  and  C_9
REMARK    4  A    between atoms: C_9  and  C_10
REMARK    5  A    between atoms: C_15  and  C_16
REMARK                            x       y       z     vdW  Elec       q    Type
REMARK                         _______ _______ _______ _____ _____    ______ ____
ROOT
ATOM      1  C   UNL     1      44.492   5.535  11.147  0.00  0.00    +0.000 A 
ATOM      2  C   UNL     1      43.775   4.683  11.990  0.00  0.00    +0.000 A 
ATOM      3  C   UNL     1      43.751   3.320  11.732  0.00  0.00    +0.000 A 
ATOM      4  F   UNL     1      43.056   2.510  12.543  0.00  0.00    +0.000 F 
ATOM      5  C   UNL     1      44.421   2.779  10.638  0.00  0.00    +0.000 A 
ATOM      6  C   UNL     1      45.128   3.604   9.748  0.00  0.00    +0.000 A 
ATOM      7  C   UNL     1      45.148   4.986  10.029  0.00  0.00    +0.000 A 
ENDROOT
BRANCH   6   8
ATOM      8  C   UNL     1      45.796   3.052   8.545  0.00  0.00    +0.000 A 
ATOM      9  C   UNL     1      46.174   3.876   7.465  0.00  0.00    +0.000 A 
ATOM     10  C   UNL     1      46.779   3.348   6.318  0.00  0.00    +0.000 A 
ATOM     11  C   UNL     1      47.033   1.983   6.230  0.00  0.00    +0.000 A 
ATOM     12  C   UNL     1      46.673   1.161   7.288  0.00  0.00    +0.000 A 
ATOM     13  F   UNL     1      46.913  -0.155   7.209  0.00  0.00    +0.000 F 
ATOM     14  C   UNL     1      46.059   1.676   8.426  0.00  0.00    +0.000 A 
ENDBRANCH   6   8
BRANCH   1  15
ATOM     15  C   UNL     1      44.466   7.028  11.381  0.00  0.00    +0.000 C 
BRANCH  15  16
ATOM     16  O   UNL     1      45.145   7.353  12.596  0.00  0.00    +0.000 OA
BRANCH  16  20
ATOM     17  C   UNL     1      49.272   7.873  12.282  0.00  0.00    +0.000 A 
ATOM     18  C   UNL     1      48.791   6.670  12.809  0.00  0.00    +0.000 A 
ATOM     19  C   UNL     1      47.414   6.456  12.930  0.00  0.00    +0.000 A 
ATOM     20  C   UNL     1      46.508   7.443  12.532  0.00  0.00    +0.000 A 
ATOM     21  C   UNL     1      46.994   8.650  12.020  0.00  0.00    +0.000 A 
ATOM     22  C   UNL     1      48.370   8.869  11.902  0.00  0.00    +0.000 A 
BRANCH  17  24
ATOM     23  N   UNL     1      51.388   7.440  11.156  0.00  0.00    +0.000 N 
ATOM     24  C   UNL     1      50.728   8.134  12.132  0.00  0.00    +0.000 C 
ATOM     25  O   UNL     1      51.308   8.963  12.819  0.00  0.00    +0.000 OA
ATOM     26  H   UNL     1      52.348   7.715  10.990  0.00  0.00    +0.000 HD
ATOM     27  H   UNL     1      50.905   6.962  10.410  0.00  0.00    +0.000 HD
ENDBRANCH  17  24
ENDBRANCH  16  20
ENDBRANCH  15  16
ENDBRANCH   1  15
TORSDOF 5
ENDMDL
MODEL 6
REMARK VINA RESULT:    -7.830      3.909      7.461
REMARK INTER + INTRA:         -11.225
REMARK INTER:                 -10.667
REMARK INTRA:                  -0.559
REMARK UNBOUND:                -1.107
REMARK  Name = 
REMARK  5 active torsions:
REMARK  status: ('A' for Active; 'I' for Inactive)
REMARK    1  A    between atoms: C_2  and  C_4
REMARK    2  A    between atoms: C_7  and  O_8
REMARK    3  A    between atoms: O_8  and  C_9
REMARK    4  A    between atoms: C_9  and  C_10
REMARK    5  A    between atoms: C_15  and  C_16
REMARK                            x       y       z     vdW  Elec       q    Type
REMARK                         _______ _______ _______ _____ _____    ______ ____
ROOT
ATOM      1  C   UNL     1      45.411   6.251  11.297  0.00  0.00    +0.000 A 
ATOM      2  C   UNL     1      44.059   6.136  11.632  0.00  0.00    +0.000 A 
ATOM      3  C   UNL     1      43.280   5.162  11.024  0.00  0.00    +0.000 A 
ATOM      4  F   UNL     1      41.983   5.062  11.346  0.00  0.00    +0.000 F 
ATOM      5  C   UNL     1      43.815   4.298  10.071  0.00  0.00    +0.000 A 
ATOM      6  C   UNL     1      45.161   4.400   9.684  0.00  0.00    +0.000 A 
ATOM      7  C   UNL     1      45.941   5.390  10.317  0.00  0.00    +0.000 A 
ENDROOT
BRANCH   6   8
ATOM      8  C   UNL     1      45.731   3.528   8.629  0.00  0.00    +0.000 A 
ATOM      9  C   UNL     1      46.210   4.055   7.412  0.00  0.00    +0.000 A 
ATOM     10  C   UNL     1      46.721   3.227   6.405  0.00  0.00    +0.000 A 
ATOM     11  C   UNL     1      46.780   1.851   6.599  0.00  0.00    +0.000 A 
ATOM     12  C   UNL     1      46.319   1.318   7.795  0.00  0.00    +0.000 A 
ATOM     13  F   UNL     1      46.371  -0.007   7.988  0.00  0.00    +0.000 F 
ATOM     14  C   UNL     1      45.798   2.134   8.795  0.00  0.00    +0.000 A 
ENDBRANCH   6   8
BRANCH   1  15
ATOM     15  C   UNL     1      46.249   7.352  11.904  0.00  0.00    +0.000 C 
BRANCH  15  16
ATOM     16  O   UNL     1      47.544   6.858  12.250  0.00  0.00    +0.000 OA
BRANCH  16  20
ATOM     17  C   UNL     1      47.769   4.911  15.933  0.00  0.00    +0.000 A 
ATOM     18  C   UNL     1      48.439   6.130  15.781  0.00  0.00    +0.000 A 
ATOM     19  C   UNL     1      48.388   6.814  14.563  0.00  0.00    +0.000 A 
ATOM     20  C   UNL     1      47.673   6.285  13.485  0.00  0.00    +0.000 A 
ATOM     21  C   UNL     1      47.017   5.060  13.636  0.00  0.00    +0.000 A 
ATOM     22  C   UNL     1      47.070   4.370  14.851  0.00  0.00    +0.000 A 
BRANCH  17  24
ATOM     23  N   UNL     1      46.821   3.216  17.403  0.00  0.00    +0.000 N 
ATOM     24  C   UNL     1      47.795   4.158  17.214  0.00  0.00    +0.000 C 
ATOM     25  O   UNL     1      48.669   4.338  18.049  0.00  0.00    +0.000 OA
ATOM     26  H   UNL     1      46.922   2.634  18.225  0.00  0.00    +0.000 HD
ATOM     27  H   UNL     1      46.259   2.859  16.646  0.00  0.00    +0.000 HD
ENDBRANCH  17  24
ENDBRANCH  16  20
ENDBRANCH  15  16
ENDBRANCH   1  15
TORSDOF 5
ENDMDL
MODEL 7
REMARK VINA RESULT:    -7.468      4.741      8.088
REMARK INTER + INTRA:         -10.757
REMARK INTER:                 -10.107
REMARK INTRA:                  -0.650
REMARK UNBOUND:                -1.107
REMARK  Name = 
REMARK  5 active torsions:
REMARK  status: ('A' for Active; 'I' for Inactive)
REMARK    1  A    between atoms: C_2  and  C_4
REMARK    2  A    between atoms: C_7  and  O_8
REMARK    3  A    between atoms: O_8  and  C_9
REMARK    4  A    between atoms: C_9  and  C_10
REMARK    5  A    between atoms: C_15  and  C_16
REMARK                            x       y       z     vdW  Elec       q    Type
REMARK                         _______ _______ _______ _____ _____    ______ ____
ROOT
ATOM      1  C   UNL     1      45.257   4.968  12.827  0.00  0.00    +0.000 A 
ATOM      2  C   UNL     1      43.943   5.441  12.848  0.00  0.00    +0.000 A 
ATOM      3  C   UNL     1      43.124   5.248  11.744  0.00  0.00    +0.000 A 
ATOM      4  F   UNL     1      41.867   5.710  11.771  0.00  0.00    +0.000 F 
ATOM      5  C   UNL     1      43.590   4.600  10.603  0.00  0.00    +0.000 A 
ATOM      6  C   UNL     1      44.914   4.137  10.529  0.00  0.00    +0.000 A 
ATOM      7  C   UNL     1      45.730   4.334  11.662  0.00  0.00    +0.000 A 
ENDROOT
BRANCH   6   8
ATOM      8  C   UNL     1      45.443   3.499   9.300  0.00  0.00    +0.000 A 
ATOM      9  C   UNL     1      45.816   4.259   8.173  0.00  0.00    +0.000 A 
ATOM     10  C   UNL     1      46.288   3.653   7.002  0.00  0.00    +0.000 A 
ATOM     11  C   UNL     1      46.413   2.269   6.937  0.00  0.00    +0.000 A 
ATOM     12  C   UNL     1      46.056   1.507   8.041  0.00  0.00    +0.000 A 
ATOM     13  F   UNL     1      46.172   0.173   7.985  0.00  0.00    +0.000 F 
ATOM     14  C   UNL     1      45.574   2.102   9.204  0.00  0.00    +0.000 A 
ENDBRANCH   6   8
BRANCH   1  15
ATOM     15  C   UNL     1      46.175   5.234  13.997  0.00  0.00    +0.000 C 
BRANCH  15  16
ATOM     16  O   UNL     1      46.403   4.031  14.734  0.00  0.00    +0.000 OA
BRANCH  16  20
ATOM     17  C   UNL     1      49.264   4.483  17.737  0.00  0.00    +0.000 A 
ATOM     18  C   UNL     1      48.649   3.236  17.585  0.00  0.00    +0.000 A 
ATOM     19  C   UNL     1      47.686   3.043  16.589  0.00  0.00    +0.000 A 
ATOM     20  C   UNL     1      47.324   4.094  15.743  0.00  0.00    +0.000 A 
ATOM     21  C   UNL     1      47.930   5.344  15.909  0.00  0.00    +0.000 A 
ATOM     22  C   UNL     1      48.889   5.542  16.906  0.00  0.00    +0.000 A 
BRANCH  17  24
ATOM     23  N   UNL     1      51.385   3.896  18.781  0.00  0.00    +0.000 N 
ATOM     24  C   UNL     1      50.296   4.725  18.778  0.00  0.00    +0.000 C 
ATOM     25  O   UNL     1      50.204   5.648  19.575  0.00  0.00    +0.000 OA
ATOM     26  H   UNL     1      52.130   4.147  19.418  0.00  0.00    +0.000 HD
ATOM     27  H   UNL     1      51.622   3.312  17.994  0.00  0.00    +0.000 HD
ENDBRANCH  17  24
ENDBRANCH  16  20
ENDBRANCH  15  16
ENDBRANCH   1  15
TORSDOF 5
ENDMDL
MODEL 8
REMARK VINA RESULT:    -7.055      3.788      7.466
REMARK INTER + INTRA:         -10.223
REMARK INTER:                  -9.368
REMARK INTRA:                  -0.855
REMARK UNBOUND:                -1.107
REMARK  Name = 
REMARK  5 active torsions:
REMARK  status: ('A' for Active; 'I' for Inactive)
REMARK    1  A    between atoms: C_2  and  C_4
REMARK    2  A    between atoms: C_7  and  O_8
REMARK    3  A    between atoms: O_8  and  C_9
REMARK    4  A    between atoms: C_9  and  C_10
REMARK    5  A    between atoms: C_15  and  C_16
REMARK                            x       y       z     vdW  Elec       q    Type
REMARK                         _______ _______ _______ _____ _____    ______ ____
ROOT
ATOM      1  C   UNL     1      45.220   4.406  12.631  0.00  0.00    +0.000 A 
ATOM      2  C   UNL     1      43.928   4.939  12.622  0.00  0.00    +0.000 A 
ATOM      3  C   UNL     1      43.162   4.868  11.468  0.00  0.00    +0.000 A 
ATOM      4  F   UNL     1      41.926   5.386  11.467  0.00  0.00    +0.000 F 
ATOM      5  C   UNL     1      43.658   4.284  10.305  0.00  0.00    +0.000 A 
ATOM      6  C   UNL     1      44.962   3.764  10.262  0.00  0.00    +0.000 A 
ATOM      7  C   UNL     1      45.725   3.838  11.445  0.00  0.00    +0.000 A 
ENDROOT
BRANCH   6   8
ATOM      8  C   UNL     1      45.527   3.194   9.015  0.00  0.00    +0.000 A 
ATOM      9  C   UNL     1      45.771   3.993   7.880  0.00  0.00    +0.000 A 
ATOM     10  C   UNL     1      46.278   3.448   6.694  0.00  0.00    +0.000 A 
ATOM     11  C   UNL     1      46.567   2.089   6.621  0.00  0.00    +0.000 A 
ATOM     12  C   UNL     1      46.339   1.291   7.733  0.00  0.00    +0.000 A 
ATOM     13  F   UNL     1      46.613  -0.020   7.669  0.00  0.00    +0.000 F 
ATOM     14  C   UNL     1      45.823   1.824   8.911  0.00  0.00    +0.000 A 
ENDBRANCH   6   8
BRANCH   1  15
ATOM     15  C   UNL     1      46.085   4.541  13.862  0.00  0.00    +0.000 C 
BRANCH  15  16
ATOM     16  O   UNL     1      47.427   4.867  13.493  0.00  0.00    +0.000 OA
BRANCH  16  20
ATOM     17  C   UNL     1      48.287   8.920  13.005  0.00  0.00    +0.000 A 
ATOM     18  C   UNL     1      47.870   8.189  11.888  0.00  0.00    +0.000 A 
ATOM     19  C   UNL     1      47.571   6.828  12.010  0.00  0.00    +0.000 A 
ATOM     20  C   UNL     1      47.692   6.186  13.245  0.00  0.00    +0.000 A 
ATOM     21  C   UNL     1      48.123   6.918  14.356  0.00  0.00    +0.000 A 
ATOM     22  C   UNL     1      48.428   8.277  14.237  0.00  0.00    +0.000 A 
BRANCH  17  24
ATOM     23  N   UNL     1      48.461  11.111  14.057  0.00  0.00    +0.000 N 
ATOM     24  C   UNL     1      48.607  10.369  12.916  0.00  0.00    +0.000 C 
ATOM     25  O   UNL     1      49.023  10.875  11.884  0.00  0.00    +0.000 OA
ATOM     26  H   UNL     1      48.794  12.066  14.009  0.00  0.00    +0.000 HD
ATOM     27  H   UNL     1      48.382  10.690  14.970  0.00  0.00    +0.000 HD
ENDBRANCH  17  24
ENDBRANCH  16  20
ENDBRANCH  15  16
ENDBRANCH   1  15
TORSDOF 5
ENDMDL
MODEL 9
REMARK VINA RESULT:    -7.029      4.927      8.263
REMARK INTER + INTRA:         -10.190
REMARK INTER:                  -9.385
REMARK INTRA:                  -0.806
REMARK UNBOUND:                -1.107
REMARK  Name = 
REMARK  5 active torsions:
REMARK  status: ('A' for Active; 'I' for Inactive)
REMARK    1  A    between atoms: C_2  and  C_4
REMARK    2  A    between atoms: C_7  and  O_8
REMARK    3  A    between atoms: O_8  and  C_9
REMARK    4  A    between atoms: C_9  and  C_10
REMARK    5  A    between atoms: C_15  and  C_16
REMARK                            x       y       z     vdW  Elec       q    Type
REMARK                         _______ _______ _______ _____ _____    ______ ____
ROOT
ATOM      1  C   UNL     1      46.983   7.186  13.106  0.00  0.00    +0.000 A 
ATOM      2  C   UNL     1      46.258   8.375  12.992  0.00  0.00    +0.000 A 
ATOM      3  C   UNL     1      45.190   8.448  12.109  0.00  0.00    +0.000 A 
ATOM      4  F   UNL     1      44.504   9.593  12.002  0.00  0.00    +0.000 F 
ATOM      5  C   UNL     1      44.829   7.358  11.320  0.00  0.00    +0.000 A 
ATOM      6  C   UNL     1      45.551   6.155  11.382  0.00  0.00    +0.000 A 
ATOM      7  C   UNL     1      46.628   6.096  12.289  0.00  0.00    +0.000 A 
ENDROOT
BRANCH   6   8
ATOM      8  C   UNL     1      45.217   5.007  10.506  0.00  0.00    +0.000 A 
ATOM      9  C   UNL     1      44.474   3.906  10.979  0.00  0.00    +0.000 A 
ATOM     10  C   UNL     1      44.184   2.809  10.158  0.00  0.00    +0.000 A 
ATOM     11  C   UNL     1      44.619   2.795   8.837  0.00  0.00    +0.000 A 
ATOM     12  C   UNL     1      45.345   3.875   8.354  0.00  0.00    +0.000 A 
ATOM     13  F   UNL     1      45.768   3.867   7.083  0.00  0.00    +0.000 F 
ATOM     14  C   UNL     1      45.648   4.963   9.168  0.00  0.00    +0.000 A 
ENDBRANCH   6   8
BRANCH   1  15
ATOM     15  C   UNL     1      48.190   7.121  14.014  0.00  0.00    +0.000 C 
BRANCH  15  16
ATOM     16  O   UNL     1      48.419   5.776  14.440  0.00  0.00    +0.000 OA
BRANCH  16  20
ATOM     17  C   UNL     1      48.070   5.190  18.556  0.00  0.00    +0.000 A 
ATOM     18  C   UNL     1      47.385   4.322  17.698  0.00  0.00    +0.000 A 
ATOM     19  C   UNL     1      47.477   4.484  16.312  0.00  0.00    +0.000 A 
ATOM     20  C   UNL     1      48.247   5.517  15.772  0.00  0.00    +0.000 A 
ATOM     21  C   UNL     1      48.918   6.391  16.632  0.00  0.00    +0.000 A 
ATOM     22  C   UNL     1      48.824   6.235  18.019  0.00  0.00    +0.000 A 
BRANCH  17  24
ATOM     23  N   UNL     1      48.611   3.949  20.581  0.00  0.00    +0.000 N 
ATOM     24  C   UNL     1      48.002   5.045  20.033  0.00  0.00    +0.000 C 
ATOM     25  O   UNL     1      47.464   5.886  20.739  0.00  0.00    +0.000 OA
ATOM     26  H   UNL     1      48.656   3.927  21.592  0.00  0.00    +0.000 HD
ATOM     27  H   UNL     1      49.279   3.390  20.072  0.00  0.00    +0.000 HD
ENDBRANCH  17  24
ENDBRANCH  16  20
ENDBRANCH  15  16
ENDBRANCH   1  15
TORSDOF 5
ENDMDL
