MODEL 1
REMARK VINA RESULT:    -7.945      0.000      0.000
REMARK INTER + INTRA:         -12.957
REMARK INTER:                 -11.661
REMARK INTRA:                  -1.296
REMARK UNBOUND:                -1.296
REMARK  Name = 
REMARK  8 active torsions:
REMARK  status: ('A' for Active; 'I' for Inactive)
REMARK    1  A    between atoms: C_2  and  C_3
REMARK    2  A    between atoms: C_3  and  C_4
REMARK    3  A    between atoms: C_4  and  N_5
REMARK    4  A    between atoms: C_4  and  C_18
REMARK    5  A    between atoms: C_6  and  C_8
REMARK    6  A    between atoms: C_21  and  C_22
REMARK    7  A    between atoms: C_22  and  N_23
REMARK    8  A    between atoms: C_24  and  C_26
REMARK                            x       y       z     vdW  Elec       q    Type
REMARK                         _______ _______ _______ _____ _____    ______ ____
ROOT
ATOM      1  C   UNL     1      47.973   4.802  16.008  0.00  0.00    +0.000 C 
ENDROOT
BRANCH   1   2
ATOM      2  C   UNL     1      47.403   5.095  14.612  0.00  0.00    +0.000 A 
ATOM      3  C   UNL     1      46.391   4.276  14.088  0.00  0.00    +0.000 A 
ATOM      4  C   UNL     1      45.713   4.628  12.912  0.00  0.00    +0.000 A 
ATOM      5  C   UNL     1      46.041   5.800  12.217  0.00  0.00    +0.000 A 
ATOM      6  C   UNL     1      47.104   6.576  12.692  0.00  0.00    +0.000 A 
ATOM      7  C   UNL     1      47.793   6.215  13.858  0.00  0.00    +0.000 A 
BRANCH   5   8
ATOM      8  C   UNL     1      45.282   6.210  10.981  0.00  0.00    +0.000 C 
BRANCH   8   9
ATOM      9  N   UNL     1      45.644   5.463   9.798  0.00  0.00    +0.000 N 
ATOM     10  C   UNL     1      44.848   4.427   9.365  0.00  0.00    +0.000 C 
ATOM     11  O   UNL     1      43.841   4.068   9.976  0.00  0.00    +0.000 OA
ATOM     12  H   UNL     1      46.444   5.718   9.224  0.00  0.00    +0.000 HD
BRANCH  10  13
ATOM     13  C   UNL     1      45.318   3.683   8.113  0.00  0.00    +0.000 C 
ATOM     14  C   UNL     1      45.861   2.301   8.421  0.00  0.00    +0.000 C 
ATOM     15  C   UNL     1      46.569   1.942   7.128  0.00  0.00    +0.000 C 
ATOM     16  C   UNL     1      47.040   3.282   6.569  0.00  0.00    +0.000 C 
ATOM     17  N   UNL     1      46.485   4.317   7.456  0.00  0.00    +0.000 NA
ATOM     18  H   UNL     1      46.178   5.121   6.908  0.00  0.00    +0.000 HD
ENDBRANCH  10  13
ENDBRANCH   8   9
ENDBRANCH   5   8
ENDBRANCH   1   2
BRANCH   1  19
ATOM     19  N   UNL     1      47.621   5.874  16.941  0.00  0.00    +0.000 N 
ATOM     20  C   UNL     1      48.371   6.176  18.058  0.00  0.00    +0.000 C 
ATOM     21  O   UNL     1      49.292   5.446  18.418  0.00  0.00    +0.000 OA
ATOM     22  H   UNL     1      47.022   6.607  16.562  0.00  0.00    +0.000 HD
BRANCH  20  23
ATOM     23  C   UNL     1      48.037   7.395  18.821  0.00  0.00    +0.000 A 
ATOM     24  C   UNL     1      47.799   7.305  20.189  0.00  0.00    +0.000 A 
ATOM     25  S   UNL     1      47.428   8.795  20.931  0.00  0.00    +0.000 S 
ATOM     26  C   UNL     1      47.563   9.621  19.451  0.00  0.00    +0.000 A 
ATOM     27  N   UNL     1      47.351  10.964  19.384  0.00  0.00    +0.000 NA
ATOM     28  C   UNL     1      47.467  11.464  18.199  0.00  0.00    +0.000 A 
ATOM     29  N   UNL     1      47.780  10.744  17.077  0.00  0.00    +0.000 N 
ATOM     30  C   UNL     1      48.047   9.397  17.107  0.00  0.00    +0.000 A 
ATOM     31  O   UNL     1      48.400   8.797  16.098  0.00  0.00    +0.000 OA
ATOM     32  C   UNL     1      47.896   8.774  18.409  0.00  0.00    +0.000 A 
ATOM     33  H   UNL     1      47.874  11.196  16.180  0.00  0.00    +0.000 HD
ENDBRANCH  20  23
ENDBRANCH   1  19
BRANCH   1  34
ATOM     34  C   UNL     1      47.575   3.387  16.506  0.00  0.00    +0.000 C 
BRANCH  34  36
ATOM     35  N   UNL     1      49.550   1.670  16.188  0.00  0.00    +0.000 NA
ATOM     36  C   UNL     1      48.677   2.427  16.329  0.00  0.00    +0.000 C 
ENDBRANCH  34  36
ENDBRANCH   1  34
TORSDOF 8
ENDMDL
MODEL 2
REMARK VINA RESULT:    -7.920      1.643      2.097
REMARK INTER + INTRA:         -12.920
REMARK INTER:                 -11.677
REMARK INTRA:                  -1.243
REMARK UNBOUND:                -1.296
REMARK  Name = 
REMARK  8 active torsions:
REMARK  status: ('A' for Active; 'I' for Inactive)
REMARK    1  A    between atoms: C_2  and  C_3
REMARK    2  A    between atoms: C_3  and  C_4
REMARK    3  A    between atoms: C_4  and  N_5
REMARK    4  A    between atoms: C_4  and  C_18
REMARK    5  A    between atoms: C_6  and  C_8
REMARK    6  A    between atoms: C_21  and  C_22
REMARK    7  A    between atoms: C_22  and  N_23
REMARK    8  A    between atoms: C_24  and  C_26
REMARK                            x       y       z     vdW  Elec       q    Type
REMARK                         _______ _______ _______ _____ _____    ______ ____
ROOT
ATOM      1  C   UNL     1      47.926   4.766  15.246  0.00  0.00    +0.000 C 
ENDROOT
BRANCH   1   2
ATOM      2  C   UNL     1      47.092   4.746  13.957  0.00  0.00    +0.000 A 
ATOM      3  C   UNL     1      46.503   3.547  13.528  0.00  0.00    +0.000 A 
ATOM      4  C   UNL     1      45.578   3.532  12.474  0.00  0.00    +0.000 A 
ATOM      5  C   UNL     1      45.231   4.713  11.806  0.00  0.00    +0.000 A 
ATOM      6  C   UNL     1      45.877   5.898  12.177  0.00  0.00    +0.000 A 
ATOM      7  C   UNL     1      46.815   5.910  13.219  0.00  0.00    +0.000 A 
BRANCH   5   8
ATOM      8  C   UNL     1      44.200   4.713  10.707  0.00  0.00    +0.000 C 
BRANCH   8   9
ATOM      9  N   UNL     1      44.542   3.868   9.586  0.00  0.00    +0.000 N 
ATOM     10  C   UNL     1      45.454   4.299   8.648  0.00  0.00    +0.000 C 
ATOM     11  O   UNL     1      45.971   5.416   8.696  0.00  0.00    +0.000 OA
ATOM     12  H   UNL     1      44.180   2.923   9.493  0.00  0.00    +0.000 HD
BRANCH  10  13
ATOM     13  C   UNL     1      45.743   3.345   7.488  0.00  0.00    +0.000 C 
ATOM     14  C   UNL     1      46.428   2.069   7.934  0.00  0.00    +0.000 C 
ATOM     15  C   UNL     1      46.916   1.492   6.618  0.00  0.00    +0.000 C 
ATOM     16  C   UNL     1      47.185   2.715   5.746  0.00  0.00    +0.000 C 
ATOM     17  N   UNL     1      46.726   3.881   6.517  0.00  0.00    +0.000 NA
ATOM     18  H   UNL     1      46.271   4.554   5.899  0.00  0.00    +0.000 HD
ENDBRANCH  10  13
ENDBRANCH   8   9
ENDBRANCH   5   8
ENDBRANCH   1   2
BRANCH   1  19
ATOM     19  N   UNL     1      47.885   6.094  15.863  0.00  0.00    +0.000 N 
ATOM     20  C   UNL     1      49.010   6.865  16.065  0.00  0.00    +0.000 C 
ATOM     21  O   UNL     1      50.135   6.403  15.884  0.00  0.00    +0.000 OA
ATOM     22  H   UNL     1      46.987   6.572  15.813  0.00  0.00    +0.000 HD
BRANCH  20  23
ATOM     23  C   UNL     1      48.834   8.260  16.512  0.00  0.00    +0.000 A 
ATOM     24  C   UNL     1      49.312   9.300  15.720  0.00  0.00    +0.000 A 
ATOM     25  S   UNL     1      49.034  10.853  16.367  0.00  0.00    +0.000 S 
ATOM     26  C   UNL     1      48.270  10.199  17.738  0.00  0.00    +0.000 A 
ATOM     27  N   UNL     1      47.791  11.010  18.719  0.00  0.00    +0.000 NA
ATOM     28  C   UNL     1      47.250  10.386  19.713  0.00  0.00    +0.000 A 
ATOM     29  N   UNL     1      47.142   9.024  19.809  0.00  0.00    +0.000 N 
ATOM     30  C   UNL     1      47.570   8.171  18.822  0.00  0.00    +0.000 A 
ATOM     31  O   UNL     1      47.388   6.961  18.906  0.00  0.00    +0.000 OA
ATOM     32  C   UNL     1      48.219   8.816  17.697  0.00  0.00    +0.000 A 
ATOM     33  H   UNL     1      46.692   8.595  20.605  0.00  0.00    +0.000 HD
ENDBRANCH  20  23
ENDBRANCH   1  19
BRANCH   1  34
ATOM     34  C   UNL     1      47.523   3.619  16.209  0.00  0.00    +0.000 C 
BRANCH  34  36
ATOM     35  N   UNL     1      49.355   1.725  16.264  0.00  0.00    +0.000 NA
ATOM     36  C   UNL     1      48.546   2.560  16.242  0.00  0.00    +0.000 C 
ENDBRANCH  34  36
ENDBRANCH   1  34
TORSDOF 8
ENDMDL
MODEL 3
REMARK VINA RESULT:    -7.553      2.800      4.553
REMARK INTER + INTRA:         -12.382
REMARK INTER:                 -10.787
REMARK INTRA:                  -1.595
REMARK UNBOUND:                -1.296
REMARK  Name = 
REMARK  8 active torsions:
REMARK  status: ('A' for Active; 'I' for Inactive)
REMARK    1  A    between atoms: C_2  and  C_3
REMARK    2  A    between atoms: C_3  and  C_4
REMARK    3  A    between atoms: C_4  and  N_5
REMARK    4  A    between atoms: C_4  and  C_18
REMARK    5  A    between atoms: C_6  and  C_8
REMARK    6  A    between atoms: C_21  and  C_22
REMARK    7  A    between atoms: C_22  and  N_23
REMARK    8  A    between atoms: C_24  and  C_26
REMARK                            x       y       z     vdW  Elec       q    Type
REMARK                         _______ _______ _______ _____ _____    ______ ____
ROOT
ATOM      1  C   UNL     1      47.522   8.074  13.636  0.00  0.00    +0.000 C 
ENDROOT
BRANCH   1   2
ATOM      2  C   UNL     1      46.406   7.239  12.992  0.00  0.00    +0.000 A 
ATOM      3  C   UNL     1      45.425   7.871  12.213  0.00  0.00    +0.000 A 
ATOM      4  C   UNL     1      44.513   7.124  11.453  0.00  0.00    +0.000 A 
ATOM      5  C   UNL     1      44.544   5.723  11.466  0.00  0.00    +0.000 A 
ATOM      6  C   UNL     1      45.468   5.090  12.305  0.00  0.00    +0.000 A 
ATOM      7  C   UNL     1      46.368   5.836  13.078  0.00  0.00    +0.000 A 
BRANCH   5   8
ATOM      8  C   UNL     1      43.601   4.915  10.612  0.00  0.00    +0.000 C 
BRANCH   8   9
ATOM      9  N   UNL     1      44.179   4.473   9.363  0.00  0.00    +0.000 N 
ATOM     10  C   UNL     1      44.677   3.194   9.247  0.00  0.00    +0.000 C 
ATOM     11  O   UNL     1      44.695   2.404  10.192  0.00  0.00    +0.000 OA
ATOM     12  H   UNL     1      44.174   5.056   8.531  0.00  0.00    +0.000 HD
BRANCH  10  13
ATOM     13  C   UNL     1      45.283   2.818   7.893  0.00  0.00    +0.000 C 
ATOM     14  C   UNL     1      46.346   1.743   8.004  0.00  0.00    +0.000 C 
ATOM     15  C   UNL     1      47.017   1.817   6.645  0.00  0.00    +0.000 C 
ATOM     16  C   UNL     1      46.878   3.280   6.234  0.00  0.00    +0.000 C 
ATOM     17  N   UNL     1      46.047   3.922   7.265  0.00  0.00    +0.000 NA
ATOM     18  H   UNL     1      45.404   4.587   6.834  0.00  0.00    +0.000 HD
ENDBRANCH  10  13
ENDBRANCH   8   9
ENDBRANCH   5   8
ENDBRANCH   1   2
BRANCH   1  19
ATOM     19  N   UNL     1      48.461   7.209  14.353  0.00  0.00    +0.000 N 
ATOM     20  C   UNL     1      48.935   7.498  15.616  0.00  0.00    +0.000 C 
ATOM     21  O   UNL     1      48.719   8.589  16.139  0.00  0.00    +0.000 OA
ATOM     22  H   UNL     1      48.476   6.235  14.055  0.00  0.00    +0.000 HD
BRANCH  20  23
ATOM     23  C   UNL     1      49.719   6.468  16.325  0.00  0.00    +0.000 A 
ATOM     24  C   UNL     1      51.026   6.748  16.715  0.00  0.00    +0.000 A 
ATOM     25  S   UNL     1      51.802   5.463  17.524  0.00  0.00    +0.000 S 
ATOM     26  C   UNL     1      50.425   4.475  17.378  0.00  0.00    +0.000 A 
ATOM     27  N   UNL     1      50.426   3.206  17.869  0.00  0.00    +0.000 NA
ATOM     28  C   UNL     1      49.325   2.558  17.677  0.00  0.00    +0.000 A 
ATOM     29  N   UNL     1      48.223   3.068  17.044  0.00  0.00    +0.000 N 
ATOM     30  C   UNL     1      48.162   4.357  16.575  0.00  0.00    +0.000 A 
ATOM     31  O   UNL     1      47.133   4.806  16.082  0.00  0.00    +0.000 OA
ATOM     32  C   UNL     1      49.386   5.121  16.731  0.00  0.00    +0.000 A 
ATOM     33  H   UNL     1      47.384   2.516  16.940  0.00  0.00    +0.000 HD
ENDBRANCH  20  23
ENDBRANCH   1  19
BRANCH   1  34
ATOM     34  C   UNL     1      48.204   9.013  12.605  0.00  0.00    +0.000 C 
BRANCH  34  36
ATOM     35  N   UNL     1      50.199   7.807  11.374  0.00  0.00    +0.000 NA
ATOM     36  C   UNL     1      49.317   8.337  11.917  0.00  0.00    +0.000 C 
ENDBRANCH  34  36
ENDBRANCH   1  34
TORSDOF 8
ENDMDL
MODEL 4
REMARK VINA RESULT:    -7.481      2.278      4.138
REMARK INTER + INTRA:         -12.276
REMARK INTER:                 -10.541
REMARK INTRA:                  -1.735
REMARK UNBOUND:                -1.296
REMARK  Name = 
REMARK  8 active torsions:
REMARK  status: ('A' for Active; 'I' for Inactive)
REMARK    1  A    between atoms: C_2  and  C_3
REMARK    2  A    between atoms: C_3  and  C_4
REMARK    3  A    between atoms: C_4  and  N_5
REMARK    4  A    between atoms: C_4  and  C_18
REMARK    5  A    between atoms: C_6  and  C_8
REMARK    6  A    between atoms: C_21  and  C_22
REMARK    7  A    between atoms: C_22  and  N_23
REMARK    8  A    between atoms: C_24  and  C_26
REMARK                            x       y       z     vdW  Elec       q    Type
REMARK                         _______ _______ _______ _____ _____    ______ ____
ROOT
ATOM      1  C   UNL     1      48.805   8.611  14.148  0.00  0.00    +0.000 C 
ENDROOT
BRANCH   1   2
ATOM      2  C   UNL     1      47.698   8.107  13.211  0.00  0.00    +0.000 A 
ATOM      3  C   UNL     1      47.975   7.080  12.296  0.00  0.00    +0.000 A 
ATOM      4  C   UNL     1      46.947   6.463  11.568  0.00  0.00    +0.000 A 
ATOM      5  C   UNL     1      45.614   6.868  11.722  0.00  0.00    +0.000 A 
ATOM      6  C   UNL     1      45.345   7.947  12.572  0.00  0.00    +0.000 A 
ATOM      7  C   UNL     1      46.375   8.576  13.286  0.00  0.00    +0.000 A 
BRANCH   5   8
ATOM      8  C   UNL     1      44.499   6.176  10.983  0.00  0.00    +0.000 C 
BRANCH   8   9
ATOM      9  N   UNL     1      44.941   5.426   9.829  0.00  0.00    +0.000 N 
ATOM     10  C   UNL     1      44.424   4.174   9.579  0.00  0.00    +0.000 C 
ATOM     11  O   UNL     1      43.617   3.631  10.334  0.00  0.00    +0.000 OA
ATOM     12  H   UNL     1      45.581   5.819   9.145  0.00  0.00    +0.000 HD
BRANCH  10  13
ATOM     13  C   UNL     1      44.961   3.448   8.344  0.00  0.00    +0.000 C 
ATOM     14  C   UNL     1      45.719   2.182   8.691  0.00  0.00    +0.000 C 
ATOM     15  C   UNL     1      46.431   1.870   7.387  0.00  0.00    +0.000 C 
ATOM     16  C   UNL     1      46.673   3.236   6.752  0.00  0.00    +0.000 C 
ATOM     17  N   UNL     1      45.995   4.218   7.613  0.00  0.00    +0.000 NA
ATOM     18  H   UNL     1      45.551   4.938   7.043  0.00  0.00    +0.000 HD
ENDBRANCH  10  13
ENDBRANCH   8   9
ENDBRANCH   5   8
ENDBRANCH   1   2
BRANCH   1  19
ATOM     19  N   UNL     1      49.065   7.633  15.207  0.00  0.00    +0.000 N 
ATOM     20  C   UNL     1      48.647   7.807  16.510  0.00  0.00    +0.000 C 
ATOM     21  O   UNL     1      48.174   8.878  16.886  0.00  0.00    +0.000 OA
ATOM     22  H   UNL     1      49.242   6.681  14.891  0.00  0.00    +0.000 HD
BRANCH  20  23
ATOM     23  C   UNL     1      48.789   6.678  17.450  0.00  0.00    +0.000 A 
ATOM     24  C   UNL     1      49.404   6.883  18.681  0.00  0.00    +0.000 A 
ATOM     25  S   UNL     1      49.492   5.487  19.657  0.00  0.00    +0.000 S 
ATOM     26  C   UNL     1      48.717   4.548  18.469  0.00  0.00    +0.000 A 
ATOM     27  N   UNL     1      48.485   3.224  18.674  0.00  0.00    +0.000 NA
ATOM     28  C   UNL     1      47.906   2.624  17.687  0.00  0.00    +0.000 A 
ATOM     29  N   UNL     1      47.534   3.232  16.517  0.00  0.00    +0.000 N 
ATOM     30  C   UNL     1      47.708   4.574  16.288  0.00  0.00    +0.000 A 
ATOM     31  O   UNL     1      47.294   5.101  15.261  0.00  0.00    +0.000 OA
ATOM     32  C   UNL     1      48.388   5.292  17.350  0.00  0.00    +0.000 A 
ATOM     33  H   UNL     1      47.069   2.711  15.789  0.00  0.00    +0.000 HD
ENDBRANCH  20  23
ENDBRANCH   1  19
BRANCH   1  34
ATOM     34  C   UNL     1      50.076   9.031  13.363  0.00  0.00    +0.000 C 
BRANCH  34  36
ATOM     35  N   UNL     1      52.265   8.106  14.504  0.00  0.00    +0.000 NA
ATOM     36  C   UNL     1      51.297   8.514  14.002  0.00  0.00    +0.000 C 
ENDBRANCH  34  36
ENDBRANCH   1  34
TORSDOF 8
ENDMDL
MODEL 5
REMARK VINA RESULT:    -6.851      2.149      3.830
REMARK INTER + INTRA:         -11.351
REMARK INTER:                 -11.187
REMARK INTRA:                  -0.164
REMARK UNBOUND:                -1.296
REMARK  Name = 
REMARK  8 active torsions:
REMARK  status: ('A' for Active; 'I' for Inactive)
REMARK    1  A    between atoms: C_2  and  C_3
REMARK    2  A    between atoms: C_3  and  C_4
REMARK    3  A    between atoms: C_4  and  N_5
REMARK    4  A    between atoms: C_4  and  C_18
REMARK    5  A    between atoms: C_6  and  C_8
REMARK    6  A    between atoms: C_21  and  C_22
REMARK    7  A    between atoms: C_22  and  N_23
REMARK    8  A    between atoms: C_24  and  C_26
REMARK                            x       y       z     vdW  Elec       q    Type
REMARK                         _______ _______ _______ _____ _____    ______ ____
ROOT
ATOM      1  C   UNL     1      47.997   7.693  13.728  0.00  0.00    +0.000 C 
ENDROOT
BRANCH   1   2
ATOM      2  C   UNL     1      46.799   7.000  13.063  0.00  0.00    +0.000 A 
ATOM      3  C   UNL     1      46.027   7.697  12.121  0.00  0.00    +0.000 A 
ATOM      4  C   UNL     1      45.055   7.039  11.353  0.00  0.00    +0.000 A 
ATOM      5  C   UNL     1      44.816   5.668  11.518  0.00  0.00    +0.000 A 
ATOM      6  C   UNL     1      45.527   4.987  12.513  0.00  0.00    +0.000 A 
ATOM      7  C   UNL     1      46.486   5.649  13.293  0.00  0.00    +0.000 A 
BRANCH   5   8
ATOM      8  C   UNL     1      43.811   4.944  10.661  0.00  0.00    +0.000 C 
BRANCH   8   9
ATOM      9  N   UNL     1      44.335   4.511   9.386  0.00  0.00    +0.000 N 
ATOM     10  C   UNL     1      44.836   3.236   9.240  0.00  0.00    +0.000 C 
ATOM     11  O   UNL     1      44.901   2.442  10.180  0.00  0.00    +0.000 OA
ATOM     12  H   UNL     1      44.290   5.099   8.557  0.00  0.00    +0.000 HD
BRANCH  10  13
ATOM     13  C   UNL     1      45.384   2.872   7.860  0.00  0.00    +0.000 C 
ATOM     14  C   UNL     1      46.421   1.767   7.913  0.00  0.00    +0.000 C 
ATOM     15  C   UNL     1      47.046   1.849   6.532  0.00  0.00    +0.000 C 
ATOM     16  C   UNL     1      46.933   3.323   6.154  0.00  0.00    +0.000 C 
ATOM     17  N   UNL     1      46.156   3.967   7.225  0.00  0.00    +0.000 NA
ATOM     18  H   UNL     1      45.516   4.656   6.830  0.00  0.00    +0.000 HD
ENDBRANCH  10  13
ENDBRANCH   8   9
ENDBRANCH   5   8
ENDBRANCH   1   2
BRANCH   1  19
ATOM     19  N   UNL     1      47.905   7.590  15.186  0.00  0.00    +0.000 N 
ATOM     20  C   UNL     1      48.770   6.827  15.943  0.00  0.00    +0.000 C 
ATOM     21  O   UNL     1      49.567   6.059  15.411  0.00  0.00    +0.000 OA
ATOM     22  H   UNL     1      47.423   8.358  15.650  0.00  0.00    +0.000 HD
BRANCH  20  23
ATOM     23  C   UNL     1      48.710   6.948  17.413  0.00  0.00    +0.000 A 
ATOM     24  C   UNL     1      48.692   8.211  17.997  0.00  0.00    +0.000 A 
ATOM     25  S   UNL     1      48.620   8.189  19.701  0.00  0.00    +0.000 S 
ATOM     26  C   UNL     1      48.619   6.489  19.728  0.00  0.00    +0.000 A 
ATOM     27  N   UNL     1      48.578   5.814  20.908  0.00  0.00    +0.000 NA
ATOM     28  C   UNL     1      48.600   4.528  20.789  0.00  0.00    +0.000 A 
ATOM     29  N   UNL     1      48.653   3.858  19.596  0.00  0.00    +0.000 N 
ATOM     30  C   UNL     1      48.649   4.498  18.381  0.00  0.00    +0.000 A 
ATOM     31  O   UNL     1      48.619   3.866  17.330  0.00  0.00    +0.000 OA
ATOM     32  C   UNL     1      48.662   5.947  18.455  0.00  0.00    +0.000 A 
ATOM     33  H   UNL     1      48.650   2.849  19.567  0.00  0.00    +0.000 HD
ENDBRANCH  20  23
ENDBRANCH   1  19
BRANCH   1  34
ATOM     34  C   UNL     1      49.346   7.186  13.153  0.00  0.00    +0.000 C 
BRANCH  34  36
ATOM     35  N   UNL     1      50.401   8.939  11.490  0.00  0.00    +0.000 NA
ATOM     36  C   UNL     1      49.935   8.164  12.222  0.00  0.00    +0.000 C 
ENDBRANCH  34  36
ENDBRANCH   1  34
TORSDOF 8
ENDMDL
MODEL 6
REMARK VINA RESULT:    -6.761      2.971      4.407
REMARK INTER + INTRA:         -11.218
REMARK INTER:                 -10.364
REMARK INTRA:                  -0.854
REMARK UNBOUND:                -1.296
REMARK  Name = 
REMARK  8 active torsions:
REMARK  status: ('A' for Active; 'I' for Inactive)
REMARK    1  A    between atoms: C_2  and  C_3
REMARK    2  A    between atoms: C_3  and  C_4
REMARK    3  A    between atoms: C_4  and  N_5
REMARK    4  A    between atoms: C_4  and  C_18
REMARK    5  A    between atoms: C_6  and  C_8
REMARK    6  A    between atoms: C_21  and  C_22
REMARK    7  A    between atoms: C_22  and  N_23
REMARK    8  A    between atoms: C_24  and  C_26
REMARK                            x       y       z     vdW  Elec       q    Type
REMARK                         _______ _______ _______ _____ _____    ______ ____
ROOT
ATOM      1  C   UNL     1      47.701   7.557  13.987  0.00  0.00    +0.000 C 
ENDROOT
BRANCH   1   2
ATOM      2  C   UNL     1      46.821   6.886  12.923  0.00  0.00    +0.000 A 
ATOM      3  C   UNL     1      46.728   5.486  12.878  0.00  0.00    +0.000 A 
ATOM      4  C   UNL     1      45.786   4.850  12.056  0.00  0.00    +0.000 A 
ATOM      5  C   UNL     1      44.924   5.595  11.241  0.00  0.00    +0.000 A 
ATOM      6  C   UNL     1      45.069   6.987  11.222  0.00  0.00    +0.000 A 
ATOM      7  C   UNL     1      46.023   7.622  12.031  0.00  0.00    +0.000 A 
BRANCH   5   8
ATOM      8  C   UNL     1      43.876   4.922  10.394  0.00  0.00    +0.000 C 
BRANCH   8   9
ATOM      9  N   UNL     1      44.404   3.908   9.508  0.00  0.00    +0.000 N 
ATOM     10  C   UNL     1      45.391   4.228   8.602  0.00  0.00    +0.000 C 
ATOM     11  O   UNL     1      45.824   5.374   8.477  0.00  0.00    +0.000 OA
ATOM     12  H   UNL     1      44.118   2.935   9.572  0.00  0.00    +0.000 HD
BRANCH  10  13
ATOM     13  C   UNL     1      45.877   3.096   7.696  0.00  0.00    +0.000 C 
ATOM     14  C   UNL     1      46.097   1.797   8.445  0.00  0.00    +0.000 C 
ATOM     15  C   UNL     1      46.894   0.982   7.443  0.00  0.00    +0.000 C 
ATOM     16  C   UNL     1      47.688   2.021   6.657  0.00  0.00    +0.000 C 
ATOM     17  N   UNL     1      47.224   3.337   7.126  0.00  0.00    +0.000 NA
ATOM     18  H   UNL     1      47.157   3.986   6.343  0.00  0.00    +0.000 HD
ENDBRANCH  10  13
ENDBRANCH   8   9
ENDBRANCH   5   8
ENDBRANCH   1   2
BRANCH   1  19
ATOM     19  N   UNL     1      48.491   6.554  14.705  0.00  0.00    +0.000 N 
ATOM     20  C   UNL     1      48.745   6.625  16.059  0.00  0.00    +0.000 C 
ATOM     21  O   UNL     1      48.456   7.630  16.706  0.00  0.00    +0.000 OA
ATOM     22  H   UNL     1      48.545   5.638  14.262  0.00  0.00    +0.000 HD
BRANCH  20  23
ATOM     23  C   UNL     1      49.382   5.467  16.716  0.00  0.00    +0.000 A 
ATOM     24  C   UNL     1      48.613   4.353  17.038  0.00  0.00    +0.000 A 
ATOM     25  S   UNL     1      49.489   3.097  17.790  0.00  0.00    +0.000 S 
ATOM     26  C   UNL     1      50.930   3.996  17.724  0.00  0.00    +0.000 A 
ATOM     27  N   UNL     1      52.089   3.486  18.223  0.00  0.00    +0.000 NA
ATOM     28  C   UNL     1      53.106   4.277  18.127  0.00  0.00    +0.000 A 
ATOM     29  N   UNL     1      53.068   5.529  17.572  0.00  0.00    +0.000 N 
ATOM     30  C   UNL     1      51.931   6.063  17.015  0.00  0.00    +0.000 A 
ATOM     31  O   UNL     1      51.951   7.155  16.457  0.00  0.00    +0.000 OA
ATOM     32  C   UNL     1      50.748   5.231  17.128  0.00  0.00    +0.000 A 
ATOM     33  H   UNL     1      53.902   6.094  17.510  0.00  0.00    +0.000 HD
ENDBRANCH  20  23
ENDBRANCH   1  19
BRANCH   1  34
ATOM     34  C   UNL     1      48.553   8.707  13.386  0.00  0.00    +0.000 C 
BRANCH  34  36
ATOM     35  N   UNL     1      51.118   8.100  13.380  0.00  0.00    +0.000 NA
ATOM     36  C   UNL     1      49.985   8.368  13.380  0.00  0.00    +0.000 C 
ENDBRANCH  34  36
ENDBRANCH   1  34
TORSDOF 8
ENDMDL
MODEL 7
REMARK VINA RESULT:    -6.644      3.996      9.050
REMARK INTER + INTRA:         -11.047
REMARK INTER:                  -9.810
REMARK INTRA:                  -1.237
REMARK UNBOUND:                -1.296
REMARK  Name = 
REMARK  8 active torsions:
REMARK  status: ('A' for Active; 'I' for Inactive)
REMARK    1  A    between atoms: C_2  and  C_3
REMARK    2  A    between atoms: C_3  and  C_4
REMARK    3  A    between atoms: C_4  and  N_5
REMARK    4  A    between atoms: C_4  and  C_18
REMARK    5  A    between atoms: C_6  and  C_8
REMARK    6  A    between atoms: C_21  and  C_22
REMARK    7  A    between atoms: C_22  and  N_23
REMARK    8  A    between atoms: C_24  and  C_26
REMARK                            x       y       z     vdW  Elec       q    Type
REMARK                         _______ _______ _______ _____ _____    ______ ____
ROOT
ATOM      1  C   UNL     1      48.318   7.518  14.637  0.00  0.00    +0.000 C 
ENDROOT
BRANCH   1   2
ATOM      2  C   UNL     1      48.656   6.449  15.686  0.00  0.00    +0.000 A 
ATOM      3  C   UNL     1      47.797   5.354  15.866  0.00  0.00    +0.000 A 
ATOM      4  C   UNL     1      48.172   4.266  16.668  0.00  0.00    +0.000 A 
ATOM      5  C   UNL     1      49.408   4.250  17.327  0.00  0.00    +0.000 A 
ATOM      6  C   UNL     1      50.232   5.376  17.215  0.00  0.00    +0.000 A 
ATOM      7  C   UNL     1      49.850   6.472  16.428  0.00  0.00    +0.000 A 
BRANCH   5   8
ATOM      8  C   UNL     1      49.839   3.062  18.148  0.00  0.00    +0.000 C 
BRANCH   8   9
ATOM      9  N   UNL     1      51.273   2.898  18.229  0.00  0.00    +0.000 N 
ATOM     10  C   UNL     1      51.884   1.842  17.590  0.00  0.00    +0.000 C 
ATOM     11  O   UNL     1      51.248   0.985  16.975  0.00  0.00    +0.000 OA
ATOM     12  H   UNL     1      51.867   3.579  18.693  0.00  0.00    +0.000 HD
BRANCH  10  13
ATOM     13  C   UNL     1      53.403   1.739  17.744  0.00  0.00    +0.000 C 
ATOM     14  C   UNL     1      53.966   0.456  17.164  0.00  0.00    +0.000 C 
ATOM     15  C   UNL     1      55.366   0.429  17.750  0.00  0.00    +0.000 C 
ATOM     16  C   UNL     1      55.227   1.138  19.094  0.00  0.00    +0.000 C 
ATOM     17  N   UNL     1      53.845   1.642  19.155  0.00  0.00    +0.000 NA
ATOM     18  H   UNL     1      53.827   2.565  19.588  0.00  0.00    +0.000 HD
ENDBRANCH  10  13
ENDBRANCH   8   9
ENDBRANCH   5   8
ENDBRANCH   1   2
BRANCH   1  19
ATOM     19  N   UNL     1      47.051   7.202  13.974  0.00  0.00    +0.000 N 
ATOM     20  C   UNL     1      46.979   6.685  12.697  0.00  0.00    +0.000 C 
ATOM     21  O   UNL     1      47.978   6.617  11.984  0.00  0.00    +0.000 OA
ATOM     22  H   UNL     1      46.260   7.040  14.594  0.00  0.00    +0.000 HD
BRANCH  20  23
ATOM     23  C   UNL     1      45.669   6.222  12.199  0.00  0.00    +0.000 A 
ATOM     24  C   UNL     1      44.799   7.132  11.607  0.00  0.00    +0.000 A 
ATOM     25  S   UNL     1      43.327   6.449  11.081  0.00  0.00    +0.000 S 
ATOM     26  C   UNL     1      43.790   4.908  11.632  0.00  0.00    +0.000 A 
ATOM     27  N   UNL     1      42.956   3.842  11.493  0.00  0.00    +0.000 NA
ATOM     28  C   UNL     1      43.420   2.735  11.969  0.00  0.00    +0.000 A 
ATOM     29  N   UNL     1      44.645   2.597  12.565  0.00  0.00    +0.000 N 
ATOM     30  C   UNL     1      45.537   3.635  12.684  0.00  0.00    +0.000 A 
ATOM     31  O   UNL     1      46.656   3.460  13.154  0.00  0.00    +0.000 OA
ATOM     32  C   UNL     1      45.052   4.914  12.199  0.00  0.00    +0.000 A 
ATOM     33  H   UNL     1      44.960   1.699  12.902  0.00  0.00    +0.000 HD
ENDBRANCH  20  23
ENDBRANCH   1  19
BRANCH   1  34
ATOM     34  C   UNL     1      48.367   8.948  15.237  0.00  0.00    +0.000 C 
BRANCH  34  36
ATOM     35  N   UNL     1      48.960  10.745  13.402  0.00  0.00    +0.000 NA
ATOM     36  C   UNL     1      48.698   9.950  14.210  0.00  0.00    +0.000 C 
ENDBRANCH  34  36
ENDBRANCH   1  34
TORSDOF 8
ENDMDL
MODEL 8
REMARK VINA RESULT:    -6.500      2.799      5.076
REMARK INTER + INTRA:         -10.836
REMARK INTER:                  -9.606
REMARK INTRA:                  -1.230
REMARK UNBOUND:                -1.296
REMARK  Name = 
REMARK  8 active torsions:
REMARK  status: ('A' for Active; 'I' for Inactive)
REMARK    1  A    between atoms: C_2  and  C_3
REMARK    2  A    between atoms: C_3  and  C_4
REMARK    3  A    between atoms: C_4  and  N_5
REMARK    4  A    between atoms: C_4  and  C_18
REMARK    5  A    between atoms: C_6  and  C_8
REMARK    6  A    between atoms: C_21  and  C_22
REMARK    7  A    between atoms: C_22  and  N_23
REMARK    8  A    between atoms: C_24  and  C_26
REMARK                            x       y       z     vdW  Elec       q    Type
REMARK                         _______ _______ _______ _____ _____    ______ ____
ROOT
ATOM      1  C   UNL     1      49.256   8.130  15.082  0.00  0.00    +0.000 C 
ENDROOT
BRANCH   1   2
ATOM      2  C   UNL     1      48.120   7.922  14.069  0.00  0.00    +0.000 A 
ATOM      3  C   UNL     1      48.003   6.696  13.396  0.00  0.00    +0.000 A 
ATOM      4  C   UNL     1      46.873   6.402  12.620  0.00  0.00    +0.000 A 
ATOM      5  C   UNL     1      45.836   7.334  12.478  0.00  0.00    +0.000 A 
ATOM      6  C   UNL     1      45.987   8.589  13.080  0.00  0.00    +0.000 A 
ATOM      7  C   UNL     1      47.125   8.889  13.842  0.00  0.00    +0.000 A 
BRANCH   5   8
ATOM      8  C   UNL     1      44.596   7.007  11.688  0.00  0.00    +0.000 C 
BRANCH   8   9
ATOM      9  N   UNL     1      44.815   6.046  10.630  0.00  0.00    +0.000 N 
ATOM     10  C   UNL     1      43.966   4.970  10.488  0.00  0.00    +0.000 C 
ATOM     11  O   UNL     1      43.034   4.758  11.264  0.00  0.00    +0.000 OA
ATOM     12  H   UNL     1      45.545   6.168   9.934  0.00  0.00    +0.000 HD
BRANCH  10  13
ATOM     13  C   UNL     1      44.284   3.997   9.351  0.00  0.00    +0.000 C 
ATOM     14  C   UNL     1      45.024   2.761   9.826  0.00  0.00    +0.000 C 
ATOM     15  C   UNL     1      45.523   2.168   8.521  0.00  0.00    +0.000 C 
ATOM     16  C   UNL     1      45.735   3.377   7.613  0.00  0.00    +0.000 C 
ATOM     17  N   UNL     1      45.236   4.545   8.357  0.00  0.00    +0.000 NA
ATOM     18  H   UNL     1      44.749   5.181   7.725  0.00  0.00    +0.000 HD
ENDBRANCH  10  13
ENDBRANCH   8   9
ENDBRANCH   5   8
ENDBRANCH   1   2
BRANCH   1  19
ATOM     19  N   UNL     1      49.743   6.841  15.576  0.00  0.00    +0.000 N 
ATOM     20  C   UNL     1      49.308   6.274  16.757  0.00  0.00    +0.000 C 
ATOM     21  O   UNL     1      48.604   6.907  17.541  0.00  0.00    +0.000 OA
ATOM     22  H   UNL     1      50.134   6.219  14.870  0.00  0.00    +0.000 HD
BRANCH  20  23
ATOM     23  C   UNL     1      49.715   4.889  17.063  0.00  0.00    +0.000 A 
ATOM     24  C   UNL     1      48.757   3.880  17.078  0.00  0.00    +0.000 A 
ATOM     25  S   UNL     1      49.378   2.335  17.445  0.00  0.00    +0.000 S 
ATOM     26  C   UNL     1      50.954   2.953  17.608  0.00  0.00    +0.000 A 
ATOM     27  N   UNL     1      51.991   2.134  17.933  0.00  0.00    +0.000 NA
ATOM     28  C   UNL     1      53.130   2.733  18.043  0.00  0.00    +0.000 A 
ATOM     29  N   UNL     1      53.325   4.075  17.852  0.00  0.00    +0.000 N 
ATOM     30  C   UNL     1      52.317   4.929  17.478  0.00  0.00    +0.000 A 
ATOM     31  O   UNL     1      52.542   6.111  17.241  0.00  0.00    +0.000 OA
ATOM     32  C   UNL     1      51.006   4.316  17.375  0.00  0.00    +0.000 A 
ATOM     33  H   UNL     1      54.246   4.482  17.936  0.00  0.00    +0.000 HD
ENDBRANCH  20  23
ENDBRANCH   1  19
BRANCH   1  34
ATOM     34  C   UNL     1      50.374   9.042  14.512  0.00  0.00    +0.000 C 
BRANCH  34  36
ATOM     35  N   UNL     1      50.456  11.360  15.764  0.00  0.00    +0.000 NA
ATOM     36  C   UNL     1      50.421  10.336  15.213  0.00  0.00    +0.000 C 
ENDBRANCH  34  36
ENDBRANCH   1  34
TORSDOF 8
ENDMDL
MODEL 9
REMARK VINA RESULT:    -6.262      2.651      3.856
REMARK INTER + INTRA:         -10.486
REMARK INTER:                  -9.862
REMARK INTRA:                  -0.625
REMARK UNBOUND:                -1.296
REMARK  Name = 
REMARK  8 active torsions:
REMARK  status: ('A' for Active; 'I' for Inactive)
REMARK    1  A    between atoms: C_2  and  C_3
REMARK    2  A    between atoms: C_3  and  C_4
REMARK    3  A    between atoms: C_4  and  N_5
REMARK    4  A    between atoms: C_4  and  C_18
REMARK    5  A    between atoms: C_6  and  C_8
REMARK    6  A    between atoms: C_21  and  C_22
REMARK    7  A    between atoms: C_22  and  N_23
REMARK    8  A    between atoms: C_24  and  C_26
REMARK                            x       y       z     vdW  Elec       q    Type
REMARK                         _______ _______ _______ _____ _____    ______ ____
ROOT
ATOM      1  C   UNL     1      47.138   8.120  13.471  0.00  0.00    +0.000 C 
ENDROOT
BRANCH   1   2
ATOM      2  C   UNL     1      46.332   7.103  12.650  0.00  0.00    +0.000 A 
ATOM      3  C   UNL     1      45.125   6.598  13.157  0.00  0.00    +0.000 A 
ATOM      4  C   UNL     1      44.270   5.827  12.356  0.00  0.00    +0.000 A 
ATOM      5  C   UNL     1      44.608   5.522  11.030  0.00  0.00    +0.000 A 
ATOM      6  C   UNL     1      45.849   5.955  10.548  0.00  0.00    +0.000 A 
ATOM      7  C   UNL     1      46.711   6.711  11.354  0.00  0.00    +0.000 A 
BRANCH   5   8
ATOM      8  C   UNL     1      43.672   4.738  10.148  0.00  0.00    +0.000 C 
BRANCH   8   9
ATOM      9  N   UNL     1      44.278   4.276   8.920  0.00  0.00    +0.000 N 
ATOM     10  C   UNL     1      44.896   3.046   8.874  0.00  0.00    +0.000 C 
ATOM     11  O   UNL     1      44.999   2.322   9.866  0.00  0.00    +0.000 OA
ATOM     12  H   UNL     1      44.208   4.803   8.054  0.00  0.00    +0.000 HD
BRANCH  10  13
ATOM     13  C   UNL     1      45.522   2.646   7.537  0.00  0.00    +0.000 C 
ATOM     14  C   UNL     1      46.662   1.658   7.695  0.00  0.00    +0.000 C 
ATOM     15  C   UNL     1      47.320   1.711   6.328  0.00  0.00    +0.000 C 
ATOM     16  C   UNL     1      47.072   3.136   5.844  0.00  0.00    +0.000 C 
ATOM     17  N   UNL     1      46.201   3.768   6.847  0.00  0.00    +0.000 NA
ATOM     18  H   UNL     1      45.509   4.361   6.388  0.00  0.00    +0.000 HD
ENDBRANCH  10  13
ENDBRANCH   8   9
ENDBRANCH   5   8
ENDBRANCH   1   2
BRANCH   1  19
ATOM     19  N   UNL     1      47.479   7.564  14.782  0.00  0.00    +0.000 N 
ATOM     20  C   UNL     1      48.578   6.757  14.994  0.00  0.00    +0.000 C 
ATOM     21  O   UNL     1      49.238   6.326  14.051  0.00  0.00    +0.000 OA
ATOM     22  H   UNL     1      47.101   8.067  15.584  0.00  0.00    +0.000 HD
BRANCH  20  23
ATOM     23  C   UNL     1      48.939   6.413  16.383  0.00  0.00    +0.000 A 
ATOM     24  C   UNL     1      48.644   5.144  16.874  0.00  0.00    +0.000 A 
ATOM     25  S   UNL     1      49.124   4.896  18.492  0.00  0.00    +0.000 S 
ATOM     26  C   UNL     1      49.738   6.477  18.605  0.00  0.00    +0.000 A 
ATOM     27  N   UNL     1      50.297   6.923  19.762  0.00  0.00    +0.000 NA
ATOM     28  C   UNL     1      50.707   8.147  19.720  0.00  0.00    +0.000 A 
ATOM     29  N   UNL     1      50.613   8.962  18.623  0.00  0.00    +0.000 N 
ATOM     30  C   UNL     1      50.099   8.538  17.422  0.00  0.00    +0.000 A 
ATOM     31  O   UNL     1      50.101   9.269  16.437  0.00  0.00    +0.000 OA
ATOM     32  C   UNL     1      49.588   7.180  17.422  0.00  0.00    +0.000 A 
ATOM     33  H   UNL     1      50.969   9.906  18.647  0.00  0.00    +0.000 HD
ENDBRANCH  20  23
ENDBRANCH   1  19
BRANCH   1  34
ATOM     34  C   UNL     1      48.363   8.654  12.683  0.00  0.00    +0.000 C 
BRANCH  34  36
ATOM     35  N   UNL     1      48.531  11.281  12.826  0.00  0.00    +0.000 NA
ATOM     36  C   UNL     1      48.454  10.122  12.762  0.00  0.00    +0.000 C 
ENDBRANCH  34  36
ENDBRANCH   1  34
TORSDOF 8
ENDMDL
