MODEL 1
REMARK VINA RESULT:    -8.077      0.000      0.000
REMARK INTER + INTRA:         -12.067
REMARK INTER:                 -10.910
REMARK INTRA:                  -1.157
REMARK UNBOUND:                -1.157
REMARK  Name = 
REMARK  6 active torsions:
REMARK  status: ('A' for Active; 'I' for Inactive)
REMARK    1  A    between atoms: C_2  and  C_25
REMARK    2  A    between atoms: N_3  and  C_4
REMARK    3  A    between atoms: C_4  and  C_5
REMARK    4  A    between atoms: C_8  and  C_9
REMARK    5  A    between atoms: C_9  and  N_10
REMARK    6  A    between atoms: C_11  and  C_13
REMARK                            x       y       z     vdW  Elec       q    Type
REMARK                         _______ _______ _______ _____ _____    ______ ____
ROOT
ATOM      1  C   UNL     1      44.882   5.748  10.854  0.00  0.00    +0.000 A 
ATOM      2  C   UNL     1      44.300   6.240  12.030  0.00  0.00    +0.000 A 
ATOM      3  C   UNL     1      45.030   7.056  12.902  0.00  0.00    +0.000 A 
ATOM      4  C   UNL     1      46.352   7.415  12.606  0.00  0.00    +0.000 A 
ATOM      5  C   UNL     1      46.932   6.927  11.427  0.00  0.00    +0.000 A 
ATOM      6  C   UNL     1      46.201   6.113  10.555  0.00  0.00    +0.000 A 
ENDROOT
BRANCH   1   7
ATOM      7  C   UNL     1      44.126   4.803   9.961  0.00  0.00    +0.000 C 
BRANCH   7  10
ATOM      8  O   UNL     1      45.113   2.189   9.817  0.00  0.00    +0.000 OA
ATOM      9  C   UNL     1      45.338   2.977   8.909  0.00  0.00    +0.000 C 
ATOM     10  N   UNL     1      44.901   4.281   8.867  0.00  0.00    +0.000 N 
ATOM     11  H   UNL     1      45.140   4.849   8.058  0.00  0.00    +0.000 HD
BRANCH   9  12
ATOM     12  C   UNL     1      46.155   2.523   7.736  0.00  0.00    +0.000 C 
ATOM     13  C   UNL     1      46.352   3.364   6.543  0.00  0.00    +0.000 C 
ATOM     14  C   UNL     1      47.189   2.564   5.710  0.00  0.00    +0.000 C 
ATOM     15  C   UNL     1      47.401   1.431   6.397  0.00  0.00    +0.000 C 
ATOM     16  N   UNL     1      46.782   1.371   7.641  0.00  0.00    +0.000 NA
ENDBRANCH   9  12
ENDBRANCH   7  10
ENDBRANCH   1   7
BRANCH   4  17
ATOM     17  C   UNL     1      47.152   8.277  13.550  0.00  0.00    +0.000 C 
BRANCH  17  18
ATOM     18  N   UNL     1      47.573   7.540  14.717  0.00  0.00    +0.000 N 
ATOM     19  C   UNL     1      48.783   6.893  14.743  0.00  0.00    +0.000 C 
ATOM     20  O   UNL     1      49.575   6.955  13.808  0.00  0.00    +0.000 OA
ATOM     21  H   UNL     1      46.857   7.296  15.392  0.00  0.00    +0.000 HD
BRANCH  19  22
ATOM     22  C   UNL     1      49.117   6.173  15.981  0.00  0.00    +0.000 A 
ATOM     23  C   UNL     1      50.208   6.581  16.740  0.00  0.00    +0.000 A 
ATOM     24  S   UNL     1      50.428   5.677  18.167  0.00  0.00    +0.000 S 
ATOM     25  C   UNL     1      49.109   4.668  17.798  0.00  0.00    +0.000 A 
ATOM     26  N   UNL     1      48.763   3.641  18.619  0.00  0.00    +0.000 NA
ATOM     27  C   UNL     1      47.772   2.932  18.196  0.00  0.00    +0.000 A 
ATOM     28  N   UNL     1      47.088   3.161  17.030  0.00  0.00    +0.000 N 
ATOM     29  C   UNL     1      47.376   4.211  16.191  0.00  0.00    +0.000 A 
ATOM     30  O   UNL     1      46.709   4.421  15.182  0.00  0.00    +0.000 OA
ATOM     31  C   UNL     1      48.497   5.030  16.610  0.00  0.00    +0.000 A 
ATOM     32  H   UNL     1      46.313   2.574  16.761  0.00  0.00    +0.000 HD
ENDBRANCH  19  22
ENDBRANCH  17  18
ENDBRANCH   4  17
TORSDOF 6
ENDMDL
MODEL 2
REMARK VINA RESULT:    -7.578      1.936      2.314
REMARK INTER + INTRA:         -11.393
REMARK INTER:                 -10.385
REMARK INTRA:                  -1.008
REMARK UNBOUND:                -1.157
REMARK  Name = 
REMARK  6 active torsions:
REMARK  status: ('A' for Active; 'I' for Inactive)
REMARK    1  A    between atoms: C_2  and  C_25
REMARK    2  A    between atoms: N_3  and  C_4
REMARK    3  A    between atoms: C_4  and  C_5
REMARK    4  A    between atoms: C_8  and  C_9
REMARK    5  A    between atoms: C_9  and  N_10
REMARK    6  A    between atoms: C_11  and  C_13
REMARK                            x       y       z     vdW  Elec       q    Type
REMARK                         _______ _______ _______ _____ _____    ______ ____
ROOT
ATOM      1  C   UNL     1      44.505   5.143  11.539  0.00  0.00    +0.000 A 
ATOM      2  C   UNL     1      45.582   5.003  12.425  0.00  0.00    +0.000 A 
ATOM      3  C   UNL     1      46.250   6.129  12.920  0.00  0.00    +0.000 A 
ATOM      4  C   UNL     1      45.842   7.419  12.557  0.00  0.00    +0.000 A 
ATOM      5  C   UNL     1      44.762   7.559  11.674  0.00  0.00    +0.000 A 
ATOM      6  C   UNL     1      44.094   6.434  11.181  0.00  0.00    +0.000 A 
ENDROOT
BRANCH   1   7
ATOM      7  C   UNL     1      43.842   3.933  10.940  0.00  0.00    +0.000 C 
BRANCH   7  10
ATOM      8  O   UNL     1      44.603   4.358   8.281  0.00  0.00    +0.000 OA
ATOM      9  C   UNL     1      45.031   3.388   8.891  0.00  0.00    +0.000 C 
ATOM     10  N   UNL     1      44.732   3.080  10.199  0.00  0.00    +0.000 N 
ATOM     11  H   UNL     1      45.151   2.251  10.612  0.00  0.00    +0.000 HD
BRANCH   9  12
ATOM     12  C   UNL     1      45.953   2.434   8.190  0.00  0.00    +0.000 C 
ATOM     13  C   UNL     1      46.939   2.883   7.194  0.00  0.00    +0.000 C 
ATOM     14  C   UNL     1      47.594   1.676   6.809  0.00  0.00    +0.000 C 
ATOM     15  C   UNL     1      47.009   0.707   7.528  0.00  0.00    +0.000 C 
ATOM     16  N   UNL     1      45.999   1.134   8.383  0.00  0.00    +0.000 NA
ENDBRANCH   9  12
ENDBRANCH   7  10
ENDBRANCH   1   7
BRANCH   4  17
ATOM     17  C   UNL     1      46.570   8.637  13.070  0.00  0.00    +0.000 C 
BRANCH  17  18
ATOM     18  N   UNL     1      47.018   8.455  14.430  0.00  0.00    +0.000 N 
ATOM     19  C   UNL     1      48.138   9.098  14.894  0.00  0.00    +0.000 C 
ATOM     20  O   UNL     1      48.770   9.889  14.199  0.00  0.00    +0.000 OA
ATOM     21  H   UNL     1      46.652   7.655  14.934  0.00  0.00    +0.000 HD
BRANCH  19  22
ATOM     22  C   UNL     1      48.509   8.847  16.295  0.00  0.00    +0.000 A 
ATOM     23  C   UNL     1      48.556   9.907  17.193  0.00  0.00    +0.000 A 
ATOM     24  S   UNL     1      48.951   9.441  18.784  0.00  0.00    +0.000 S 
ATOM     25  C   UNL     1      49.130   7.813  18.322  0.00  0.00    +0.000 A 
ATOM     26  N   UNL     1      49.494   6.866  19.226  0.00  0.00    +0.000 NA
ATOM     27  C   UNL     1      49.635   5.683  18.731  0.00  0.00    +0.000 A 
ATOM     28  N   UNL     1      49.435   5.358  17.414  0.00  0.00    +0.000 N 
ATOM     29  C   UNL     1      49.026   6.274  16.474  0.00  0.00    +0.000 A 
ATOM     30  O   UNL     1      48.803   5.939  15.314  0.00  0.00    +0.000 OA
ATOM     31  C   UNL     1      48.872   7.626  16.975  0.00  0.00    +0.000 A 
ATOM     32  H   UNL     1      49.552   4.409  17.092  0.00  0.00    +0.000 HD
ENDBRANCH  19  22
ENDBRANCH  17  18
ENDBRANCH   4  17
TORSDOF 6
ENDMDL
MODEL 3
REMARK VINA RESULT:    -7.185      4.668      9.486
REMARK INTER + INTRA:         -10.862
REMARK INTER:                 -10.116
REMARK INTRA:                  -0.746
REMARK UNBOUND:                -1.157
REMARK  Name = 
REMARK  6 active torsions:
REMARK  status: ('A' for Active; 'I' for Inactive)
REMARK    1  A    between atoms: C_2  and  C_25
REMARK    2  A    between atoms: N_3  and  C_4
REMARK    3  A    between atoms: C_4  and  C_5
REMARK    4  A    between atoms: C_8  and  C_9
REMARK    5  A    between atoms: C_9  and  N_10
REMARK    6  A    between atoms: C_11  and  C_13
REMARK                            x       y       z     vdW  Elec       q    Type
REMARK                         _______ _______ _______ _____ _____    ______ ____
ROOT
ATOM      1  C   UNL     1      51.399   3.039  17.766  0.00  0.00    +0.000 A 
ATOM      2  C   UNL     1      50.694   1.989  17.163  0.00  0.00    +0.000 A 
ATOM      3  C   UNL     1      49.323   2.106  16.903  0.00  0.00    +0.000 A 
ATOM      4  C   UNL     1      48.634   3.284  17.220  0.00  0.00    +0.000 A 
ATOM      5  C   UNL     1      49.341   4.336  17.819  0.00  0.00    +0.000 A 
ATOM      6  C   UNL     1      50.710   4.219  18.077  0.00  0.00    +0.000 A 
ENDROOT
BRANCH   1   7
ATOM      7  C   UNL     1      52.852   2.882  18.124  0.00  0.00    +0.000 C 
BRANCH   7  10
ATOM      8  O   UNL     1      54.614   1.157  16.801  0.00  0.00    +0.000 OA
ATOM      9  C   UNL     1      54.081   0.804  17.845  0.00  0.00    +0.000 C 
ATOM     10  N   UNL     1      53.206   1.566  18.583  0.00  0.00    +0.000 N 
ATOM     11  H   UNL     1      52.826   1.177  19.442  0.00  0.00    +0.000 HD
BRANCH   9  12
ATOM     12  C   UNL     1      54.379  -0.562  18.389  0.00  0.00    +0.000 C 
ATOM     13  C   UNL     1      54.914  -1.644  17.546  0.00  0.00    +0.000 C 
ATOM     14  C   UNL     1      55.059  -2.732  18.457  0.00  0.00    +0.000 C 
ATOM     15  C   UNL     1      54.642  -2.263  19.643  0.00  0.00    +0.000 C 
ATOM     16  N   UNL     1      54.216  -0.940  19.638  0.00  0.00    +0.000 NA
ENDBRANCH   9  12
ENDBRANCH   7  10
ENDBRANCH   1   7
BRANCH   4  17
ATOM     17  C   UNL     1      47.153   3.411  16.961  0.00  0.00    +0.000 C 
BRANCH  17  18
ATOM     18  N   UNL     1      46.871   4.416  15.964  0.00  0.00    +0.000 N 
ATOM     19  C   UNL     1      47.013   4.141  14.627  0.00  0.00    +0.000 C 
ATOM     20  O   UNL     1      47.330   3.027  14.221  0.00  0.00    +0.000 OA
ATOM     21  H   UNL     1      46.828   5.379  16.278  0.00  0.00    +0.000 HD
BRANCH  19  22
ATOM     22  C   UNL     1      46.698   5.233  13.694  0.00  0.00    +0.000 A 
ATOM     23  C   UNL     1      47.647   6.219  13.444  0.00  0.00    +0.000 A 
ATOM     24  S   UNL     1      47.146   7.380  12.303  0.00  0.00    +0.000 S 
ATOM     25  C   UNL     1      45.621   6.645  12.140  0.00  0.00    +0.000 A 
ATOM     26  N   UNL     1      44.675   7.168  11.316  0.00  0.00    +0.000 NA
ATOM     27  C   UNL     1      43.551   6.535  11.322  0.00  0.00    +0.000 A 
ATOM     28  N   UNL     1      43.288   5.419  12.073  0.00  0.00    +0.000 N 
ATOM     29  C   UNL     1      44.226   4.830  12.889  0.00  0.00    +0.000 A 
ATOM     30  O   UNL     1      43.976   3.799  13.506  0.00  0.00    +0.000 OA
ATOM     31  C   UNL     1      45.503   5.515  12.933  0.00  0.00    +0.000 A 
ATOM     32  H   UNL     1      42.389   4.963  12.025  0.00  0.00    +0.000 HD
ENDBRANCH  19  22
ENDBRANCH  17  18
ENDBRANCH   4  17
TORSDOF 6
ENDMDL
MODEL 4
REMARK VINA RESULT:    -7.030      2.008      2.653
REMARK INTER + INTRA:         -10.652
REMARK INTER:                  -9.850
REMARK INTRA:                  -0.802
REMARK UNBOUND:                -1.157
REMARK  Name = 
REMARK  6 active torsions:
REMARK  status: ('A' for Active; 'I' for Inactive)
REMARK    1  A    between atoms: C_2  and  C_25
REMARK    2  A    between atoms: N_3  and  C_4
REMARK    3  A    between atoms: C_4  and  C_5
REMARK    4  A    between atoms: C_8  and  C_9
REMARK    5  A    between atoms: C_9  and  N_10
REMARK    6  A    between atoms: C_11  and  C_13
REMARK                            x       y       z     vdW  Elec       q    Type
REMARK                         _______ _______ _______ _____ _____    ______ ____
ROOT
ATOM      1  C   UNL     1      45.063   5.070  11.648  0.00  0.00    +0.000 A 
ATOM      2  C   UNL     1      45.680   4.493  12.766  0.00  0.00    +0.000 A 
ATOM      3  C   UNL     1      46.558   5.238  13.562  0.00  0.00    +0.000 A 
ATOM      4  C   UNL     1      46.822   6.583  13.269  0.00  0.00    +0.000 A 
ATOM      5  C   UNL     1      46.201   7.161  12.153  0.00  0.00    +0.000 A 
ATOM      6  C   UNL     1      45.322   6.417  11.359  0.00  0.00    +0.000 A 
ENDROOT
BRANCH   1   7
ATOM      7  C   UNL     1      44.187   4.247  10.744  0.00  0.00    +0.000 C 
BRANCH   7  10
ATOM      8  O   UNL     1      45.347   4.614   8.224  0.00  0.00    +0.000 OA
ATOM      9  C   UNL     1      45.415   3.524   8.775  0.00  0.00    +0.000 C 
ATOM     10  N   UNL     1      44.890   3.228  10.012  0.00  0.00    +0.000 N 
ATOM     11  H   UNL     1      45.011   2.289  10.380  0.00  0.00    +0.000 HD
BRANCH   9  12
ATOM     12  C   UNL     1      46.115   2.397   8.075  0.00  0.00    +0.000 C 
ATOM     13  C   UNL     1      47.049   2.623   6.960  0.00  0.00    +0.000 C 
ATOM     14  C   UNL     1      47.482   1.307   6.620  0.00  0.00    +0.000 C 
ATOM     15  C   UNL     1      46.841   0.489   7.467  0.00  0.00    +0.000 C 
ATOM     16  N   UNL     1      45.994   1.121   8.371  0.00  0.00    +0.000 NA
ENDBRANCH   9  12
ENDBRANCH   7  10
ENDBRANCH   1   7
BRANCH   4  17
ATOM     17  C   UNL     1      47.782   7.386  14.110  0.00  0.00    +0.000 C 
BRANCH  17  18
ATOM     18  N   UNL     1      48.297   6.614  15.215  0.00  0.00    +0.000 N 
ATOM     19  C   UNL     1      48.655   7.222  16.392  0.00  0.00    +0.000 C 
ATOM     20  O   UNL     1      48.505   8.427  16.575  0.00  0.00    +0.000 OA
ATOM     21  H   UNL     1      48.631   5.679  15.009  0.00  0.00    +0.000 HD
BRANCH  19  22
ATOM     22  C   UNL     1      49.166   6.345  17.456  0.00  0.00    +0.000 A 
ATOM     23  C   UNL     1      48.311   5.926  18.470  0.00  0.00    +0.000 A 
ATOM     24  S   UNL     1      49.044   4.875  19.594  0.00  0.00    +0.000 S 
ATOM     25  C   UNL     1      50.546   4.985  18.803  0.00  0.00    +0.000 A 
ATOM     26  N   UNL     1      51.637   4.330  19.279  0.00  0.00    +0.000 NA
ATOM     27  C   UNL     1      52.719   4.536  18.607  0.00  0.00    +0.000 A 
ATOM     28  N   UNL     1      52.807   5.333  17.495  0.00  0.00    +0.000 N 
ATOM     29  C   UNL     1      51.723   5.982  16.953  0.00  0.00    +0.000 A 
ATOM     30  O   UNL     1      51.825   6.643  15.925  0.00  0.00    +0.000 OA
ATOM     31  C   UNL     1      50.483   5.799  17.684  0.00  0.00    +0.000 A 
ATOM     32  H   UNL     1      53.684   5.444  17.007  0.00  0.00    +0.000 HD
ENDBRANCH  19  22
ENDBRANCH  17  18
ENDBRANCH   4  17
TORSDOF 6
ENDMDL
MODEL 5
REMARK VINA RESULT:    -6.807      3.488      8.196
REMARK INTER + INTRA:         -10.352
REMARK INTER:                  -9.440
REMARK INTRA:                  -0.912
REMARK UNBOUND:                -1.157
REMARK  Name = 
REMARK  6 active torsions:
REMARK  status: ('A' for Active; 'I' for Inactive)
REMARK    1  A    between atoms: C_2  and  C_25
REMARK    2  A    between atoms: N_3  and  C_4
REMARK    3  A    between atoms: C_4  and  C_5
REMARK    4  A    between atoms: C_8  and  C_9
REMARK    5  A    between atoms: C_9  and  N_10
REMARK    6  A    between atoms: C_11  and  C_13
REMARK                            x       y       z     vdW  Elec       q    Type
REMARK                         _______ _______ _______ _____ _____    ______ ____
ROOT
ATOM      1  C   UNL     1      49.796   6.622  16.249  0.00  0.00    +0.000 A 
ATOM      2  C   UNL     1      50.604   7.430  15.438  0.00  0.00    +0.000 A 
ATOM      3  C   UNL     1      50.188   7.791  14.151  0.00  0.00    +0.000 A 
ATOM      4  C   UNL     1      48.947   7.370  13.656  0.00  0.00    +0.000 A 
ATOM      5  C   UNL     1      48.137   6.567  14.470  0.00  0.00    +0.000 A 
ATOM      6  C   UNL     1      48.551   6.207  15.756  0.00  0.00    +0.000 A 
ENDROOT
BRANCH   1   7
ATOM      7  C   UNL     1      50.278   6.163  17.598  0.00  0.00    +0.000 C 
BRANCH   7  10
ATOM      8  O   UNL     1      49.376   3.528  17.860  0.00  0.00    +0.000 OA
ATOM      9  C   UNL     1      50.568   3.752  17.702  0.00  0.00    +0.000 C 
ATOM     10  N   UNL     1      51.125   5.001  17.556  0.00  0.00    +0.000 N 
ATOM     11  H   UNL     1      52.130   5.073  17.422  0.00  0.00    +0.000 HD
BRANCH   9  12
ATOM     12  C   UNL     1      51.527   2.600  17.664  0.00  0.00    +0.000 C 
ATOM     13  C   UNL     1      52.930   2.731  18.091  0.00  0.00    +0.000 C 
ATOM     14  C   UNL     1      53.455   1.417  17.909  0.00  0.00    +0.000 C 
ATOM     15  C   UNL     1      52.434   0.686  17.438  0.00  0.00    +0.000 C 
ATOM     16  N   UNL     1      51.239   1.377  17.273  0.00  0.00    +0.000 NA
ENDBRANCH   9  12
ENDBRANCH   7  10
ENDBRANCH   1   7
BRANCH   4  17
ATOM     17  C   UNL     1      48.500   7.739  12.263  0.00  0.00    +0.000 C 
BRANCH  17  18
ATOM     18  N   UNL     1      47.735   6.679  11.651  0.00  0.00    +0.000 N 
ATOM     19  C   UNL     1      46.382   6.808  11.460  0.00  0.00    +0.000 C 
ATOM     20  O   UNL     1      45.779   7.837  11.747  0.00  0.00    +0.000 OA
ATOM     21  H   UNL     1      48.163   5.761  11.616  0.00  0.00    +0.000 HD
BRANCH  19  22
ATOM     22  C   UNL     1      45.696   5.672  10.826  0.00  0.00    +0.000 A 
ATOM     23  C   UNL     1      45.777   5.503   9.448  0.00  0.00    +0.000 A 
ATOM     24  S   UNL     1      44.973   4.113   8.880  0.00  0.00    +0.000 S 
ATOM     25  C   UNL     1      44.437   3.714  10.444  0.00  0.00    +0.000 A 
ATOM     26  N   UNL     1      43.656   2.622  10.659  0.00  0.00    +0.000 NA
ATOM     27  C   UNL     1      43.287   2.463  11.885  0.00  0.00    +0.000 A 
ATOM     28  N   UNL     1      43.635   3.293  12.919  0.00  0.00    +0.000 N 
ATOM     29  C   UNL     1      44.455   4.385  12.757  0.00  0.00    +0.000 A 
ATOM     30  O   UNL     1      44.793   5.076  13.713  0.00  0.00    +0.000 OA
ATOM     31  C   UNL     1      44.883   4.620  11.391  0.00  0.00    +0.000 A 
ATOM     32  H   UNL     1      43.321   3.107  13.860  0.00  0.00    +0.000 HD
ENDBRANCH  19  22
ENDBRANCH  17  18
ENDBRANCH   4  17
TORSDOF 6
ENDMDL
MODEL 6
REMARK VINA RESULT:    -6.752      3.525      4.788
REMARK INTER + INTRA:         -10.277
REMARK INTER:                  -9.228
REMARK INTRA:                  -1.049
REMARK UNBOUND:                -1.157
REMARK  Name = 
REMARK  6 active torsions:
REMARK  status: ('A' for Active; 'I' for Inactive)
REMARK    1  A    between atoms: C_2  and  C_25
REMARK    2  A    between atoms: N_3  and  C_4
REMARK    3  A    between atoms: C_4  and  C_5
REMARK    4  A    between atoms: C_8  and  C_9
REMARK    5  A    between atoms: C_9  and  N_10
REMARK    6  A    between atoms: C_11  and  C_13
REMARK                            x       y       z     vdW  Elec       q    Type
REMARK                         _______ _______ _______ _____ _____    ______ ____
ROOT
ATOM      1  C   UNL     1      44.760   5.112  11.577  0.00  0.00    +0.000 A 
ATOM      2  C   UNL     1      45.742   4.690  12.482  0.00  0.00    +0.000 A 
ATOM      3  C   UNL     1      46.561   5.620  13.134  0.00  0.00    +0.000 A 
ATOM      4  C   UNL     1      46.400   6.994  12.909  0.00  0.00    +0.000 A 
ATOM      5  C   UNL     1      45.414   7.416  12.008  0.00  0.00    +0.000 A 
ATOM      6  C   UNL     1      44.595   6.487  11.359  0.00  0.00    +0.000 A 
ENDROOT
BRANCH   1   7
ATOM      7  C   UNL     1      43.938   4.110  10.814  0.00  0.00    +0.000 C 
BRANCH   7  10
ATOM      8  O   UNL     1      45.097   4.614   8.317  0.00  0.00    +0.000 OA
ATOM      9  C   UNL     1      45.233   3.518   8.844  0.00  0.00    +0.000 C 
ATOM     10  N   UNL     1      44.715   3.158  10.067  0.00  0.00    +0.000 N 
ATOM     11  H   UNL     1      44.896   2.221  10.415  0.00  0.00    +0.000 HD
BRANCH   9  12
ATOM     12  C   UNL     1      46.015   2.457   8.127  0.00  0.00    +0.000 C 
ATOM     13  C   UNL     1      46.896   2.765   6.988  0.00  0.00    +0.000 C 
ATOM     14  C   UNL     1      47.439   1.493   6.638  0.00  0.00    +0.000 C 
ATOM     15  C   UNL     1      46.896   0.622   7.502  0.00  0.00    +0.000 C 
ATOM     16  N   UNL     1      46.018   1.176   8.427  0.00  0.00    +0.000 NA
ENDBRANCH   9  12
ENDBRANCH   7  10
ENDBRANCH   1   7
BRANCH   4  17
ATOM     17  C   UNL     1      47.291   8.002  13.592  0.00  0.00    +0.000 C 
BRANCH  17  18
ATOM     18  N   UNL     1      48.673   7.835  13.211  0.00  0.00    +0.000 N 
ATOM     19  C   UNL     1      49.200   8.529  12.151  0.00  0.00    +0.000 C 
ATOM     20  O   UNL     1      48.544   9.354  11.522  0.00  0.00    +0.000 OA
ATOM     21  H   UNL     1      49.154   7.015  13.564  0.00  0.00    +0.000 HD
BRANCH  19  22
ATOM     22  C   UNL     1      50.619   8.289  11.847  0.00  0.00    +0.000 A 
ATOM     23  C   UNL     1      50.969   7.657  10.658  0.00  0.00    +0.000 A 
ATOM     24  S   UNL     1      52.650   7.501  10.434  0.00  0.00    +0.000 S 
ATOM     25  C   UNL     1      52.975   8.219  11.941  0.00  0.00    +0.000 A 
ATOM     26  N   UNL     1      54.251   8.368  12.385  0.00  0.00    +0.000 NA
ATOM     27  C   UNL     1      54.350   8.888  13.562  0.00  0.00    +0.000 A 
ATOM     28  N   UNL     1      53.287   9.281  14.334  0.00  0.00    +0.000 N 
ATOM     29  C   UNL     1      51.982   9.188  13.910  0.00  0.00    +0.000 A 
ATOM     30  O   UNL     1      51.056   9.600  14.602  0.00  0.00    +0.000 OA
ATOM     31  C   UNL     1      51.814   8.591  12.599  0.00  0.00    +0.000 A 
ATOM     32  H   UNL     1      53.432   9.692  15.244  0.00  0.00    +0.000 HD
ENDBRANCH  19  22
ENDBRANCH  17  18
ENDBRANCH   4  17
TORSDOF 6
ENDMDL
MODEL 7
REMARK VINA RESULT:    -6.671      3.878      8.460
REMARK INTER + INTRA:         -10.168
REMARK INTER:                  -9.091
REMARK INTRA:                  -1.078
REMARK UNBOUND:                -1.157
REMARK  Name = 
REMARK  6 active torsions:
REMARK  status: ('A' for Active; 'I' for Inactive)
REMARK    1  A    between atoms: C_2  and  C_25
REMARK    2  A    between atoms: N_3  and  C_4
REMARK    3  A    between atoms: C_4  and  C_5
REMARK    4  A    between atoms: C_8  and  C_9
REMARK    5  A    between atoms: C_9  and  N_10
REMARK    6  A    between atoms: C_11  and  C_13
REMARK                            x       y       z     vdW  Elec       q    Type
REMARK                         _______ _______ _______ _____ _____    ______ ____
ROOT
ATOM      1  C   UNL     1      49.838   4.504  17.564  0.00  0.00    +0.000 A 
ATOM      2  C   UNL     1      48.570   4.294  17.006  0.00  0.00    +0.000 A 
ATOM      3  C   UNL     1      48.056   5.178  16.049  0.00  0.00    +0.000 A 
ATOM      4  C   UNL     1      48.808   6.277  15.615  0.00  0.00    +0.000 A 
ATOM      5  C   UNL     1      50.078   6.483  16.171  0.00  0.00    +0.000 A 
ATOM      6  C   UNL     1      50.592   5.600  17.125  0.00  0.00    +0.000 A 
ENDROOT
BRANCH   1   7
ATOM      7  C   UNL     1      50.355   3.604  18.653  0.00  0.00    +0.000 C 
BRANCH   7  10
ATOM      8  O   UNL     1      50.937   1.239  17.275  0.00  0.00    +0.000 OA
ATOM      9  C   UNL     1      51.846   1.919  17.731  0.00  0.00    +0.000 C 
ATOM     10  N   UNL     1      51.682   3.099  18.419  0.00  0.00    +0.000 N 
ATOM     11  H   UNL     1      52.509   3.590  18.748  0.00  0.00    +0.000 HD
BRANCH   9  12
ATOM     12  C   UNL     1      53.262   1.460  17.549  0.00  0.00    +0.000 C 
ATOM     13  C   UNL     1      54.385   2.404  17.425  0.00  0.00    +0.000 C 
ATOM     14  C   UNL     1      55.520   1.551  17.291  0.00  0.00    +0.000 C 
ATOM     15  C   UNL     1      55.037   0.301  17.340  0.00  0.00    +0.000 C 
ATOM     16  N   UNL     1      53.658   0.207  17.496  0.00  0.00    +0.000 NA
ENDBRANCH   9  12
ENDBRANCH   7  10
ENDBRANCH   1   7
BRANCH   4  17
ATOM     17  C   UNL     1      48.254   7.245  14.599  0.00  0.00    +0.000 C 
BRANCH  17  18
ATOM     18  N   UNL     1      47.024   6.762  14.020  0.00  0.00    +0.000 N 
ATOM     19  C   UNL     1      46.837   6.766  12.660  0.00  0.00    +0.000 C 
ATOM     20  O   UNL     1      47.716   7.126  11.883  0.00  0.00    +0.000 OA
ATOM     21  H   UNL     1      46.224   6.675  14.637  0.00  0.00    +0.000 HD
BRANCH  19  22
ATOM     22  C   UNL     1      45.549   6.250  12.171  0.00  0.00    +0.000 A 
ATOM     23  C   UNL     1      44.636   7.122  11.589  0.00  0.00    +0.000 A 
ATOM     24  S   UNL     1      43.219   6.359  11.030  0.00  0.00    +0.000 S 
ATOM     25  C   UNL     1      43.745   4.843  11.594  0.00  0.00    +0.000 A 
ATOM     26  N   UNL     1      42.969   3.736  11.454  0.00  0.00    +0.000 NA
ATOM     27  C   UNL     1      43.472   2.664  11.965  0.00  0.00    +0.000 A 
ATOM     28  N   UNL     1      44.686   2.595  12.597  0.00  0.00    +0.000 N 
ATOM     29  C   UNL     1      45.523   3.678  12.726  0.00  0.00    +0.000 A 
ATOM     30  O   UNL     1      46.628   3.571  13.249  0.00  0.00    +0.000 OA
ATOM     31  C   UNL     1      44.996   4.916  12.185  0.00  0.00    +0.000 A 
ATOM     32  H   UNL     1      45.028   1.720  12.967  0.00  0.00    +0.000 HD
ENDBRANCH  19  22
ENDBRANCH  17  18
ENDBRANCH   4  17
TORSDOF 6
ENDMDL
MODEL 8
REMARK VINA RESULT:    -6.670      3.172      8.555
REMARK INTER + INTRA:         -10.166
REMARK INTER:                  -9.275
REMARK INTRA:                  -0.891
REMARK UNBOUND:                -1.157
REMARK  Name = 
REMARK  6 active torsions:
REMARK  status: ('A' for Active; 'I' for Inactive)
REMARK    1  A    between atoms: C_2  and  C_25
REMARK    2  A    between atoms: N_3  and  C_4
REMARK    3  A    between atoms: C_4  and  C_5
REMARK    4  A    between atoms: C_8  and  C_9
REMARK    5  A    between atoms: C_9  and  N_10
REMARK    6  A    between atoms: C_11  and  C_13
REMARK                            x       y       z     vdW  Elec       q    Type
REMARK                         _______ _______ _______ _____ _____    ______ ____
ROOT
ATOM      1  C   UNL     1      50.112   7.044  15.735  0.00  0.00    +0.000 A 
ATOM      2  C   UNL     1      50.612   7.793  14.661  0.00  0.00    +0.000 A 
ATOM      3  C   UNL     1      49.847   7.981  13.504  0.00  0.00    +0.000 A 
ATOM      4  C   UNL     1      48.557   7.443  13.405  0.00  0.00    +0.000 A 
ATOM      5  C   UNL     1      48.056   6.699  14.482  0.00  0.00    +0.000 A 
ATOM      6  C   UNL     1      48.819   6.512  15.638  0.00  0.00    +0.000 A 
ENDROOT
BRANCH   1   7
ATOM      7  C   UNL     1      50.966   6.770  16.943  0.00  0.00    +0.000 C 
BRANCH   7  10
ATOM      8  O   UNL     1      49.879   4.641  18.398  0.00  0.00    +0.000 OA
ATOM      9  C   UNL     1      50.898   4.475  17.740  0.00  0.00    +0.000 C 
ATOM     10  N   UNL     1      51.518   5.442  16.984  0.00  0.00    +0.000 N 
ATOM     11  H   UNL     1      52.358   5.193  16.469  0.00  0.00    +0.000 HD
BRANCH   9  12
ATOM     12  C   UNL     1      51.552   3.125  17.739  0.00  0.00    +0.000 C 
ATOM     13  C   UNL     1      52.914   2.912  18.256  0.00  0.00    +0.000 C 
ATOM     14  C   UNL     1      53.118   1.511  18.081  0.00  0.00    +0.000 C 
ATOM     15  C   UNL     1      51.985   1.050  17.533  0.00  0.00    +0.000 C 
ATOM     16  N   UNL     1      51.005   2.010  17.307  0.00  0.00    +0.000 NA
ENDBRANCH   9  12
ENDBRANCH   7  10
ENDBRANCH   1   7
BRANCH   4  17
ATOM     17  C   UNL     1      47.733   7.625  12.154  0.00  0.00    +0.000 C 
BRANCH  17  18
ATOM     18  N   UNL     1      47.011   6.423  11.813  0.00  0.00    +0.000 N 
ATOM     19  C   UNL     1      45.655   6.337  12.008  0.00  0.00    +0.000 C 
ATOM     20  O   UNL     1      44.996   7.285  12.424  0.00  0.00    +0.000 OA
ATOM     21  H   UNL     1      47.555   5.577  11.685  0.00  0.00    +0.000 HD
BRANCH  19  22
ATOM     22  C   UNL     1      45.014   5.070  11.625  0.00  0.00    +0.000 A 
ATOM     23  C   UNL     1      44.289   4.354  12.572  0.00  0.00    +0.000 A 
ATOM     24  S   UNL     1      43.569   2.938  11.956  0.00  0.00    +0.000 S 
ATOM     25  C   UNL     1      44.244   3.196  10.416  0.00  0.00    +0.000 A 
ATOM     26  N   UNL     1      44.035   2.314   9.404  0.00  0.00    +0.000 NA
ATOM     27  C   UNL     1      44.641   2.610   8.304  0.00  0.00    +0.000 A 
ATOM     28  N   UNL     1      45.432   3.715   8.121  0.00  0.00    +0.000 N 
ATOM     29  C   UNL     1      45.638   4.656   9.103  0.00  0.00    +0.000 A 
ATOM     30  O   UNL     1      46.307   5.662   8.890  0.00  0.00    +0.000 OA
ATOM     31  C   UNL     1      44.994   4.359  10.368  0.00  0.00    +0.000 A 
ATOM     32  H   UNL     1      45.870   3.896   7.230  0.00  0.00    +0.000 HD
ENDBRANCH  19  22
ENDBRANCH  17  18
ENDBRANCH   4  17
TORSDOF 6
ENDMDL
MODEL 9
REMARK VINA RESULT:    -6.530      3.594      4.954
REMARK INTER + INTRA:          -9.977
REMARK INTER:                  -8.914
REMARK INTRA:                  -1.063
REMARK UNBOUND:                -1.157
REMARK  Name = 
REMARK  6 active torsions:
REMARK  status: ('A' for Active; 'I' for Inactive)
REMARK    1  A    between atoms: C_2  and  C_25
REMARK    2  A    between atoms: N_3  and  C_4
REMARK    3  A    between atoms: C_4  and  C_5
REMARK    4  A    between atoms: C_8  and  C_9
REMARK    5  A    between atoms: C_9  and  N_10
REMARK    6  A    between atoms: C_11  and  C_13
REMARK                            x       y       z     vdW  Elec       q    Type
REMARK                         _______ _______ _______ _____ _____    ______ ____
ROOT
ATOM      1  C   UNL     1      45.121   5.944  11.406  0.00  0.00    +0.000 A 
ATOM      2  C   UNL     1      44.930   7.323  11.245  0.00  0.00    +0.000 A 
ATOM      3  C   UNL     1      45.585   8.237  12.079  0.00  0.00    +0.000 A 
ATOM      4  C   UNL     1      46.462   7.792  13.077  0.00  0.00    +0.000 A 
ATOM      5  C   UNL     1      46.657   6.414  13.234  0.00  0.00    +0.000 A 
ATOM      6  C   UNL     1      46.004   5.500  12.400  0.00  0.00    +0.000 A 
ENDROOT
BRANCH   1   7
ATOM      7  C   UNL     1      44.353   4.960  10.568  0.00  0.00    +0.000 C 
BRANCH   7  10
ATOM      8  O   UNL     1      44.153   2.243   9.926  0.00  0.00    +0.000 OA
ATOM      9  C   UNL     1      44.962   2.951   9.341  0.00  0.00    +0.000 C 
ATOM     10  N   UNL     1      45.145   4.296   9.567  0.00  0.00    +0.000 N 
ATOM     11  H   UNL     1      45.841   4.791   9.017  0.00  0.00    +0.000 HD
BRANCH   9  12
ATOM     12  C   UNL     1      45.843   2.338   8.293  0.00  0.00    +0.000 C 
ATOM     13  C   UNL     1      46.366   3.113   7.155  0.00  0.00    +0.000 C 
ATOM     14  C   UNL     1      47.151   2.160   6.441  0.00  0.00    +0.000 C 
ATOM     15  C   UNL     1      47.045   1.017   7.133  0.00  0.00    +0.000 C 
ATOM     16  N   UNL     1      46.250   1.088   8.272  0.00  0.00    +0.000 NA
ENDBRANCH   9  12
ENDBRANCH   7  10
ENDBRANCH   1   7
BRANCH   4  17
ATOM     17  C   UNL     1      47.157   8.770  13.992  0.00  0.00    +0.000 C 
BRANCH  17  18
ATOM     18  N   UNL     1      48.516   9.017  13.575  0.00  0.00    +0.000 N 
ATOM     19  C   UNL     1      48.833  10.119  12.822  0.00  0.00    +0.000 C 
ATOM     20  O   UNL     1      47.995  10.963  12.518  0.00  0.00    +0.000 OA
ATOM     21  H   UNL     1      49.163   8.237  13.621  0.00  0.00    +0.000 HD
BRANCH  19  22
ATOM     22  C   UNL     1      50.247  10.279  12.451  0.00  0.00    +0.000 A 
ATOM     23  C   UNL     1      50.870  11.509  12.633  0.00  0.00    +0.000 A 
ATOM     24  S   UNL     1      52.518  11.513  12.204  0.00  0.00    +0.000 S 
ATOM     25  C   UNL     1      52.450   9.889  11.704  0.00  0.00    +0.000 A 
ATOM     26  N   UNL     1      53.546   9.268  11.192  0.00  0.00    +0.000 NA
ATOM     27  C   UNL     1      53.341   8.051  10.813  0.00  0.00    +0.000 A 
ATOM     28  N   UNL     1      52.141   7.395  10.909  0.00  0.00    +0.000 N 
ATOM     29  C   UNL     1      51.018   7.968  11.457  0.00  0.00    +0.000 A 
ATOM     30  O   UNL     1      49.974   7.335  11.579  0.00  0.00    +0.000 OA
ATOM     31  C   UNL     1      51.189   9.345  11.881  0.00  0.00    +0.000 A 
ATOM     32  H   UNL     1      52.050   6.437  10.604  0.00  0.00    +0.000 HD
ENDBRANCH  19  22
ENDBRANCH  17  18
ENDBRANCH   4  17
TORSDOF 6
ENDMDL
