MODEL 1
REMARK VINA RESULT:    -8.404      0.000      0.000
REMARK INTER + INTRA:         -13.333
REMARK INTER:                 -12.334
REMARK INTRA:                  -0.999
REMARK UNBOUND:                -0.999
REMARK  Name = 
REMARK  9 active torsions:
REMARK  status: ('A' for Active; 'I' for Inactive)
REMARK    1  A    between atoms: N_1  and  C_2
REMARK    2  A    between atoms: C_2  and  C_3
REMARK    3  A    between atoms: C_3  and  O_4
REMARK    4  A    between atoms: C_3  and  C_5
REMARK    5  A    between atoms: C_8  and  C_9
REMARK    6  A    between atoms: C_9  and  N_10
REMARK    7  A    between atoms: C_12  and  C_13
REMARK    8  A    between atoms: N_15  and  C_16
REMARK    9  A    between atoms: C_16  and  C_17
REMARK                            x       y       z     vdW  Elec       q    Type
REMARK                         _______ _______ _______ _____ _____    ______ ____
ROOT
ATOM      1  N   UNL     1      45.520   5.274  11.940  0.00  0.00    +0.000 N 
ATOM      2  C   UNL     1      45.891   4.247  12.756  0.00  0.00    +0.000 A 
ATOM      3  C   UNL     1      46.579   4.812  13.820  0.00  0.00    +0.000 A 
ATOM      4  C   UNL     1      46.611   6.188  13.495  0.00  0.00    +0.000 A 
ATOM      5  N   UNL     1      45.961   6.476  12.367  0.00  0.00    +0.000 NA
ENDROOT
BRANCH   3   6
ATOM      6  C   UNL     1      47.139   4.113  14.957  0.00  0.00    +0.000 C 
ATOM      7  O   UNL     1      47.573   2.964  14.872  0.00  0.00    +0.000 OA
ATOM      8  N   UNL     1      47.127   4.830  16.128  0.00  0.00    +0.000 N 
ATOM      9  H   UNL     1      46.561   5.671  16.200  0.00  0.00    +0.000 HD
BRANCH   8  10
ATOM     10  C   UNL     1      47.701   4.332  17.344  0.00  0.00    +0.000 C 
BRANCH  10  11
ATOM     11  C   UNL     1      49.124   4.772  17.486  0.00  0.00    +0.000 A 
ATOM     12  C   UNL     1      49.515   6.091  17.634  0.00  0.00    +0.000 A 
ATOM     13  S   UNL     1      51.187   6.265  17.943  0.00  0.00    +0.000 S 
ATOM     14  C   UNL     1      51.437   4.581  17.869  0.00  0.00    +0.000 A 
ATOM     15  N   UNL     1      52.655   4.031  18.111  0.00  0.00    +0.000 NA
ATOM     16  C   UNL     1      52.687   2.744  18.000  0.00  0.00    +0.000 A 
ATOM     17  N   UNL     1      51.615   1.959  17.649  0.00  0.00    +0.000 N 
ATOM     18  C   UNL     1      50.367   2.471  17.379  0.00  0.00    +0.000 A 
ATOM     19  O   UNL     1      49.429   1.763  17.014  0.00  0.00    +0.000 OA
ATOM     20  C   UNL     1      50.275   3.908  17.551  0.00  0.00    +0.000 A 
ATOM     21  H   UNL     1      51.725   0.961  17.539  0.00  0.00    +0.000 HD
ENDBRANCH  10  11
ENDBRANCH   8  10
ENDBRANCH   3   6
BRANCH   1  22
ATOM     22  C   UNL     1      44.622   5.198  10.795  0.00  0.00    +0.000 C 
BRANCH  22  26
ATOM     23  C   UNL     1      46.016   2.635   7.679  0.00  0.00    +0.000 A 
ATOM     24  C   UNL     1      45.305   2.073   8.735  0.00  0.00    +0.000 A 
ATOM     25  C   UNL     1      44.851   2.897   9.765  0.00  0.00    +0.000 A 
ATOM     26  C   UNL     1      45.119   4.272   9.725  0.00  0.00    +0.000 A 
ATOM     27  C   UNL     1      45.823   4.745   8.623  0.00  0.00    +0.000 A 
ATOM     28  N   UNL     1      46.267   3.972   7.610  0.00  0.00    +0.000 NA
BRANCH  23  29
ATOM     29  C   UNL     1      46.544   1.744   6.570  0.00  0.00    +0.000 C 
BRANCH  29  30
ATOM     30  O   UNL     1      47.096   0.562   7.167  0.00  0.00    +0.000 OA
ATOM     31  H   UNL     1      48.025   0.522   6.873  0.00  0.00    +0.000 HD
ENDBRANCH  29  30
BRANCH  29  32
ATOM     32  C   UNL     1      47.590   2.448   5.671  0.00  0.00    +0.000 C 
BRANCH  32  33
ATOM     33  N   UNL     1      48.857   2.711   6.380  0.00  0.00    +0.000 NA
ATOM     34  H   UNL     1      48.640   3.174   7.264  0.00  0.00    +0.000 HD
ATOM     35  H   UNL     1      49.406   3.384   5.844  0.00  0.00    +0.000 HD
ENDBRANCH  32  33
ENDBRANCH  29  32
ENDBRANCH  23  29
ENDBRANCH  22  26
ENDBRANCH   1  22
TORSDOF 9
ENDMDL
MODEL 2
REMARK VINA RESULT:    -8.192      2.006      2.571
REMARK INTER + INTRA:         -13.023
REMARK INTER:                 -12.022
REMARK INTRA:                  -1.001
REMARK UNBOUND:                -0.999
REMARK  Name = 
REMARK  9 active torsions:
REMARK  status: ('A' for Active; 'I' for Inactive)
REMARK    1  A    between atoms: N_1  and  C_2
REMARK    2  A    between atoms: C_2  and  C_3
REMARK    3  A    between atoms: C_3  and  O_4
REMARK    4  A    between atoms: C_3  and  C_5
REMARK    5  A    between atoms: C_8  and  C_9
REMARK    6  A    between atoms: C_9  and  N_10
REMARK    7  A    between atoms: C_12  and  C_13
REMARK    8  A    between atoms: N_15  and  C_16
REMARK    9  A    between atoms: C_16  and  C_17
REMARK                            x       y       z     vdW  Elec       q    Type
REMARK                         _______ _______ _______ _____ _____    ______ ____
ROOT
ATOM      1  N   UNL     1      44.989   4.956  12.037  0.00  0.00    +0.000 N 
ATOM      2  C   UNL     1      46.112   5.730  12.061  0.00  0.00    +0.000 A 
ATOM      3  C   UNL     1      46.704   5.534  13.300  0.00  0.00    +0.000 A 
ATOM      4  C   UNL     1      45.804   4.665  13.960  0.00  0.00    +0.000 A 
ATOM      5  N   UNL     1      44.773   4.300  13.197  0.00  0.00    +0.000 NA
ENDROOT
BRANCH   3   6
ATOM      6  C   UNL     1      47.938   6.125  13.773  0.00  0.00    +0.000 C 
ATOM      7  O   UNL     1      48.930   6.237  13.052  0.00  0.00    +0.000 OA
ATOM      8  N   UNL     1      47.910   6.527  15.085  0.00  0.00    +0.000 N 
ATOM      9  H   UNL     1      47.161   6.211  15.696  0.00  0.00    +0.000 HD
BRANCH   8  10
ATOM     10  C   UNL     1      49.013   7.196  15.711  0.00  0.00    +0.000 C 
BRANCH  10  11
ATOM     11  C   UNL     1      48.855   7.219  17.199  0.00  0.00    +0.000 A 
ATOM     12  C   UNL     1      48.509   8.346  17.923  0.00  0.00    +0.000 A 
ATOM     13  S   UNL     1      48.239   8.024  19.580  0.00  0.00    +0.000 S 
ATOM     14  C   UNL     1      48.596   6.370  19.377  0.00  0.00    +0.000 A 
ATOM     15  N   UNL     1      48.493   5.488  20.405  0.00  0.00    +0.000 NA
ATOM     16  C   UNL     1      48.813   4.276  20.097  0.00  0.00    +0.000 A 
ATOM     17  N   UNL     1      49.247   3.868  18.859  0.00  0.00    +0.000 N 
ATOM     18  C   UNL     1      49.383   4.725  17.792  0.00  0.00    +0.000 A 
ATOM     19  O   UNL     1      49.822   4.357  16.703  0.00  0.00    +0.000 OA
ATOM     20  C   UNL     1      48.976   6.086  18.080  0.00  0.00    +0.000 A 
ATOM     21  H   UNL     1      49.523   2.908  18.703  0.00  0.00    +0.000 HD
ENDBRANCH  10  11
ENDBRANCH   8  10
ENDBRANCH   3   6
BRANCH   1  22
ATOM     22  C   UNL     1      44.140   4.687  10.884  0.00  0.00    +0.000 C 
BRANCH  22  26
ATOM     23  C   UNL     1      46.165   2.387   7.913  0.00  0.00    +0.000 A 
ATOM     24  C   UNL     1      46.149   3.773   7.786  0.00  0.00    +0.000 A 
ATOM     25  C   UNL     1      45.484   4.537   8.744  0.00  0.00    +0.000 A 
ATOM     26  C   UNL     1      44.840   3.902   9.815  0.00  0.00    +0.000 A 
ATOM     27  C   UNL     1      44.922   2.516   9.867  0.00  0.00    +0.000 A 
ATOM     28  N   UNL     1      45.565   1.753   8.958  0.00  0.00    +0.000 NA
BRANCH  23  29
ATOM     29  C   UNL     1      46.858   1.545   6.859  0.00  0.00    +0.000 C 
BRANCH  29  30
ATOM     30  O   UNL     1      47.004   0.213   7.370  0.00  0.00    +0.000 OA
ATOM     31  H   UNL     1      47.647  -0.231   6.786  0.00  0.00    +0.000 HD
ENDBRANCH  29  30
BRANCH  29  32
ATOM     32  C   UNL     1      48.228   2.121   6.424  0.00  0.00    +0.000 C 
BRANCH  32  33
ATOM     33  N   UNL     1      48.264   2.473   4.993  0.00  0.00    +0.000 NA
ATOM     34  H   UNL     1      47.389   2.168   4.565  0.00  0.00    +0.000 HD
ATOM     35  H   UNL     1      48.998   1.932   4.534  0.00  0.00    +0.000 HD
ENDBRANCH  32  33
ENDBRANCH  29  32
ENDBRANCH  23  29
ENDBRANCH  22  26
ENDBRANCH   1  22
TORSDOF 9
ENDMDL
MODEL 3
REMARK VINA RESULT:    -8.085      4.429      5.110
REMARK INTER + INTRA:         -12.866
REMARK INTER:                 -11.800
REMARK INTRA:                  -1.066
REMARK UNBOUND:                -0.999
REMARK  Name = 
REMARK  9 active torsions:
REMARK  status: ('A' for Active; 'I' for Inactive)
REMARK    1  A    between atoms: N_1  and  C_2
REMARK    2  A    between atoms: C_2  and  C_3
REMARK    3  A    between atoms: C_3  and  O_4
REMARK    4  A    between atoms: C_3  and  C_5
REMARK    5  A    between atoms: C_8  and  C_9
REMARK    6  A    between atoms: C_9  and  N_10
REMARK    7  A    between atoms: C_12  and  C_13
REMARK    8  A    between atoms: N_15  and  C_16
REMARK    9  A    between atoms: C_16  and  C_17
REMARK                            x       y       z     vdW  Elec       q    Type
REMARK                         _______ _______ _______ _____ _____    ______ ____
ROOT
ATOM      1  N   UNL     1      44.075   5.043  11.443  0.00  0.00    +0.000 N 
ATOM      2  C   UNL     1      44.395   6.368  11.448  0.00  0.00    +0.000 A 
ATOM      3  C   UNL     1      45.208   6.578  12.552  0.00  0.00    +0.000 A 
ATOM      4  C   UNL     1      45.252   5.309  13.173  0.00  0.00    +0.000 A 
ATOM      5  N   UNL     1      44.581   4.372  12.500  0.00  0.00    +0.000 NA
ENDROOT
BRANCH   3   6
ATOM      6  C   UNL     1      45.820   7.829  12.951  0.00  0.00    +0.000 C 
ATOM      7  O   UNL     1      45.326   8.920  12.668  0.00  0.00    +0.000 OA
ATOM      8  N   UNL     1      46.995   7.689  13.647  0.00  0.00    +0.000 N 
ATOM      9  H   UNL     1      47.474   6.793  13.658  0.00  0.00    +0.000 HD
BRANCH   8  10
ATOM     10  C   UNL     1      47.710   8.810  14.185  0.00  0.00    +0.000 C 
BRANCH  10  11
ATOM     11  C   UNL     1      48.499   9.506  13.121  0.00  0.00    +0.000 A 
ATOM     12  C   UNL     1      48.372  10.850  12.818  0.00  0.00    +0.000 A 
ATOM     13  S   UNL     1      49.522  11.393  11.676  0.00  0.00    +0.000 S 
ATOM     14  C   UNL     1      50.209   9.839  11.542  0.00  0.00    +0.000 A 
ATOM     15  N   UNL     1      51.298   9.608  10.762  0.00  0.00    +0.000 NA
ATOM     16  C   UNL     1      51.689   8.377  10.752  0.00  0.00    +0.000 A 
ATOM     17  N   UNL     1      51.079   7.352  11.433  0.00  0.00    +0.000 N 
ATOM     18  C   UNL     1      49.965   7.534  12.221  0.00  0.00    +0.000 A 
ATOM     19  O   UNL     1      49.397   6.599  12.784  0.00  0.00    +0.000 OA
ATOM     20  C   UNL     1      49.529   8.914  12.307  0.00  0.00    +0.000 A 
ATOM     21  H   UNL     1      51.415   6.403  11.343  0.00  0.00    +0.000 HD
ENDBRANCH  10  11
ENDBRANCH   8  10
ENDBRANCH   3   6
BRANCH   1  22
ATOM     22  C   UNL     1      43.395   4.313  10.381  0.00  0.00    +0.000 C 
BRANCH  22  26
ATOM     23  C   UNL     1      46.101   2.065   7.965  0.00  0.00    +0.000 A 
ATOM     24  C   UNL     1      46.066   3.447   7.814  0.00  0.00    +0.000 A 
ATOM     25  C   UNL     1      45.180   4.194   8.590  0.00  0.00    +0.000 A 
ATOM     26  C   UNL     1      44.339   3.546   9.505  0.00  0.00    +0.000 A 
ATOM     27  C   UNL     1      44.456   2.163   9.597  0.00  0.00    +0.000 A 
ATOM     28  N   UNL     1      45.309   1.418   8.864  0.00  0.00    +0.000 NA
BRANCH  23  29
ATOM     29  C   UNL     1      47.037   1.239   7.102  0.00  0.00    +0.000 C 
BRANCH  29  30
ATOM     30  O   UNL     1      47.371   0.041   7.817  0.00  0.00    +0.000 OA
ATOM     31  H   UNL     1      48.181  -0.304   7.399  0.00  0.00    +0.000 HD
ENDBRANCH  29  30
BRANCH  29  32
ATOM     32  C   UNL     1      48.316   2.007   6.687  0.00  0.00    +0.000 C 
BRANCH  32  33
ATOM     33  N   UNL     1      48.381   2.253   5.234  0.00  0.00    +0.000 NA
ATOM     34  H   UNL     1      47.653   1.698   4.782  0.00  0.00    +0.000 HD
ATOM     35  H   UNL     1      49.264   1.894   4.873  0.00  0.00    +0.000 HD
ENDBRANCH  32  33
ENDBRANCH  29  32
ENDBRANCH  23  29
ENDBRANCH  22  26
ENDBRANCH   1  22
TORSDOF 9
ENDMDL
MODEL 4
REMARK VINA RESULT:    -8.036      2.330      2.789
REMARK INTER + INTRA:         -12.793
REMARK INTER:                 -11.848
REMARK INTRA:                  -0.945
REMARK UNBOUND:                -0.999
REMARK  Name = 
REMARK  9 active torsions:
REMARK  status: ('A' for Active; 'I' for Inactive)
REMARK    1  A    between atoms: N_1  and  C_2
REMARK    2  A    between atoms: C_2  and  C_3
REMARK    3  A    between atoms: C_3  and  O_4
REMARK    4  A    between atoms: C_3  and  C_5
REMARK    5  A    between atoms: C_8  and  C_9
REMARK    6  A    between atoms: C_9  and  N_10
REMARK    7  A    between atoms: C_12  and  C_13
REMARK    8  A    between atoms: N_15  and  C_16
REMARK    9  A    between atoms: C_16  and  C_17
REMARK                            x       y       z     vdW  Elec       q    Type
REMARK                         _______ _______ _______ _____ _____    ______ ____
ROOT
ATOM      1  N   UNL     1      44.878   4.865  11.851  0.00  0.00    +0.000 N 
ATOM      2  C   UNL     1      45.625   3.974  12.563  0.00  0.00    +0.000 A 
ATOM      3  C   UNL     1      46.084   4.647  13.686  0.00  0.00    +0.000 A 
ATOM      4  C   UNL     1      45.595   5.961  13.504  0.00  0.00    +0.000 A 
ATOM      5  N   UNL     1      44.853   6.097  12.403  0.00  0.00    +0.000 NA
ENDROOT
BRANCH   3   6
ATOM      6  C   UNL     1      46.895   4.097  14.753  0.00  0.00    +0.000 C 
ATOM      7  O   UNL     1      47.568   3.078  14.606  0.00  0.00    +0.000 OA
ATOM      8  N   UNL     1      46.831   4.797  15.932  0.00  0.00    +0.000 N 
ATOM      9  H   UNL     1      46.098   5.487  16.074  0.00  0.00    +0.000 HD
BRANCH   8  10
ATOM     10  C   UNL     1      47.617   4.447  17.080  0.00  0.00    +0.000 C 
BRANCH  10  11
ATOM     11  C   UNL     1      47.904   5.649  17.922  0.00  0.00    +0.000 A 
ATOM     12  C   UNL     1      47.328   5.884  19.158  0.00  0.00    +0.000 A 
ATOM     13  S   UNL     1      47.977   7.250  19.954  0.00  0.00    +0.000 S 
ATOM     14  C   UNL     1      49.035   7.576  18.658  0.00  0.00    +0.000 A 
ATOM     15  N   UNL     1      49.935   8.593  18.712  0.00  0.00    +0.000 NA
ATOM     16  C   UNL     1      50.652   8.722  17.646  0.00  0.00    +0.000 A 
ATOM     17  N   UNL     1      50.538   7.940  16.523  0.00  0.00    +0.000 N 
ATOM     18  C   UNL     1      49.631   6.911  16.414  0.00  0.00    +0.000 A 
ATOM     19  O   UNL     1      49.503   6.252  15.383  0.00  0.00    +0.000 OA
ATOM     20  C   UNL     1      48.846   6.694  17.613  0.00  0.00    +0.000 A 
ATOM     21  H   UNL     1      51.105   8.127  15.707  0.00  0.00    +0.000 HD
ENDBRANCH  10  11
ENDBRANCH   8  10
ENDBRANCH   3   6
BRANCH   1  22
ATOM     22  C   UNL     1      44.041   4.574  10.695  0.00  0.00    +0.000 C 
BRANCH  22  26
ATOM     23  C   UNL     1      46.121   2.295   7.745  0.00  0.00    +0.000 A 
ATOM     24  C   UNL     1      46.178   3.684   7.676  0.00  0.00    +0.000 A 
ATOM     25  C   UNL     1      45.496   4.442   8.627  0.00  0.00    +0.000 A 
ATOM     26  C   UNL     1      44.763   3.798   9.633  0.00  0.00    +0.000 A 
ATOM     27  C   UNL     1      44.775   2.408   9.631  0.00  0.00    +0.000 A 
ATOM     28  N   UNL     1      45.433   1.651   8.727  0.00  0.00    +0.000 NA
BRANCH  23  29
ATOM     29  C   UNL     1      46.832   1.462   6.696  0.00  0.00    +0.000 C 
BRANCH  29  30
ATOM     30  O   UNL     1      46.943   0.118   7.186  0.00  0.00    +0.000 OA
ATOM     31  H   UNL     1      46.787   0.170   8.148  0.00  0.00    +0.000 HD
ENDBRANCH  29  30
BRANCH  29  32
ATOM     32  C   UNL     1      48.223   2.025   6.312  0.00  0.00    +0.000 C 
BRANCH  32  33
ATOM     33  N   UNL     1      48.255   2.565   4.941  0.00  0.00    +0.000 NA
ATOM     34  H   UNL     1      47.365   3.031   4.758  0.00  0.00    +0.000 HD
ATOM     35  H   UNL     1      48.302   1.792   4.277  0.00  0.00    +0.000 HD
ENDBRANCH  32  33
ENDBRANCH  29  32
ENDBRANCH  23  29
ENDBRANCH  22  26
ENDBRANCH   1  22
TORSDOF 9
ENDMDL
MODEL 5
REMARK VINA RESULT:    -7.933      2.647      3.328
REMARK INTER + INTRA:         -12.642
REMARK INTER:                 -11.515
REMARK INTRA:                  -1.127
REMARK UNBOUND:                -0.999
REMARK  Name = 
REMARK  9 active torsions:
REMARK  status: ('A' for Active; 'I' for Inactive)
REMARK    1  A    between atoms: N_1  and  C_2
REMARK    2  A    between atoms: C_2  and  C_3
REMARK    3  A    between atoms: C_3  and  O_4
REMARK    4  A    between atoms: C_3  and  C_5
REMARK    5  A    between atoms: C_8  and  C_9
REMARK    6  A    between atoms: C_9  and  N_10
REMARK    7  A    between atoms: C_12  and  C_13
REMARK    8  A    between atoms: N_15  and  C_16
REMARK    9  A    between atoms: C_16  and  C_17
REMARK                            x       y       z     vdW  Elec       q    Type
REMARK                         _______ _______ _______ _____ _____    ______ ____
ROOT
ATOM      1  N   UNL     1      44.459   5.430  11.618  0.00  0.00    +0.000 N 
ATOM      2  C   UNL     1      44.985   6.688  11.612  0.00  0.00    +0.000 A 
ATOM      3  C   UNL     1      45.834   6.769  12.706  0.00  0.00    +0.000 A 
ATOM      4  C   UNL     1      45.683   5.510  13.332  0.00  0.00    +0.000 A 
ATOM      5  N   UNL     1      44.864   4.690  12.671  0.00  0.00    +0.000 NA
ENDROOT
BRANCH   3   6
ATOM      6  C   UNL     1      46.641   7.907  13.093  0.00  0.00    +0.000 C 
ATOM      7  O   UNL     1      46.719   8.921  12.400  0.00  0.00    +0.000 OA
ATOM      8  N   UNL     1      47.317   7.748  14.277  0.00  0.00    +0.000 N 
ATOM      9  H   UNL     1      47.403   6.824  14.691  0.00  0.00    +0.000 HD
BRANCH   8  10
ATOM     10  C   UNL     1      48.112   8.791  14.857  0.00  0.00    +0.000 C 
BRANCH  10  11
ATOM     11  C   UNL     1      49.572   8.498  14.714  0.00  0.00    +0.000 A 
ATOM     12  C   UNL     1      50.422   9.189  13.869  0.00  0.00    +0.000 A 
ATOM     13  S   UNL     1      52.061   8.739  14.048  0.00  0.00    +0.000 S 
ATOM     14  C   UNL     1      51.677   7.593  15.250  0.00  0.00    +0.000 A 
ATOM     15  N   UNL     1      52.642   6.881  15.888  0.00  0.00    +0.000 NA
ATOM     16  C   UNL     1      52.190   6.041  16.759  0.00  0.00    +0.000 A 
ATOM     17  N   UNL     1      50.861   5.833  17.035  0.00  0.00    +0.000 N 
ATOM     18  C   UNL     1      49.847   6.517  16.403  0.00  0.00    +0.000 A 
ATOM     19  O   UNL     1      48.659   6.284  16.622  0.00  0.00    +0.000 OA
ATOM     20  C   UNL     1      50.315   7.513  15.460  0.00  0.00    +0.000 A 
ATOM     21  H   UNL     1      50.579   5.126  17.700  0.00  0.00    +0.000 HD
ENDBRANCH  10  11
ENDBRANCH   8  10
ENDBRANCH   3   6
BRANCH   1  22
ATOM     22  C   UNL     1      43.659   4.814  10.566  0.00  0.00    +0.000 C 
BRANCH  22  26
ATOM     23  C   UNL     1      45.984   2.284   8.034  0.00  0.00    +0.000 A 
ATOM     24  C   UNL     1      46.069   3.662   7.858  0.00  0.00    +0.000 A 
ATOM     25  C   UNL     1      45.308   4.501   8.672  0.00  0.00    +0.000 A 
ATOM     26  C   UNL     1      44.470   3.948   9.649  0.00  0.00    +0.000 A 
ATOM     27  C   UNL     1      44.461   2.562   9.761  0.00  0.00    +0.000 A 
ATOM     28  N   UNL     1      45.193   1.729   8.993  0.00  0.00    +0.000 NA
BRANCH  23  29
ATOM     29  C   UNL     1      46.782   1.361   7.132  0.00  0.00    +0.000 C 
BRANCH  29  30
ATOM     30  O   UNL     1      46.874   0.079   7.768  0.00  0.00    +0.000 OA
ATOM     31  H   UNL     1      47.797  -0.005   8.070  0.00  0.00    +0.000 HD
ENDBRANCH  29  30
BRANCH  29  32
ATOM     32  C   UNL     1      48.190   1.910   6.794  0.00  0.00    +0.000 C 
BRANCH  32  33
ATOM     33  N   UNL     1      48.435   1.980   5.342  0.00  0.00    +0.000 NA
ATOM     34  H   UNL     1      48.727   2.931   5.110  0.00  0.00    +0.000 HD
ATOM     35  H   UNL     1      47.555   1.834   4.846  0.00  0.00    +0.000 HD
ENDBRANCH  32  33
ENDBRANCH  29  32
ENDBRANCH  23  29
ENDBRANCH  22  26
ENDBRANCH   1  22
TORSDOF 9
ENDMDL
MODEL 6
REMARK VINA RESULT:    -7.655      2.988      4.074
REMARK INTER + INTRA:         -12.233
REMARK INTER:                 -11.308
REMARK INTRA:                  -0.926
REMARK UNBOUND:                -0.999
REMARK  Name = 
REMARK  9 active torsions:
REMARK  status: ('A' for Active; 'I' for Inactive)
REMARK    1  A    between atoms: N_1  and  C_2
REMARK    2  A    between atoms: C_2  and  C_3
REMARK    3  A    between atoms: C_3  and  O_4
REMARK    4  A    between atoms: C_3  and  C_5
REMARK    5  A    between atoms: C_8  and  C_9
REMARK    6  A    between atoms: C_9  and  N_10
REMARK    7  A    between atoms: C_12  and  C_13
REMARK    8  A    between atoms: N_15  and  C_16
REMARK    9  A    between atoms: C_16  and  C_17
REMARK                            x       y       z     vdW  Elec       q    Type
REMARK                         _______ _______ _______ _____ _____    ______ ____
ROOT
ATOM      1  N   UNL     1      44.890   5.573  11.428  0.00  0.00    +0.000 N 
ATOM      2  C   UNL     1      46.162   5.256  11.804  0.00  0.00    +0.000 A 
ATOM      3  C   UNL     1      46.531   6.172  12.777  0.00  0.00    +0.000 A 
ATOM      4  C   UNL     1      45.413   7.035  12.856  0.00  0.00    +0.000 A 
ATOM      5  N   UNL     1      44.411   6.670  12.053  0.00  0.00    +0.000 NA
ENDROOT
BRANCH   3   6
ATOM      6  C   UNL     1      47.787   6.214  13.495  0.00  0.00    +0.000 C 
ATOM      7  O   UNL     1      48.872   6.269  12.916  0.00  0.00    +0.000 OA
ATOM      8  N   UNL     1      47.663   6.168  14.862  0.00  0.00    +0.000 N 
ATOM      9  H   UNL     1      46.778   5.895  15.281  0.00  0.00    +0.000 HD
BRANCH   8  10
ATOM     10  C   UNL     1      48.790   6.268  15.743  0.00  0.00    +0.000 C 
BRANCH  10  11
ATOM     11  C   UNL     1      48.403   6.903  17.041  0.00  0.00    +0.000 A 
ATOM     12  C   UNL     1      48.254   6.208  18.229  0.00  0.00    +0.000 A 
ATOM     13  S   UNL     1      47.973   7.226  19.572  0.00  0.00    +0.000 S 
ATOM     14  C   UNL     1      48.024   8.624  18.599  0.00  0.00    +0.000 A 
ATOM     15  N   UNL     1      47.915   9.868  19.134  0.00  0.00    +0.000 NA
ATOM     16  C   UNL     1      47.955  10.823  18.265  0.00  0.00    +0.000 A 
ATOM     17  N   UNL     1      48.073  10.647  16.908  0.00  0.00    +0.000 N 
ATOM     18  C   UNL     1      48.169   9.407  16.318  0.00  0.00    +0.000 A 
ATOM     19  O   UNL     1      48.220   9.261  15.098  0.00  0.00    +0.000 OA
ATOM     20  C   UNL     1      48.188   8.309  17.265  0.00  0.00    +0.000 A 
ATOM     21  H   UNL     1      48.053  11.441  16.283  0.00  0.00    +0.000 HD
ENDBRANCH  10  11
ENDBRANCH   8  10
ENDBRANCH   3   6
BRANCH   1  22
ATOM     22  C   UNL     1      44.012   4.789  10.569  0.00  0.00    +0.000 C 
BRANCH  22  26
ATOM     23  C   UNL     1      46.177   2.171   7.985  0.00  0.00    +0.000 A 
ATOM     24  C   UNL     1      46.223   3.539   7.736  0.00  0.00    +0.000 A 
ATOM     25  C   UNL     1      45.513   4.406   8.566  0.00  0.00    +0.000 A 
ATOM     26  C   UNL     1      44.764   3.890   9.633  0.00  0.00    +0.000 A 
ATOM     27  C   UNL     1      44.791   2.512   9.813  0.00  0.00    +0.000 A 
ATOM     28  N   UNL     1      45.475   1.652   9.029  0.00  0.00    +0.000 NA
BRANCH  23  29
ATOM     29  C   UNL     1      46.919   1.216   7.068  0.00  0.00    +0.000 C 
BRANCH  29  30
ATOM     30  O   UNL     1      47.015  -0.056   7.724  0.00  0.00    +0.000 OA
ATOM     31  H   UNL     1      47.919  -0.103   8.087  0.00  0.00    +0.000 HD
ENDBRANCH  29  30
BRANCH  29  32
ATOM     32  C   UNL     1      48.320   1.732   6.659  0.00  0.00    +0.000 C 
BRANCH  32  33
ATOM     33  N   UNL     1      48.348   2.259   5.282  0.00  0.00    +0.000 NA
ATOM     34  H   UNL     1      48.428   3.276   5.328  0.00  0.00    +0.000 HD
ATOM     35  H   UNL     1      47.450   2.074   4.834  0.00  0.00    +0.000 HD
ENDBRANCH  32  33
ENDBRANCH  29  32
ENDBRANCH  23  29
ENDBRANCH  22  26
ENDBRANCH   1  22
TORSDOF 9
ENDMDL
MODEL 7
REMARK VINA RESULT:    -7.635      2.598      2.970
REMARK INTER + INTRA:         -12.204
REMARK INTER:                 -11.276
REMARK INTRA:                  -0.928
REMARK UNBOUND:                -0.999
REMARK  Name = 
REMARK  9 active torsions:
REMARK  status: ('A' for Active; 'I' for Inactive)
REMARK    1  A    between atoms: N_1  and  C_2
REMARK    2  A    between atoms: C_2  and  C_3
REMARK    3  A    between atoms: C_3  and  O_4
REMARK    4  A    between atoms: C_3  and  C_5
REMARK    5  A    between atoms: C_8  and  C_9
REMARK    6  A    between atoms: C_9  and  N_10
REMARK    7  A    between atoms: C_12  and  C_13
REMARK    8  A    between atoms: N_15  and  C_16
REMARK    9  A    between atoms: C_16  and  C_17
REMARK                            x       y       z     vdW  Elec       q    Type
REMARK                         _______ _______ _______ _____ _____    ______ ____
ROOT
ATOM      1  N   UNL     1      44.797   6.121  11.282  0.00  0.00    +0.000 N 
ATOM      2  C   UNL     1      45.935   5.848  11.980  0.00  0.00    +0.000 A 
ATOM      3  C   UNL     1      46.314   7.027  12.604  0.00  0.00    +0.000 A 
ATOM      4  C   UNL     1      45.353   7.961  12.151  0.00  0.00    +0.000 A 
ATOM      5  N   UNL     1      44.424   7.417  11.362  0.00  0.00    +0.000 NA
ENDROOT
BRANCH   3   6
ATOM      6  C   UNL     1      47.450   7.217  13.481  0.00  0.00    +0.000 C 
ATOM      7  O   UNL     1      48.257   8.133  13.320  0.00  0.00    +0.000 OA
ATOM      8  N   UNL     1      47.556   6.286  14.484  0.00  0.00    +0.000 N 
ATOM      9  H   UNL     1      47.009   5.430  14.440  0.00  0.00    +0.000 HD
BRANCH   8  10
ATOM     10  C   UNL     1      48.575   6.349  15.491  0.00  0.00    +0.000 C 
BRANCH  10  11
ATOM     11  C   UNL     1      48.313   5.361  16.584  0.00  0.00    +0.000 A 
ATOM     12  C   UNL     1      47.793   4.096  16.375  0.00  0.00    +0.000 A 
ATOM     13  S   UNL     1      47.765   3.139  17.791  0.00  0.00    +0.000 S 
ATOM     14  C   UNL     1      48.431   4.398  18.726  0.00  0.00    +0.000 A 
ATOM     15  N   UNL     1      48.732   4.226  20.040  0.00  0.00    +0.000 NA
ATOM     16  C   UNL     1      49.213   5.278  20.615  0.00  0.00    +0.000 A 
ATOM     17  N   UNL     1      49.402   6.492  20.001  0.00  0.00    +0.000 N 
ATOM     18  C   UNL     1      49.097   6.720  18.679  0.00  0.00    +0.000 A 
ATOM     19  O   UNL     1      49.221   7.826  18.155  0.00  0.00    +0.000 OA
ATOM     20  C   UNL     1      48.609   5.546  17.981  0.00  0.00    +0.000 A 
ATOM     21  H   UNL     1      49.743   7.286  20.527  0.00  0.00    +0.000 HD
ENDBRANCH  10  11
ENDBRANCH   8  10
ENDBRANCH   3   6
BRANCH   1  22
ATOM     22  C   UNL     1      43.927   5.158  10.619  0.00  0.00    +0.000 C 
BRANCH  22  26
ATOM     23  C   UNL     1      46.052   2.477   8.066  0.00  0.00    +0.000 A 
ATOM     24  C   UNL     1      45.281   1.946   9.096  0.00  0.00    +0.000 A 
ATOM     25  C   UNL     1      44.589   2.810   9.944  0.00  0.00    +0.000 A 
ATOM     26  C   UNL     1      44.681   4.195   9.750  0.00  0.00    +0.000 A 
ATOM     27  C   UNL     1      45.462   4.632   8.687  0.00  0.00    +0.000 A 
ATOM     28  N   UNL     1      46.136   3.818   7.848  0.00  0.00    +0.000 NA
BRANCH  23  29
ATOM     29  C   UNL     1      46.836   1.547   7.159  0.00  0.00    +0.000 C 
BRANCH  29  30
ATOM     30  O   UNL     1      47.087   0.328   7.872  0.00  0.00    +0.000 OA
ATOM     31  H   UNL     1      47.546  -0.261   7.244  0.00  0.00    +0.000 HD
ENDBRANCH  29  30
BRANCH  29  32
ATOM     32  C   UNL     1      48.159   2.169   6.649  0.00  0.00    +0.000 C 
BRANCH  32  33
ATOM     33  N   UNL     1      47.984   2.911   5.387  0.00  0.00    +0.000 NA
ATOM     34  H   UNL     1      48.889   3.296   5.112  0.00  0.00    +0.000 HD
ATOM     35  H   UNL     1      47.382   3.718   5.553  0.00  0.00    +0.000 HD
ENDBRANCH  32  33
ENDBRANCH  29  32
ENDBRANCH  23  29
ENDBRANCH  22  26
ENDBRANCH   1  22
TORSDOF 9
ENDMDL
MODEL 8
REMARK VINA RESULT:    -6.983      3.407      9.024
REMARK INTER + INTRA:         -11.248
REMARK INTER:                 -10.073
REMARK INTRA:                  -1.175
REMARK UNBOUND:                -0.999
REMARK  Name = 
REMARK  9 active torsions:
REMARK  status: ('A' for Active; 'I' for Inactive)
REMARK    1  A    between atoms: N_1  and  C_2
REMARK    2  A    between atoms: C_2  and  C_3
REMARK    3  A    between atoms: C_3  and  O_4
REMARK    4  A    between atoms: C_3  and  C_5
REMARK    5  A    between atoms: C_8  and  C_9
REMARK    6  A    between atoms: C_9  and  N_10
REMARK    7  A    between atoms: C_12  and  C_13
REMARK    8  A    between atoms: N_15  and  C_16
REMARK    9  A    between atoms: C_16  and  C_17
REMARK                            x       y       z     vdW  Elec       q    Type
REMARK                         _______ _______ _______ _____ _____    ______ ____
ROOT
ATOM      1  N   UNL     1      48.993   9.060  15.024  0.00  0.00    +0.000 N 
ATOM      2  C   UNL     1      47.716   8.802  14.620  0.00  0.00    +0.000 A 
ATOM      3  C   UNL     1      47.675   9.038  13.254  0.00  0.00    +0.000 A 
ATOM      4  C   UNL     1      48.980   9.495  12.961  0.00  0.00    +0.000 A 
ATOM      5  N   UNL     1      49.787   9.498  14.024  0.00  0.00    +0.000 NA
ENDROOT
BRANCH   3   6
ATOM      6  C   UNL     1      46.532   8.868  12.381  0.00  0.00    +0.000 C 
ATOM      7  O   UNL     1      45.912   9.826  11.920  0.00  0.00    +0.000 OA
ATOM      8  N   UNL     1      46.197   7.561  12.131  0.00  0.00    +0.000 N 
ATOM      9  H   UNL     1      46.587   6.819  12.706  0.00  0.00    +0.000 HD
BRANCH   8  10
ATOM     10  C   UNL     1      45.139   7.193  11.235  0.00  0.00    +0.000 C 
BRANCH  10  11
ATOM     11  C   UNL     1      44.698   5.783  11.473  0.00  0.00    +0.000 A 
ATOM     12  C   UNL     1      44.072   5.353  12.629  0.00  0.00    +0.000 A 
ATOM     13  S   UNL     1      43.538   3.732  12.540  0.00  0.00    +0.000 S 
ATOM     14  C   UNL     1      44.147   3.556  10.958  0.00  0.00    +0.000 A 
ATOM     15  N   UNL     1      43.971   2.409  10.251  0.00  0.00    +0.000 NA
ATOM     16  C   UNL     1      44.505   2.425   9.075  0.00  0.00    +0.000 A 
ATOM     17  N   UNL     1      45.217   3.475   8.549  0.00  0.00    +0.000 N 
ATOM     18  C   UNL     1      45.437   4.649   9.233  0.00  0.00    +0.000 A 
ATOM     19  O   UNL     1      46.121   5.562   8.771  0.00  0.00    +0.000 OA
ATOM     20  C   UNL     1      44.802   4.695  10.535  0.00  0.00    +0.000 A 
ATOM     21  H   UNL     1      45.646   3.400   7.637  0.00  0.00    +0.000 HD
ENDBRANCH  10  11
ENDBRANCH   8  10
ENDBRANCH   3   6
BRANCH   1  22
ATOM     22  C   UNL     1      49.567   8.779  16.334  0.00  0.00    +0.000 C 
BRANCH  22  26
ATOM     23  C   UNL     1      48.862   4.745  17.537  0.00  0.00    +0.000 A 
ATOM     24  C   UNL     1      48.169   5.764  18.185  0.00  0.00    +0.000 A 
ATOM     25  C   UNL     1      48.397   7.087  17.809  0.00  0.00    +0.000 A 
ATOM     26  C   UNL     1      49.317   7.373  16.791  0.00  0.00    +0.000 A 
ATOM     27  C   UNL     1      49.949   6.290  16.191  0.00  0.00    +0.000 A 
ATOM     28  N   UNL     1      49.742   5.000  16.531  0.00  0.00    +0.000 NA
BRANCH  23  29
ATOM     29  C   UNL     1      48.647   3.304  17.961  0.00  0.00    +0.000 C 
BRANCH  29  30
ATOM     30  O   UNL     1      48.614   3.257  19.394  0.00  0.00    +0.000 OA
ATOM     31  H   UNL     1      47.731   3.579  19.654  0.00  0.00    +0.000 HD
ENDBRANCH  29  30
BRANCH  29  32
ATOM     32  C   UNL     1      49.723   2.340  17.403  0.00  0.00    +0.000 C 
BRANCH  32  33
ATOM     33  N   UNL     1      49.377   1.821  16.067  0.00  0.00    +0.000 NA
ATOM     34  H   UNL     1      49.276   2.613  15.430  0.00  0.00    +0.000 HD
ATOM     35  H   UNL     1      48.457   1.382  16.106  0.00  0.00    +0.000 HD
ENDBRANCH  32  33
ENDBRANCH  29  32
ENDBRANCH  23  29
ENDBRANCH  22  26
ENDBRANCH   1  22
TORSDOF 9
ENDMDL
MODEL 9
REMARK VINA RESULT:    -6.745      3.347      4.224
REMARK INTER + INTRA:         -10.899
REMARK INTER:                  -9.852
REMARK INTRA:                  -1.047
REMARK UNBOUND:                -0.999
REMARK  Name = 
REMARK  9 active torsions:
REMARK  status: ('A' for Active; 'I' for Inactive)
REMARK    1  A    between atoms: N_1  and  C_2
REMARK    2  A    between atoms: C_2  and  C_3
REMARK    3  A    between atoms: C_3  and  O_4
REMARK    4  A    between atoms: C_3  and  C_5
REMARK    5  A    between atoms: C_8  and  C_9
REMARK    6  A    between atoms: C_9  and  N_10
REMARK    7  A    between atoms: C_12  and  C_13
REMARK    8  A    between atoms: N_15  and  C_16
REMARK    9  A    between atoms: C_16  and  C_17
REMARK                            x       y       z     vdW  Elec       q    Type
REMARK                         _______ _______ _______ _____ _____    ______ ____
ROOT
ATOM      1  N   UNL     1      48.389   7.752  13.367  0.00  0.00    +0.000 N 
ATOM      2  C   UNL     1      48.057   7.238  14.585  0.00  0.00    +0.000 A 
ATOM      3  C   UNL     1      49.243   7.073  15.285  0.00  0.00    +0.000 A 
ATOM      4  C   UNL     1      50.231   7.465  14.352  0.00  0.00    +0.000 A 
ATOM      5  N   UNL     1      49.721   7.890  13.195  0.00  0.00    +0.000 NA
ENDROOT
BRANCH   3   6
ATOM      6  C   UNL     1      49.388   6.582  16.639  0.00  0.00    +0.000 C 
ATOM      7  O   UNL     1      49.586   7.337  17.592  0.00  0.00    +0.000 OA
ATOM      8  N   UNL     1      49.305   5.218  16.762  0.00  0.00    +0.000 N 
ATOM      9  H   UNL     1      49.371   4.630  15.935  0.00  0.00    +0.000 HD
BRANCH   8  10
ATOM     10  C   UNL     1      49.356   4.552  18.031  0.00  0.00    +0.000 C 
BRANCH  10  11
ATOM     11  C   UNL     1      50.757   4.153  18.374  0.00  0.00    +0.000 A 
ATOM     12  C   UNL     1      51.605   4.907  19.165  0.00  0.00    +0.000 A 
ATOM     13  S   UNL     1      53.078   4.115  19.517  0.00  0.00    +0.000 S 
ATOM     14  C   UNL     1      52.628   2.747  18.605  0.00  0.00    +0.000 A 
ATOM     15  N   UNL     1      53.422   1.647  18.534  0.00  0.00    +0.000 NA
ATOM     16  C   UNL     1      52.951   0.702  17.790  0.00  0.00    +0.000 A 
ATOM     17  N   UNL     1      51.769   0.765  17.093  0.00  0.00    +0.000 N 
ATOM     18  C   UNL     1      50.941   1.863  17.119  0.00  0.00    +0.000 A 
ATOM     19  O   UNL     1      49.911   1.928  16.449  0.00  0.00    +0.000 OA
ATOM     20  C   UNL     1      51.404   2.924  17.992  0.00  0.00    +0.000 A 
ATOM     21  H   UNL     1      51.485   0.002  16.494  0.00  0.00    +0.000 HD
ENDBRANCH  10  11
ENDBRANCH   8  10
ENDBRANCH   3   6
BRANCH   1  22
ATOM     22  C   UNL     1      47.472   8.264  12.357  0.00  0.00    +0.000 C 
BRANCH  22  26
ATOM     23  C   UNL     1      44.418   5.441  11.397  0.00  0.00    +0.000 A 
ATOM     24  C   UNL     1      45.552   5.495  10.592  0.00  0.00    +0.000 A 
ATOM     25  C   UNL     1      46.554   6.419  10.887  0.00  0.00    +0.000 A 
ATOM     26  C   UNL     1      46.405   7.279  11.984  0.00  0.00    +0.000 A 
ATOM     27  C   UNL     1      45.246   7.142  12.740  0.00  0.00    +0.000 A 
ATOM     28  N   UNL     1      44.265   6.252  12.480  0.00  0.00    +0.000 NA
BRANCH  23  29
ATOM     29  C   UNL     1      43.307   4.463  11.065  0.00  0.00    +0.000 C 
BRANCH  29  30
ATOM     30  O   UNL     1      42.108   4.905  11.715  0.00  0.00    +0.000 OA
ATOM     31  H   UNL     1      42.253   5.844  11.937  0.00  0.00    +0.000 HD
ENDBRANCH  29  30
BRANCH  29  32
ATOM     32  C   UNL     1      43.643   3.004  11.462  0.00  0.00    +0.000 C 
BRANCH  32  33
ATOM     33  N   UNL     1      44.520   2.929  12.644  0.00  0.00    +0.000 NA
ATOM     34  H   UNL     1      45.486   2.850  12.323  0.00  0.00    +0.000 HD
ATOM     35  H   UNL     1      44.327   2.064  13.150  0.00  0.00    +0.000 HD
ENDBRANCH  32  33
ENDBRANCH  29  32
ENDBRANCH  23  29
ENDBRANCH  22  26
ENDBRANCH   1  22
TORSDOF 9
ENDMDL
