MODEL 1
REMARK VINA RESULT:    -8.562      0.000      0.000
REMARK INTER + INTRA:         -13.219
REMARK INTER:                 -12.066
REMARK INTRA:                  -1.153
REMARK UNBOUND:                -1.153
REMARK  Name = 
REMARK  9 active torsions:
REMARK  status: ('A' for Active; 'I' for Inactive)
REMARK    1  A    between atoms: C_1  and  O_2
REMARK    2  A    between atoms: O_2  and  C_3
REMARK    3  A    between atoms: C_10  and  C_11
REMARK    4  A    between atoms: N_13  and  C_14
REMARK    5  A    between atoms: C_14  and  C_15
REMARK    6  A    between atoms: C_18  and  N_19
REMARK    7  A    between atoms: N_19  and  C_20
REMARK    8  A    between atoms: C_20  and  C_21
REMARK    9  A    between atoms: C_25  and  C_26
REMARK                            x       y       z     vdW  Elec       q    Type
REMARK                         _______ _______ _______ _____ _____    ______ ____
ROOT
ATOM      1  C   UNL     1      47.091   8.172  13.387  0.00  0.00    +0.000 C 
ENDROOT
BRANCH   1   2
ATOM      2  C   UNL     1      46.274   7.282  12.489  0.00  0.00    +0.000 A 
ATOM      3  C   UNL     1      44.956   6.956  12.824  0.00  0.00    +0.000 A 
ATOM      4  C   UNL     1      44.182   6.152  11.981  0.00  0.00    +0.000 A 
ATOM      5  C   UNL     1      44.697   5.668  10.776  0.00  0.00    +0.000 A 
ATOM      6  C   UNL     1      46.043   5.922  10.489  0.00  0.00    +0.000 A 
ATOM      7  C   UNL     1      46.824   6.733  11.324  0.00  0.00    +0.000 A 
BRANCH   5   8
ATOM      8  N   UNL     1      43.939   4.867   9.904  0.00  0.00    +0.000 N 
ATOM      9  H   UNL     1      42.946   4.986  10.087  0.00  0.00    +0.000 HD
BRANCH   8  10
ATOM     10  C   UNL     1      44.276   3.430   9.886  0.00  0.00    +0.000 C 
BRANCH  10  11
ATOM     11  C   UNL     1      45.296   3.033   8.834  0.00  0.00    +0.000 A 
ATOM     12  C   UNL     1      45.768   3.956   7.904  0.00  0.00    +0.000 A 
ATOM     13  C   UNL     1      46.517   3.503   6.823  0.00  0.00    +0.000 A 
ATOM     14  C   UNL     1      46.808   2.150   6.713  0.00  0.00    +0.000 A 
ATOM     15  C   UNL     1      46.371   1.288   7.711  0.00  0.00    +0.000 A 
ATOM     16  C   UNL     1      46.804  -0.147   7.718  0.00  0.00    +0.000 C 
ATOM     17  N   UNL     1      45.608   1.708   8.752  0.00  0.00    +0.000 NA
ENDBRANCH  10  11
ENDBRANCH   8  10
ENDBRANCH   5   8
ENDBRANCH   1   2
BRANCH   1  20
ATOM     18  C   UNL     1      48.758   6.942  14.694  0.00  0.00    +0.000 C 
ATOM     19  O   UNL     1      49.557   6.955  13.763  0.00  0.00    +0.000 OA
ATOM     20  N   UNL     1      47.505   7.485  14.583  0.00  0.00    +0.000 N 
ATOM     21  H   UNL     1      46.916   7.568  15.405  0.00  0.00    +0.000 HD
BRANCH  18  29
ATOM     22  C   UNL     1      47.431   4.207  16.206  0.00  0.00    +0.000 A 
ATOM     23  N   UNL     1      47.164   3.115  16.947  0.00  0.00    +0.000 NA
ATOM     24  C   UNL     1      47.916   2.897  18.034  0.00  0.00    +0.000 A 
ATOM     25  N   UNL     1      48.903   3.656  18.496  0.00  0.00    +0.000 NA
ATOM     26  C   UNL     1      49.143   4.727  17.721  0.00  0.00    +0.000 A 
ATOM     27  S   UNL     1      50.351   5.839  18.162  0.00  0.00    +0.000 S 
ATOM     28  C   UNL     1      50.046   6.794  16.787  0.00  0.00    +0.000 A 
ATOM     29  C   UNL     1      49.062   6.269  15.960  0.00  0.00    +0.000 A 
ATOM     30  C   UNL     1      48.485   5.069  16.549  0.00  0.00    +0.000 A 
BRANCH  22  32
ATOM     31  C   UNL     1      47.001   3.704  13.953  0.00  0.00    +0.000 C 
ATOM     32  O   UNL     1      46.646   4.473  15.100  0.00  0.00    +0.000 OA
ENDBRANCH  22  32
ENDBRANCH  18  29
ENDBRANCH   1  20
TORSDOF 7
ENDMDL
MODEL 2
REMARK VINA RESULT:    -7.954      1.657      2.088
REMARK INTER + INTRA:         -12.362
REMARK INTER:                 -11.326
REMARK INTRA:                  -1.037
REMARK UNBOUND:                -1.153
REMARK  Name = 
REMARK  9 active torsions:
REMARK  status: ('A' for Active; 'I' for Inactive)
REMARK    1  A    between atoms: C_1  and  O_2
REMARK    2  A    between atoms: O_2  and  C_3
REMARK    3  A    between atoms: C_10  and  C_11
REMARK    4  A    between atoms: N_13  and  C_14
REMARK    5  A    between atoms: C_14  and  C_15
REMARK    6  A    between atoms: C_18  and  N_19
REMARK    7  A    between atoms: N_19  and  C_20
REMARK    8  A    between atoms: C_20  and  C_21
REMARK    9  A    between atoms: C_25  and  C_26
REMARK                            x       y       z     vdW  Elec       q    Type
REMARK                         _______ _______ _______ _____ _____    ______ ____
ROOT
ATOM      1  C   UNL     1      47.931   7.231  13.647  0.00  0.00    +0.000 C 
ENDROOT
BRANCH   1   2
ATOM      2  C   UNL     1      47.047   6.127  13.132  0.00  0.00    +0.000 A 
ATOM      3  C   UNL     1      46.124   6.376  12.112  0.00  0.00    +0.000 A 
ATOM      4  C   UNL     1      45.319   5.350  11.608  0.00  0.00    +0.000 A 
ATOM      5  C   UNL     1      45.427   4.045  12.098  0.00  0.00    +0.000 A 
ATOM      6  C   UNL     1      46.288   3.819  13.178  0.00  0.00    +0.000 A 
ATOM      7  C   UNL     1      47.104   4.841  13.683  0.00  0.00    +0.000 A 
BRANCH   5   8
ATOM      8  N   UNL     1      44.639   2.991  11.604  0.00  0.00    +0.000 N 
ATOM      9  H   UNL     1      45.132   2.107  11.696  0.00  0.00    +0.000 HD
BRANCH   8  10
ATOM     10  C   UNL     1      44.141   3.146  10.223  0.00  0.00    +0.000 C 
BRANCH  10  11
ATOM     11  C   UNL     1      45.186   2.923   9.145  0.00  0.00    +0.000 A 
ATOM     12  C   UNL     1      45.635   3.974   8.349  0.00  0.00    +0.000 A 
ATOM     13  C   UNL     1      46.412   3.691   7.231  0.00  0.00    +0.000 A 
ATOM     14  C   UNL     1      46.752   2.373   6.951  0.00  0.00    +0.000 A 
ATOM     15  C   UNL     1      46.335   1.376   7.824  0.00  0.00    +0.000 A 
ATOM     16  C   UNL     1      46.821  -0.032   7.654  0.00  0.00    +0.000 C 
ATOM     17  N   UNL     1      45.546   1.632   8.899  0.00  0.00    +0.000 NA
ENDBRANCH  10  11
ENDBRANCH   8  10
ENDBRANCH   5   8
ENDBRANCH   1   2
BRANCH   1  20
ATOM     18  C   UNL     1      49.044   7.079  15.824  0.00  0.00    +0.000 C 
ATOM     19  O   UNL     1      50.105   6.748  15.304  0.00  0.00    +0.000 OA
ATOM     20  N   UNL     1      47.911   7.300  15.085  0.00  0.00    +0.000 N 
ATOM     21  H   UNL     1      47.087   7.691  15.530  0.00  0.00    +0.000 HD
BRANCH  18  29
ATOM     22  C   UNL     1      48.724   4.732  18.255  0.00  0.00    +0.000 A 
ATOM     23  N   UNL     1      48.696   4.016  19.396  0.00  0.00    +0.000 NA
ATOM     24  C   UNL     1      48.715   4.685  20.555  0.00  0.00    +0.000 A 
ATOM     25  N   UNL     1      48.735   6.003  20.725  0.00  0.00    +0.000 NA
ATOM     26  C   UNL     1      48.773   6.677  19.563  0.00  0.00    +0.000 A 
ATOM     27  S   UNL     1      48.774   8.377  19.569  0.00  0.00    +0.000 S 
ATOM     28  C   UNL     1      48.836   8.434  17.869  0.00  0.00    +0.000 A 
ATOM     29  C   UNL     1      48.898   7.178  17.279  0.00  0.00    +0.000 A 
ATOM     30  C   UNL     1      48.801   6.133  18.287  0.00  0.00    +0.000 A 
BRANCH  22  32
ATOM     31  C   UNL     1      47.606   3.116  16.969  0.00  0.00    +0.000 C 
ATOM     32  O   UNL     1      48.668   4.065  17.045  0.00  0.00    +0.000 OA
ENDBRANCH  22  32
ENDBRANCH  18  29
ENDBRANCH   1  20
TORSDOF 7
ENDMDL
MODEL 3
REMARK VINA RESULT:    -7.593      1.664      2.163
REMARK INTER + INTRA:         -11.854
REMARK INTER:                 -10.673
REMARK INTRA:                  -1.181
REMARK UNBOUND:                -1.153
REMARK  Name = 
REMARK  9 active torsions:
REMARK  status: ('A' for Active; 'I' for Inactive)
REMARK    1  A    between atoms: C_1  and  O_2
REMARK    2  A    between atoms: O_2  and  C_3
REMARK    3  A    between atoms: C_10  and  C_11
REMARK    4  A    between atoms: N_13  and  C_14
REMARK    5  A    between atoms: C_14  and  C_15
REMARK    6  A    between atoms: C_18  and  N_19
REMARK    7  A    between atoms: N_19  and  C_20
REMARK    8  A    between atoms: C_20  and  C_21
REMARK    9  A    between atoms: C_25  and  C_26
REMARK                            x       y       z     vdW  Elec       q    Type
REMARK                         _______ _______ _______ _____ _____    ______ ____
ROOT
ATOM      1  C   UNL     1      47.475   7.241  13.981  0.00  0.00    +0.000 C 
ENDROOT
BRANCH   1   2
ATOM      2  C   UNL     1      46.732   6.120  13.304  0.00  0.00    +0.000 A 
ATOM      3  C   UNL     1      46.950   4.794  13.686  0.00  0.00    +0.000 A 
ATOM      4  C   UNL     1      46.243   3.749  13.081  0.00  0.00    +0.000 A 
ATOM      5  C   UNL     1      45.288   4.005  12.093  0.00  0.00    +0.000 A 
ATOM      6  C   UNL     1      45.137   5.325  11.652  0.00  0.00    +0.000 A 
ATOM      7  C   UNL     1      45.836   6.378  12.259  0.00  0.00    +0.000 A 
BRANCH   5   8
ATOM      8  N   UNL     1      44.554   2.977  11.475  0.00  0.00    +0.000 N 
ATOM      9  H   UNL     1      45.060   2.097  11.533  0.00  0.00    +0.000 HD
BRANCH   8  10
ATOM     10  C   UNL     1      44.139   3.226  10.081  0.00  0.00    +0.000 C 
BRANCH  10  11
ATOM     11  C   UNL     1      45.214   2.957   9.043  0.00  0.00    +0.000 A 
ATOM     12  C   UNL     1      45.717   3.981   8.244  0.00  0.00    +0.000 A 
ATOM     13  C   UNL     1      46.523   3.658   7.159  0.00  0.00    +0.000 A 
ATOM     14  C   UNL     1      46.839   2.328   6.914  0.00  0.00    +0.000 A 
ATOM     15  C   UNL     1      46.367   1.358   7.790  0.00  0.00    +0.000 A 
ATOM     16  C   UNL     1      46.822  -0.065   7.660  0.00  0.00    +0.000 C 
ATOM     17  N   UNL     1      45.549   1.652   8.832  0.00  0.00    +0.000 NA
ENDBRANCH  10  11
ENDBRANCH   8  10
ENDBRANCH   5   8
ENDBRANCH   1   2
BRANCH   1  20
ATOM     18  C   UNL     1      49.107   7.370  15.803  0.00  0.00    +0.000 C 
ATOM     19  O   UNL     1      48.581   8.382  16.257  0.00  0.00    +0.000 OA
ATOM     20  N   UNL     1      48.650   6.763  14.663  0.00  0.00    +0.000 N 
ATOM     21  H   UNL     1      49.027   5.863  14.385  0.00  0.00    +0.000 HD
BRANCH  18  29
ATOM     22  C   UNL     1      49.741   4.335  17.185  0.00  0.00    +0.000 A 
ATOM     23  N   UNL     1      50.274   3.198  17.673  0.00  0.00    +0.000 NA
ATOM     24  C   UNL     1      51.583   3.192  17.956  0.00  0.00    +0.000 A 
ATOM     25  N   UNL     1      52.439   4.200  17.834  0.00  0.00    +0.000 NA
ATOM     26  C   UNL     1      51.868   5.310  17.334  0.00  0.00    +0.000 A 
ATOM     27  S   UNL     1      52.794   6.721  17.131  0.00  0.00    +0.000 S 
ATOM     28  C   UNL     1      51.458   7.570  16.508  0.00  0.00    +0.000 A 
ATOM     29  C   UNL     1      50.311   6.792  16.406  0.00  0.00    +0.000 A 
ATOM     30  C   UNL     1      50.543   5.464  16.954  0.00  0.00    +0.000 A 
BRANCH  22  32
ATOM     31  C   UNL     1      47.676   3.240  17.405  0.00  0.00    +0.000 C 
ATOM     32  O   UNL     1      48.385   4.378  16.920  0.00  0.00    +0.000 OA
ENDBRANCH  22  32
ENDBRANCH  18  29
ENDBRANCH   1  20
TORSDOF 7
ENDMDL
MODEL 4
REMARK VINA RESULT:    -7.543      2.240      2.936
REMARK INTER + INTRA:         -11.784
REMARK INTER:                 -10.869
REMARK INTRA:                  -0.915
REMARK UNBOUND:                -1.153
REMARK  Name = 
REMARK  9 active torsions:
REMARK  status: ('A' for Active; 'I' for Inactive)
REMARK    1  A    between atoms: C_1  and  O_2
REMARK    2  A    between atoms: O_2  and  C_3
REMARK    3  A    between atoms: C_10  and  C_11
REMARK    4  A    between atoms: N_13  and  C_14
REMARK    5  A    between atoms: C_14  and  C_15
REMARK    6  A    between atoms: C_18  and  N_19
REMARK    7  A    between atoms: N_19  and  C_20
REMARK    8  A    between atoms: C_20  and  C_21
REMARK    9  A    between atoms: C_25  and  C_26
REMARK                            x       y       z     vdW  Elec       q    Type
REMARK                         _______ _______ _______ _____ _____    ______ ____
ROOT
ATOM      1  C   UNL     1      48.357   6.764  13.982  0.00  0.00    +0.000 C 
ENDROOT
BRANCH   1   2
ATOM      2  C   UNL     1      47.255   6.182  13.138  0.00  0.00    +0.000 A 
ATOM      3  C   UNL     1      46.559   5.048  13.567  0.00  0.00    +0.000 A 
ATOM      4  C   UNL     1      45.515   4.518  12.801  0.00  0.00    +0.000 A 
ATOM      5  C   UNL     1      45.129   5.116  11.599  0.00  0.00    +0.000 A 
ATOM      6  C   UNL     1      45.886   6.197  11.131  0.00  0.00    +0.000 A 
ATOM      7  C   UNL     1      46.928   6.739  11.896  0.00  0.00    +0.000 A 
BRANCH   5   8
ATOM      8  N   UNL     1      44.077   4.612  10.814  0.00  0.00    +0.000 N 
ATOM      9  H   UNL     1      43.189   4.728  11.296  0.00  0.00    +0.000 HD
BRANCH   8  10
ATOM     10  C   UNL     1      44.221   3.215  10.358  0.00  0.00    +0.000 C 
BRANCH  10  11
ATOM     11  C   UNL     1      45.204   3.021   9.216  0.00  0.00    +0.000 A 
ATOM     12  C   UNL     1      45.555   4.078   8.380  0.00  0.00    +0.000 A 
ATOM     13  C   UNL     1      46.270   3.811   7.218  0.00  0.00    +0.000 A 
ATOM     14  C   UNL     1      46.649   2.506   6.933  0.00  0.00    +0.000 A 
ATOM     15  C   UNL     1      46.332   1.505   7.843  0.00  0.00    +0.000 A 
ATOM     16  C   UNL     1      46.866   0.116   7.659  0.00  0.00    +0.000 C 
ATOM     17  N   UNL     1      45.603   1.742   8.963  0.00  0.00    +0.000 NA
ENDBRANCH  10  11
ENDBRANCH   8  10
ENDBRANCH   5   8
ENDBRANCH   1   2
BRANCH   1  20
ATOM     18  C   UNL     1      49.267   6.286  16.206  0.00  0.00    +0.000 C 
ATOM     19  O   UNL     1      50.421   6.349  15.792  0.00  0.00    +0.000 OA
ATOM     20  N   UNL     1      48.188   6.440  15.375  0.00  0.00    +0.000 N 
ATOM     21  H   UNL     1      47.255   6.506  15.767  0.00  0.00    +0.000 HD
BRANCH  18  29
ATOM     22  C   UNL     1      47.997   8.120  18.764  0.00  0.00    +0.000 A 
ATOM     23  N   UNL     1      47.421   8.584  19.890  0.00  0.00    +0.000 NA
ATOM     24  C   UNL     1      47.258   7.729  20.908  0.00  0.00    +0.000 A 
ATOM     25  N   UNL     1      47.625   6.453  20.954  0.00  0.00    +0.000 NA
ATOM     26  C   UNL     1      48.185   6.029  19.808  0.00  0.00    +0.000 A 
ATOM     27  S   UNL     1      48.749   4.431  19.680  0.00  0.00    +0.000 S 
ATOM     28  C   UNL     1      49.253   4.683  18.075  0.00  0.00    +0.000 A 
ATOM     29  C   UNL     1      48.967   5.957  17.602  0.00  0.00    +0.000 A 
ATOM     30  C   UNL     1      48.385   6.775  18.656  0.00  0.00    +0.000 A 
BRANCH  22  32
ATOM     31  C   UNL     1      49.447   9.695  17.800  0.00  0.00    +0.000 C 
ATOM     32  O   UNL     1      48.209   8.993  17.713  0.00  0.00    +0.000 OA
ENDBRANCH  22  32
ENDBRANCH  18  29
ENDBRANCH   1  20
TORSDOF 7
ENDMDL
MODEL 5
REMARK VINA RESULT:    -7.444      1.823      3.417
REMARK INTER + INTRA:         -11.643
REMARK INTER:                 -10.464
REMARK INTRA:                  -1.180
REMARK UNBOUND:                -1.153
REMARK  Name = 
REMARK  9 active torsions:
REMARK  status: ('A' for Active; 'I' for Inactive)
REMARK    1  A    between atoms: C_1  and  O_2
REMARK    2  A    between atoms: O_2  and  C_3
REMARK    3  A    between atoms: C_10  and  C_11
REMARK    4  A    between atoms: N_13  and  C_14
REMARK    5  A    between atoms: C_14  and  C_15
REMARK    6  A    between atoms: C_18  and  N_19
REMARK    7  A    between atoms: N_19  and  C_20
REMARK    8  A    between atoms: C_20  and  C_21
REMARK    9  A    between atoms: C_25  and  C_26
REMARK                            x       y       z     vdW  Elec       q    Type
REMARK                         _______ _______ _______ _____ _____    ______ ____
ROOT
ATOM      1  C   UNL     1      46.750   4.395  15.048  0.00  0.00    +0.000 C 
ENDROOT
BRANCH   1   2
ATOM      2  C   UNL     1      46.226   4.594  13.651  0.00  0.00    +0.000 A 
ATOM      3  C   UNL     1      46.165   5.873  13.092  0.00  0.00    +0.000 A 
ATOM      4  C   UNL     1      45.706   6.062  11.784  0.00  0.00    +0.000 A 
ATOM      5  C   UNL     1      45.313   4.978  10.996  0.00  0.00    +0.000 A 
ATOM      6  C   UNL     1      45.291   3.709  11.589  0.00  0.00    +0.000 A 
ATOM      7  C   UNL     1      45.758   3.511  12.896  0.00  0.00    +0.000 A 
BRANCH   5   8
ATOM      8  N   UNL     1      44.857   5.136   9.676  0.00  0.00    +0.000 N 
ATOM      9  H   UNL     1      44.080   5.791   9.646  0.00  0.00    +0.000 HD
BRANCH   8  10
ATOM     10  C   UNL     1      44.495   3.896   8.963  0.00  0.00    +0.000 C 
BRANCH  10  11
ATOM     11  C   UNL     1      45.643   3.232   8.223  0.00  0.00    +0.000 A 
ATOM     12  C   UNL     1      46.484   3.968   7.391  0.00  0.00    +0.000 A 
ATOM     13  C   UNL     1      47.370   3.292   6.559  0.00  0.00    +0.000 A 
ATOM     14  C   UNL     1      47.423   1.905   6.600  0.00  0.00    +0.000 A 
ATOM     15  C   UNL     1      46.611   1.232   7.504  0.00  0.00    +0.000 A 
ATOM     16  C   UNL     1      46.758  -0.248   7.699  0.00  0.00    +0.000 C 
ATOM     17  N   UNL     1      45.715   1.873   8.296  0.00  0.00    +0.000 NA
ENDBRANCH  10  11
ENDBRANCH   8  10
ENDBRANCH   5   8
ENDBRANCH   1   2
BRANCH   1  20
ATOM     18  C   UNL     1      48.659   5.309  16.281  0.00  0.00    +0.000 C 
ATOM     19  O   UNL     1      48.942   4.206  16.740  0.00  0.00    +0.000 OA
ATOM     20  N   UNL     1      47.572   5.500  15.469  0.00  0.00    +0.000 N 
ATOM     21  H   UNL     1      47.437   6.394  15.008  0.00  0.00    +0.000 HD
BRANCH  18  29
ATOM     22  C   UNL     1      49.965   7.830  14.421  0.00  0.00    +0.000 A 
ATOM     23  N   UNL     1      50.473   8.980  13.937  0.00  0.00    +0.000 NA
ATOM     24  C   UNL     1      50.963   9.866  14.814  0.00  0.00    +0.000 A 
ATOM     25  N   UNL     1      51.034   9.737  16.134  0.00  0.00    +0.000 NA
ATOM     26  C   UNL     1      50.507   8.582  16.574  0.00  0.00    +0.000 A 
ATOM     27  S   UNL     1      50.531   8.218  18.235  0.00  0.00    +0.000 S 
ATOM     28  C   UNL     1      49.744   6.732  17.972  0.00  0.00    +0.000 A 
ATOM     29  C   UNL     1      49.418   6.510  16.640  0.00  0.00    +0.000 A 
ATOM     30  C   UNL     1      49.926   7.586  15.802  0.00  0.00    +0.000 A 
BRANCH  22  32
ATOM     31  C   UNL     1      49.489   7.327  12.177  0.00  0.00    +0.000 C 
ATOM     32  O   UNL     1      49.487   6.884  13.533  0.00  0.00    +0.000 OA
ENDBRANCH  22  32
ENDBRANCH  18  29
ENDBRANCH   1  20
TORSDOF 7
ENDMDL
MODEL 6
REMARK VINA RESULT:    -7.184      4.113      8.998
REMARK INTER + INTRA:         -11.277
REMARK INTER:                 -10.368
REMARK INTRA:                  -0.908
REMARK UNBOUND:                -1.153
REMARK  Name = 
REMARK  9 active torsions:
REMARK  status: ('A' for Active; 'I' for Inactive)
REMARK    1  A    between atoms: C_1  and  O_2
REMARK    2  A    between atoms: O_2  and  C_3
REMARK    3  A    between atoms: C_10  and  C_11
REMARK    4  A    between atoms: N_13  and  C_14
REMARK    5  A    between atoms: C_14  and  C_15
REMARK    6  A    between atoms: C_18  and  N_19
REMARK    7  A    between atoms: N_19  and  C_20
REMARK    8  A    between atoms: C_20  and  C_21
REMARK    9  A    between atoms: C_25  and  C_26
REMARK                            x       y       z     vdW  Elec       q    Type
REMARK                         _______ _______ _______ _____ _____    ______ ____
ROOT
ATOM      1  C   UNL     1      47.153   3.614  16.777  0.00  0.00    +0.000 C 
ENDROOT
BRANCH   1   2
ATOM      2  C   UNL     1      48.632   3.659  17.054  0.00  0.00    +0.000 A 
ATOM      3  C   UNL     1      49.288   4.884  17.208  0.00  0.00    +0.000 A 
ATOM      4  C   UNL     1      50.656   4.933  17.493  0.00  0.00    +0.000 A 
ATOM      5  C   UNL     1      51.401   3.760  17.649  0.00  0.00    +0.000 A 
ATOM      6  C   UNL     1      50.760   2.539  17.407  0.00  0.00    +0.000 A 
ATOM      7  C   UNL     1      49.387   2.482  17.129  0.00  0.00    +0.000 A 
BRANCH   5   8
ATOM      8  N   UNL     1      52.774   3.778  17.946  0.00  0.00    +0.000 N 
ATOM      9  H   UNL     1      53.322   3.716  17.092  0.00  0.00    +0.000 HD
BRANCH   8  10
ATOM     10  C   UNL     1      53.241   2.768  18.916  0.00  0.00    +0.000 C 
BRANCH  10  11
ATOM     11  C   UNL     1      53.983   1.595  18.300  0.00  0.00    +0.000 A 
ATOM     12  C   UNL     1      54.712   1.743  17.122  0.00  0.00    +0.000 A 
ATOM     13  C   UNL     1      55.181   0.607  16.471  0.00  0.00    +0.000 A 
ATOM     14  C   UNL     1      54.945  -0.644  17.025  0.00  0.00    +0.000 A 
ATOM     15  C   UNL     1      54.275  -0.722  18.239  0.00  0.00    +0.000 A 
ATOM     16  C   UNL     1      54.147  -2.035  18.952  0.00  0.00    +0.000 C 
ATOM     17  N   UNL     1      53.779   0.374  18.869  0.00  0.00    +0.000 NA
ENDBRANCH  10  11
ENDBRANCH   8  10
ENDBRANCH   5   8
ENDBRANCH   1   2
BRANCH   1  20
ATOM     18  C   UNL     1      46.790   4.268  14.445  0.00  0.00    +0.000 C 
ATOM     19  O   UNL     1      47.195   3.184  14.036  0.00  0.00    +0.000 OA
ATOM     20  N   UNL     1      46.771   4.579  15.779  0.00  0.00    +0.000 N 
ATOM     21  H   UNL     1      46.316   5.430  16.093  0.00  0.00    +0.000 HD
BRANCH  18  29
ATOM     22  C   UNL     1      43.965   4.752  12.627  0.00  0.00    +0.000 A 
ATOM     23  N   UNL     1      42.929   5.228  11.908  0.00  0.00    +0.000 NA
ATOM     24  C   UNL     1      43.062   6.432  11.339  0.00  0.00    +0.000 A 
ATOM     25  N   UNL     1      44.125   7.228  11.377  0.00  0.00    +0.000 NA
ATOM     26  C   UNL     1      45.129   6.721  12.112  0.00  0.00    +0.000 A 
ATOM     27  S   UNL     1      46.590   7.578  12.258  0.00  0.00    +0.000 S 
ATOM     28  C   UNL     1      47.258   6.373  13.256  0.00  0.00    +0.000 A 
ATOM     29  C   UNL     1      46.378   5.332  13.526  0.00  0.00    +0.000 A 
ATOM     30  C   UNL     1      45.132   5.513  12.795  0.00  0.00    +0.000 A 
BRANCH  22  32
ATOM     31  C   UNL     1      43.582   2.467  12.246  0.00  0.00    +0.000 C 
ATOM     32  O   UNL     1      43.865   3.495  13.193  0.00  0.00    +0.000 OA
ENDBRANCH  22  32
ENDBRANCH  18  29
ENDBRANCH   1  20
TORSDOF 7
ENDMDL
MODEL 7
REMARK VINA RESULT:    -6.948      2.275      3.034
REMARK INTER + INTRA:         -10.945
REMARK INTER:                  -9.919
REMARK INTRA:                  -1.026
REMARK UNBOUND:                -1.153
REMARK  Name = 
REMARK  9 active torsions:
REMARK  status: ('A' for Active; 'I' for Inactive)
REMARK    1  A    between atoms: C_1  and  O_2
REMARK    2  A    between atoms: O_2  and  C_3
REMARK    3  A    between atoms: C_10  and  C_11
REMARK    4  A    between atoms: N_13  and  C_14
REMARK    5  A    between atoms: C_14  and  C_15
REMARK    6  A    between atoms: C_18  and  N_19
REMARK    7  A    between atoms: N_19  and  C_20
REMARK    8  A    between atoms: C_20  and  C_21
REMARK    9  A    between atoms: C_25  and  C_26
REMARK                            x       y       z     vdW  Elec       q    Type
REMARK                         _______ _______ _______ _____ _____    ______ ____
ROOT
ATOM      1  C   UNL     1      46.506   8.056  13.282  0.00  0.00    +0.000 C 
ENDROOT
BRANCH   1   2
ATOM      2  C   UNL     1      45.962   6.758  12.748  0.00  0.00    +0.000 A 
ATOM      3  C   UNL     1      46.404   5.538  13.267  0.00  0.00    +0.000 A 
ATOM      4  C   UNL     1      45.883   4.329  12.796  0.00  0.00    +0.000 A 
ATOM      5  C   UNL     1      44.896   4.308  11.807  0.00  0.00    +0.000 A 
ATOM      6  C   UNL     1      44.521   5.526  11.228  0.00  0.00    +0.000 A 
ATOM      7  C   UNL     1      45.033   6.742  11.700  0.00  0.00    +0.000 A 
BRANCH   5   8
ATOM      8  N   UNL     1      44.346   3.108  11.321  0.00  0.00    +0.000 N 
ATOM      9  H   UNL     1      44.967   2.328  11.520  0.00  0.00    +0.000 HD
BRANCH   8  10
ATOM     10  C   UNL     1      43.969   3.100   9.894  0.00  0.00    +0.000 C 
BRANCH  10  11
ATOM     11  C   UNL     1      45.131   2.907   8.935  0.00  0.00    +0.000 A 
ATOM     12  C   UNL     1      45.654   3.977   8.214  0.00  0.00    +0.000 A 
ATOM     13  C   UNL     1      46.553   3.722   7.184  0.00  0.00    +0.000 A 
ATOM     14  C   UNL     1      46.936   2.414   6.920  0.00  0.00    +0.000 A 
ATOM     15  C   UNL     1      46.435   1.396   7.721  0.00  0.00    +0.000 A 
ATOM     16  C   UNL     1      46.951  -0.005   7.579  0.00  0.00    +0.000 C 
ATOM     17  N   UNL     1      45.529   1.623   8.706  0.00  0.00    +0.000 NA
ENDBRANCH  10  11
ENDBRANCH   8  10
ENDBRANCH   5   8
ENDBRANCH   1   2
BRANCH   1  20
ATOM     18  C   UNL     1      48.528   8.477  14.599  0.00  0.00    +0.000 C 
ATOM     19  O   UNL     1      47.884   9.030  15.485  0.00  0.00    +0.000 OA
ATOM     20  N   UNL     1      47.934   8.001  13.459  0.00  0.00    +0.000 N 
ATOM     21  H   UNL     1      48.472   7.441  12.806  0.00  0.00    +0.000 HD
BRANCH  18  29
ATOM     22  C   UNL     1      50.594   6.636  16.565  0.00  0.00    +0.000 A 
ATOM     23  N   UNL     1      51.607   5.948  17.126  0.00  0.00    +0.000 NA
ATOM     24  C   UNL     1      52.844   6.163  16.659  0.00  0.00    +0.000 A 
ATOM     25  N   UNL     1      53.208   7.010  15.703  0.00  0.00    +0.000 NA
ATOM     26  C   UNL     1      52.166   7.667  15.165  0.00  0.00    +0.000 A 
ATOM     27  S   UNL     1      52.431   8.820  13.944  0.00  0.00    +0.000 S 
ATOM     28  C   UNL     1      50.765   9.146  13.819  0.00  0.00    +0.000 A 
ATOM     29  C   UNL     1      49.987   8.364  14.664  0.00  0.00    +0.000 A 
ATOM     30  C   UNL     1      50.829   7.526  15.506  0.00  0.00    +0.000 A 
BRANCH  22  32
ATOM     31  C   UNL     1      48.646   5.326  16.499  0.00  0.00    +0.000 C 
ATOM     32  O   UNL     1      49.313   6.458  17.054  0.00  0.00    +0.000 OA
ENDBRANCH  22  32
ENDBRANCH  18  29
ENDBRANCH   1  20
TORSDOF 7
ENDMDL
MODEL 8
REMARK VINA RESULT:    -6.653      4.357      9.178
REMARK INTER + INTRA:         -10.529
REMARK INTER:                  -9.246
REMARK INTRA:                  -1.284
REMARK UNBOUND:                -1.153
REMARK  Name = 
REMARK  9 active torsions:
REMARK  status: ('A' for Active; 'I' for Inactive)
REMARK    1  A    between atoms: C_1  and  O_2
REMARK    2  A    between atoms: O_2  and  C_3
REMARK    3  A    between atoms: C_10  and  C_11
REMARK    4  A    between atoms: N_13  and  C_14
REMARK    5  A    between atoms: C_14  and  C_15
REMARK    6  A    between atoms: C_18  and  N_19
REMARK    7  A    between atoms: N_19  and  C_20
REMARK    8  A    between atoms: C_20  and  C_21
REMARK    9  A    between atoms: C_25  and  C_26
REMARK                            x       y       z     vdW  Elec       q    Type
REMARK                         _______ _______ _______ _____ _____    ______ ____
ROOT
ATOM      1  C   UNL     1      47.473   3.658  17.277  0.00  0.00    +0.000 C 
ENDROOT
BRANCH   1   2
ATOM      2  C   UNL     1      48.963   3.541  17.461  0.00  0.00    +0.000 A 
ATOM      3  C   UNL     1      49.616   2.335  17.191  0.00  0.00    +0.000 A 
ATOM      4  C   UNL     1      51.004   2.227  17.333  0.00  0.00    +0.000 A 
ATOM      5  C   UNL     1      51.775   3.323  17.729  0.00  0.00    +0.000 A 
ATOM      6  C   UNL     1      51.106   4.501  18.083  0.00  0.00    +0.000 A 
ATOM      7  C   UNL     1      49.717   4.620  17.937  0.00  0.00    +0.000 A 
BRANCH   5   8
ATOM      8  N   UNL     1      53.171   3.246  17.870  0.00  0.00    +0.000 N 
ATOM      9  H   UNL     1      53.607   3.054  16.971  0.00  0.00    +0.000 HD
BRANCH   8  10
ATOM     10  C   UNL     1      53.669   2.295  18.883  0.00  0.00    +0.000 C 
BRANCH  10  11
ATOM     11  C   UNL     1      54.221   0.999  18.317  0.00  0.00    +0.000 A 
ATOM     12  C   UNL     1      54.567   0.890  16.972  0.00  0.00    +0.000 A 
ATOM     13  C   UNL     1      54.846  -0.367  16.446  0.00  0.00    +0.000 A 
ATOM     14  C   UNL     1      54.810  -1.479  17.278  0.00  0.00    +0.000 A 
ATOM     15  C   UNL     1      54.531  -1.296  18.626  0.00  0.00    +0.000 A 
ATOM     16  C   UNL     1      54.647  -2.441  19.587  0.00  0.00    +0.000 C 
ATOM     17  N   UNL     1      54.219  -0.082  19.148  0.00  0.00    +0.000 NA
ENDBRANCH  10  11
ENDBRANCH   8  10
ENDBRANCH   5   8
ENDBRANCH   1   2
BRANCH   1  20
ATOM     18  C   UNL     1      47.098   4.195  14.917  0.00  0.00    +0.000 C 
ATOM     19  O   UNL     1      47.410   3.060  14.568  0.00  0.00    +0.000 OA
ATOM     20  N   UNL     1      47.138   4.587  16.230  0.00  0.00    +0.000 N 
ATOM     21  H   UNL     1      46.758   5.488  16.498  0.00  0.00    +0.000 HD
BRANCH  18  29
ATOM     22  C   UNL     1      48.699   7.002  13.880  0.00  0.00    +0.000 A 
ATOM     23  N   UNL     1      49.163   8.088  13.229  0.00  0.00    +0.000 NA
ATOM     24  C   UNL     1      48.417   8.588  12.236  0.00  0.00    +0.000 A 
ATOM     25  N   UNL     1      47.235   8.150  11.817  0.00  0.00    +0.000 NA
ATOM     26  C   UNL     1      46.816   7.061  12.484  0.00  0.00    +0.000 A 
ATOM     27  S   UNL     1      45.309   6.367  12.113  0.00  0.00    +0.000 S 
ATOM     28  C   UNL     1      45.522   5.153  13.287  0.00  0.00    +0.000 A 
ATOM     29  C   UNL     1      46.744   5.230  13.942  0.00  0.00    +0.000 A 
ATOM     30  C   UNL     1      47.488   6.402  13.504  0.00  0.00    +0.000 A 
BRANCH  22  32
ATOM     31  C   UNL     1      50.556   7.295  15.287  0.00  0.00    +0.000 C 
ATOM     32  O   UNL     1      49.433   6.490  14.933  0.00  0.00    +0.000 OA
ENDBRANCH  22  32
ENDBRANCH  18  29
ENDBRANCH   1  20
TORSDOF 7
ENDMDL
MODEL 9
REMARK VINA RESULT:    -6.480      3.473      8.880
REMARK INTER + INTRA:         -10.286
REMARK INTER:                  -9.113
REMARK INTRA:                  -1.173
REMARK UNBOUND:                -1.153
REMARK  Name = 
REMARK  9 active torsions:
REMARK  status: ('A' for Active; 'I' for Inactive)
REMARK    1  A    between atoms: C_1  and  O_2
REMARK    2  A    between atoms: O_2  and  C_3
REMARK    3  A    between atoms: C_10  and  C_11
REMARK    4  A    between atoms: N_13  and  C_14
REMARK    5  A    between atoms: C_14  and  C_15
REMARK    6  A    between atoms: C_18  and  N_19
REMARK    7  A    between atoms: N_19  and  C_20
REMARK    8  A    between atoms: C_20  and  C_21
REMARK    9  A    between atoms: C_25  and  C_26
REMARK                            x       y       z     vdW  Elec       q    Type
REMARK                         _______ _______ _______ _____ _____    ______ ____
ROOT
ATOM      1  C   UNL     1      47.158   3.422  16.875  0.00  0.00    +0.000 C 
ENDROOT
BRANCH   1   2
ATOM      2  C   UNL     1      48.594   3.489  17.321  0.00  0.00    +0.000 A 
ATOM      3  C   UNL     1      49.062   4.593  18.039  0.00  0.00    +0.000 A 
ATOM      4  C   UNL     1      50.388   4.650  18.481  0.00  0.00    +0.000 A 
ATOM      5  C   UNL     1      51.275   3.600  18.231  0.00  0.00    +0.000 A 
ATOM      6  C   UNL     1      50.827   2.538  17.436  0.00  0.00    +0.000 A 
ATOM      7  C   UNL     1      49.498   2.470  16.997  0.00  0.00    +0.000 A 
BRANCH   5   8
ATOM      8  N   UNL     1      52.610   3.624  18.672  0.00  0.00    +0.000 N 
ATOM      9  H   UNL     1      52.682   4.123  19.555  0.00  0.00    +0.000 HD
BRANCH   8  10
ATOM     10  C   UNL     1      53.599   4.156  17.713  0.00  0.00    +0.000 C 
BRANCH  10  11
ATOM     11  C   UNL     1      53.556   5.663  17.531  0.00  0.00    +0.000 A 
ATOM     12  C   UNL     1      53.684   6.523  18.619  0.00  0.00    +0.000 A 
ATOM     13  C   UNL     1      53.410   7.876  18.446  0.00  0.00    +0.000 A 
ATOM     14  C   UNL     1      53.051   8.345  17.189  0.00  0.00    +0.000 A 
ATOM     15  C   UNL     1      53.012   7.449  16.128  0.00  0.00    +0.000 A 
ATOM     16  C   UNL     1      52.795   7.941  14.728  0.00  0.00    +0.000 C 
ATOM     17  N   UNL     1      53.240   6.121  16.287  0.00  0.00    +0.000 NA
ENDBRANCH  10  11
ENDBRANCH   8  10
ENDBRANCH   5   8
ENDBRANCH   1   2
BRANCH   1  20
ATOM     18  C   UNL     1      46.937   4.161  14.550  0.00  0.00    +0.000 C 
ATOM     19  O   UNL     1      47.327   3.077  14.126  0.00  0.00    +0.000 OA
ATOM     20  N   UNL     1      46.859   4.430  15.892  0.00  0.00    +0.000 N 
ATOM     21  H   UNL     1      46.418   5.287  16.209  0.00  0.00    +0.000 HD
BRANCH  18  29
ATOM     22  C   UNL     1      44.218   4.810  12.625  0.00  0.00    +0.000 A 
ATOM     23  N   UNL     1      43.234   5.347  11.877  0.00  0.00    +0.000 NA
ATOM     24  C   UNL     1      43.440   6.562  11.352  0.00  0.00    +0.000 A 
ATOM     25  N   UNL     1      44.530   7.313  11.461  0.00  0.00    +0.000 NA
ATOM     26  C   UNL     1      45.480   6.745  12.224  0.00  0.00    +0.000 A 
ATOM     27  S   UNL     1      46.964   7.539  12.460  0.00  0.00    +0.000 S 
ATOM     28  C   UNL     1      47.539   6.279  13.449  0.00  0.00    +0.000 A 
ATOM     29  C   UNL     1      46.608   5.267  13.647  0.00  0.00    +0.000 A 
ATOM     30  C   UNL     1      45.404   5.519  12.869  0.00  0.00    +0.000 A 
BRANCH  22  32
ATOM     31  C   UNL     1      43.554   2.599  12.197  0.00  0.00    +0.000 C 
ATOM     32  O   UNL     1      44.044   3.542  13.148  0.00  0.00    +0.000 OA
ENDBRANCH  22  32
ENDBRANCH  18  29
ENDBRANCH   1  20
TORSDOF 7
ENDMDL
