MODEL 1
REMARK VINA RESULT:    -8.378      0.000      0.000
REMARK INTER + INTRA:         -13.125
REMARK INTER:                 -11.807
REMARK INTRA:                  -1.318
REMARK UNBOUND:                -1.318
REMARK  Name = 
REMARK  8 active torsions:
REMARK  status: ('A' for Active; 'I' for Inactive)
REMARK    1  A    between atoms: C_1  and  C_2
REMARK    2  A    between atoms: C_2  and  N_3
REMARK    3  A    between atoms: C_2  and  C_25
REMARK    4  A    between atoms: N_3  and  C_4
REMARK    5  A    between atoms: C_4  and  C_5
REMARK    6  A    between atoms: C_8  and  C_9
REMARK    7  A    between atoms: C_9  and  N_10
REMARK    8  A    between atoms: C_11  and  C_13
REMARK                            x       y       z     vdW  Elec       q    Type
REMARK                         _______ _______ _______ _____ _____    ______ ____
ROOT
ATOM      1  C   UNL     1      44.485   5.286  11.017  0.00  0.00    +0.000 A 
ATOM      2  C   UNL     1      45.704   5.728  10.477  0.00  0.00    +0.000 A 
ATOM      3  C   UNL     1      46.535   6.586  11.200  0.00  0.00    +0.000 A 
ATOM      4  C   UNL     1      46.168   7.015  12.481  0.00  0.00    +0.000 A 
ATOM      5  C   UNL     1      44.927   6.619  12.997  0.00  0.00    +0.000 A 
ATOM      6  C   UNL     1      44.095   5.757  12.275  0.00  0.00    +0.000 A 
ENDROOT
BRANCH   1   7
ATOM      7  C   UNL     1      43.626   4.307  10.247  0.00  0.00    +0.000 C 
BRANCH   7   8
ATOM      8  N   UNL     1      44.301   3.906   9.016  0.00  0.00    +0.000 NA
ATOM      9  H   UNL     1      44.954   4.644   8.750  0.00  0.00    +0.000 HD
BRANCH   8  11
ATOM     10  C   UNL     1      44.138   1.410   9.163  0.00  0.00    +0.000 C 
ATOM     11  C   UNL     1      45.046   2.646   9.107  0.00  0.00    +0.000 C 
BRANCH  11  12
ATOM     12  C   UNL     1      45.985   2.535   7.912  0.00  0.00    +0.000 A 
ATOM     13  C   UNL     1      46.086   3.583   6.984  0.00  0.00    +0.000 A 
ATOM     14  C   UNL     1      46.966   3.490   5.902  0.00  0.00    +0.000 A 
ATOM     15  C   UNL     1      47.754   2.353   5.733  0.00  0.00    +0.000 A 
ATOM     16  C   UNL     1      47.654   1.299   6.637  0.00  0.00    +0.000 A 
ATOM     17  C   UNL     1      46.772   1.387   7.715  0.00  0.00    +0.000 A 
ENDBRANCH  11  12
ENDBRANCH   8  11
ENDBRANCH   7   8
ENDBRANCH   1   7
BRANCH   4  18
ATOM     18  C   UNL     1      47.080   7.904  13.284  0.00  0.00    +0.000 C 
BRANCH  18  19
ATOM     19  N   UNL     1      47.480   7.269  14.512  0.00  0.00    +0.000 N 
ATOM     20  C   UNL     1      48.750   6.782  14.676  0.00  0.00    +0.000 C 
ATOM     21  O   UNL     1      49.604   6.882  13.799  0.00  0.00    +0.000 OA
ATOM     22  H   UNL     1      46.741   6.979  15.144  0.00  0.00    +0.000 HD
BRANCH  20  23
ATOM     23  C   UNL     1      49.062   6.191  15.981  0.00  0.00    +0.000 A 
ATOM     24  C   UNL     1      50.088   6.725  16.749  0.00  0.00    +0.000 A 
ATOM     25  S   UNL     1      50.282   5.962  18.261  0.00  0.00    +0.000 S 
ATOM     26  C   UNL     1      49.033   4.858  17.924  0.00  0.00    +0.000 A 
ATOM     27  N   UNL     1      48.695   3.893  18.820  0.00  0.00    +0.000 NA
ATOM     28  C   UNL     1      47.746   3.108  18.429  0.00  0.00    +0.000 A 
ATOM     29  N   UNL     1      47.106   3.205  17.220  0.00  0.00    +0.000 N 
ATOM     30  C   UNL     1      47.400   4.173  16.292  0.00  0.00    +0.000 A 
ATOM     31  O   UNL     1      46.786   4.246  15.234  0.00  0.00    +0.000 OA
ATOM     32  C   UNL     1      48.465   5.078  16.683  0.00  0.00    +0.000 A 
ATOM     33  H   UNL     1      46.366   2.562  16.975  0.00  0.00    +0.000 HD
ENDBRANCH  20  23
ENDBRANCH  18  19
ENDBRANCH   4  18
TORSDOF 7
ENDMDL
MODEL 2
REMARK VINA RESULT:    -8.274      1.779      2.322
REMARK INTER + INTRA:         -12.979
REMARK INTER:                 -12.112
REMARK INTRA:                  -0.866
REMARK UNBOUND:                -1.318
REMARK  Name = 
REMARK  8 active torsions:
REMARK  status: ('A' for Active; 'I' for Inactive)
REMARK    1  A    between atoms: C_1  and  C_2
REMARK    2  A    between atoms: C_2  and  N_3
REMARK    3  A    between atoms: C_2  and  C_25
REMARK    4  A    between atoms: N_3  and  C_4
REMARK    5  A    between atoms: C_4  and  C_5
REMARK    6  A    between atoms: C_8  and  C_9
REMARK    7  A    between atoms: C_9  and  N_10
REMARK    8  A    between atoms: C_11  and  C_13
REMARK                            x       y       z     vdW  Elec       q    Type
REMARK                         _______ _______ _______ _____ _____    ______ ____
ROOT
ATOM      1  C   UNL     1      45.504   4.351  12.207  0.00  0.00    +0.000 A 
ATOM      2  C   UNL     1      46.177   4.027  13.395  0.00  0.00    +0.000 A 
ATOM      3  C   UNL     1      47.115   4.901  13.946  0.00  0.00    +0.000 A 
ATOM      4  C   UNL     1      47.397   6.122  13.323  0.00  0.00    +0.000 A 
ATOM      5  C   UNL     1      46.767   6.422  12.107  0.00  0.00    +0.000 A 
ATOM      6  C   UNL     1      45.824   5.549  11.557  0.00  0.00    +0.000 A 
ENDROOT
BRANCH   1   7
ATOM      7  C   UNL     1      44.443   3.422  11.657  0.00  0.00    +0.000 C 
BRANCH   7   8
ATOM      8  N   UNL     1      45.006   2.590  10.598  0.00  0.00    +0.000 NA
ATOM      9  H   UNL     1      44.807   1.612  10.814  0.00  0.00    +0.000 HD
BRANCH   8  11
ATOM     10  C   UNL     1      44.025   4.327   9.082  0.00  0.00    +0.000 C 
ATOM     11  C   UNL     1      44.493   2.876   9.254  0.00  0.00    +0.000 C 
BRANCH  11  12
ATOM     12  C   UNL     1      45.579   2.566   8.231  0.00  0.00    +0.000 A 
ATOM     13  C   UNL     1      46.220   1.318   8.226  0.00  0.00    +0.000 A 
ATOM     14  C   UNL     1      47.198   1.026   7.271  0.00  0.00    +0.000 A 
ATOM     15  C   UNL     1      47.549   1.975   6.312  0.00  0.00    +0.000 A 
ATOM     16  C   UNL     1      46.932   3.223   6.313  0.00  0.00    +0.000 A 
ATOM     17  C   UNL     1      45.959   3.518   7.269  0.00  0.00    +0.000 A 
ENDBRANCH  11  12
ENDBRANCH   8  11
ENDBRANCH   7   8
ENDBRANCH   1   7
BRANCH   4  18
ATOM     18  C   UNL     1      48.376   7.089  13.934  0.00  0.00    +0.000 C 
BRANCH  18  19
ATOM     19  N   UNL     1      48.255   7.116  15.368  0.00  0.00    +0.000 N 
ATOM     20  C   UNL     1      49.318   6.805  16.174  0.00  0.00    +0.000 C 
ATOM     21  O   UNL     1      50.418   6.509  15.716  0.00  0.00    +0.000 OA
ATOM     22  H   UNL     1      47.316   7.134  15.752  0.00  0.00    +0.000 HD
BRANCH  20  23
ATOM     23  C   UNL     1      49.095   6.906  17.620  0.00  0.00    +0.000 A 
ATOM     24  C   UNL     1      49.053   8.155  18.223  0.00  0.00    +0.000 A 
ATOM     25  S   UNL     1      48.729   8.100  19.895  0.00  0.00    +0.000 S 
ATOM     26  C   UNL     1      48.680   6.400  19.884  0.00  0.00    +0.000 A 
ATOM     27  N   UNL     1      48.460   5.701  21.030  0.00  0.00    +0.000 NA
ATOM     28  C   UNL     1      48.470   4.417  20.883  0.00  0.00    +0.000 A 
ATOM     29  N   UNL     1      48.682   3.772  19.691  0.00  0.00    +0.000 N 
ATOM     30  C   UNL     1      48.891   4.435  18.508  0.00  0.00    +0.000 A 
ATOM     31  O   UNL     1      49.047   3.825  17.457  0.00  0.00    +0.000 OA
ATOM     32  C   UNL     1      48.892   5.882  18.620  0.00  0.00    +0.000 A 
ATOM     33  H   UNL     1      48.673   2.763  19.643  0.00  0.00    +0.000 HD
ENDBRANCH  20  23
ENDBRANCH  18  19
ENDBRANCH   4  18
TORSDOF 7
ENDMDL
MODEL 3
REMARK VINA RESULT:    -8.093      2.563      3.118
REMARK INTER + INTRA:         -12.723
REMARK INTER:                 -11.569
REMARK INTRA:                  -1.154
REMARK UNBOUND:                -1.318
REMARK  Name = 
REMARK  8 active torsions:
REMARK  status: ('A' for Active; 'I' for Inactive)
REMARK    1  A    between atoms: C_1  and  C_2
REMARK    2  A    between atoms: C_2  and  N_3
REMARK    3  A    between atoms: C_2  and  C_25
REMARK    4  A    between atoms: N_3  and  C_4
REMARK    5  A    between atoms: C_4  and  C_5
REMARK    6  A    between atoms: C_8  and  C_9
REMARK    7  A    between atoms: C_9  and  N_10
REMARK    8  A    between atoms: C_11  and  C_13
REMARK                            x       y       z     vdW  Elec       q    Type
REMARK                         _______ _______ _______ _____ _____    ______ ____
ROOT
ATOM      1  C   UNL     1      45.416   4.315  12.181  0.00  0.00    +0.000 A 
ATOM      2  C   UNL     1      46.118   3.793  13.279  0.00  0.00    +0.000 A 
ATOM      3  C   UNL     1      47.077   4.560  13.944  0.00  0.00    +0.000 A 
ATOM      4  C   UNL     1      47.351   5.868  13.527  0.00  0.00    +0.000 A 
ATOM      5  C   UNL     1      46.691   6.369  12.396  0.00  0.00    +0.000 A 
ATOM      6  C   UNL     1      45.728   5.604  11.733  0.00  0.00    +0.000 A 
ENDROOT
BRANCH   1   7
ATOM      7  C   UNL     1      44.335   3.494  11.512  0.00  0.00    +0.000 C 
BRANCH   7   8
ATOM      8  N   UNL     1      44.926   2.600  10.521  0.00  0.00    +0.000 NA
ATOM      9  H   UNL     1      44.675   1.639  10.760  0.00  0.00    +0.000 HD
BRANCH   8  11
ATOM     10  C   UNL     1      44.109   4.313   8.885  0.00  0.00    +0.000 C 
ATOM     11  C   UNL     1      44.507   2.853   9.138  0.00  0.00    +0.000 C 
BRANCH  11  12
ATOM     12  C   UNL     1      45.640   2.463   8.196  0.00  0.00    +0.000 A 
ATOM     13  C   UNL     1      46.214   3.412   7.338  0.00  0.00    +0.000 A 
ATOM     14  C   UNL     1      47.270   3.059   6.492  0.00  0.00    +0.000 A 
ATOM     15  C   UNL     1      47.763   1.755   6.493  0.00  0.00    +0.000 A 
ATOM     16  C   UNL     1      47.194   0.798   7.328  0.00  0.00    +0.000 A 
ATOM     17  C   UNL     1      46.137   1.148   8.170  0.00  0.00    +0.000 A 
ENDBRANCH  11  12
ENDBRANCH   8  11
ENDBRANCH   7   8
ENDBRANCH   1   7
BRANCH   4  18
ATOM     18  C   UNL     1      48.352   6.716  14.265  0.00  0.00    +0.000 C 
BRANCH  18  19
ATOM     19  N   UNL     1      48.067   6.752  15.675  0.00  0.00    +0.000 N 
ATOM     20  C   UNL     1      48.993   6.340  16.596  0.00  0.00    +0.000 C 
ATOM     21  O   UNL     1      50.108   5.943  16.266  0.00  0.00    +0.000 OA
ATOM     22  H   UNL     1      47.095   6.856  15.947  0.00  0.00    +0.000 HD
BRANCH  20  23
ATOM     23  C   UNL     1      48.612   6.458  18.007  0.00  0.00    +0.000 A 
ATOM     24  C   UNL     1      48.722   5.356  18.843  0.00  0.00    +0.000 A 
ATOM     25  S   UNL     1      48.295   5.676  20.462  0.00  0.00    +0.000 S 
ATOM     26  C   UNL     1      47.901   7.289  20.095  0.00  0.00    +0.000 A 
ATOM     27  N   UNL     1      47.436   8.130  21.057  0.00  0.00    +0.000 NA
ATOM     28  C   UNL     1      47.155   9.319  20.638  0.00  0.00    +0.000 A 
ATOM     29  N   UNL     1      47.298   9.741  19.341  0.00  0.00    +0.000 N 
ATOM     30  C   UNL     1      47.780   8.934  18.340  0.00  0.00    +0.000 A 
ATOM     31  O   UNL     1      47.923   9.355  17.198  0.00  0.00    +0.000 OA
ATOM     32  C   UNL     1      48.108   7.584  18.760  0.00  0.00    +0.000 A 
ATOM     33  H   UNL     1      47.064  10.688  19.078  0.00  0.00    +0.000 HD
ENDBRANCH  20  23
ENDBRANCH  18  19
ENDBRANCH   4  18
TORSDOF 7
ENDMDL
MODEL 4
REMARK VINA RESULT:    -7.506      2.997      8.599
REMARK INTER + INTRA:         -11.896
REMARK INTER:                 -10.056
REMARK INTRA:                  -1.840
REMARK UNBOUND:                -1.318
REMARK  Name = 
REMARK  8 active torsions:
REMARK  status: ('A' for Active; 'I' for Inactive)
REMARK    1  A    between atoms: C_1  and  C_2
REMARK    2  A    between atoms: C_2  and  N_3
REMARK    3  A    between atoms: C_2  and  C_25
REMARK    4  A    between atoms: N_3  and  C_4
REMARK    5  A    between atoms: C_4  and  C_5
REMARK    6  A    between atoms: C_8  and  C_9
REMARK    7  A    between atoms: C_9  and  N_10
REMARK    8  A    between atoms: C_11  and  C_13
REMARK                            x       y       z     vdW  Elec       q    Type
REMARK                         _______ _______ _______ _____ _____    ______ ____
ROOT
ATOM      1  C   UNL     1      48.675   8.041  16.094  0.00  0.00    +0.000 A 
ATOM      2  C   UNL     1      48.258   9.172  15.374  0.00  0.00    +0.000 A 
ATOM      3  C   UNL     1      47.918   9.074  14.024  0.00  0.00    +0.000 A 
ATOM      4  C   UNL     1      47.983   7.841  13.365  0.00  0.00    +0.000 A 
ATOM      5  C   UNL     1      48.452   6.723  14.067  0.00  0.00    +0.000 A 
ATOM      6  C   UNL     1      48.789   6.819  15.421  0.00  0.00    +0.000 A 
ENDROOT
BRANCH   1   7
ATOM      7  C   UNL     1      48.978   8.152  17.573  0.00  0.00    +0.000 C 
BRANCH   7   8
ATOM      8  N   UNL     1      47.926   7.504  18.350  0.00  0.00    +0.000 NA
ATOM      9  H   UNL     1      47.229   7.129  17.704  0.00  0.00    +0.000 HD
BRANCH   8  11
ATOM     10  C   UNL     1      47.525   6.233  20.472  0.00  0.00    +0.000 C 
ATOM     11  C   UNL     1      48.385   6.411  19.214  0.00  0.00    +0.000 C 
BRANCH  11  12
ATOM     12  C   UNL     1      48.394   5.114  18.414  0.00  0.00    +0.000 A 
ATOM     13  C   UNL     1      49.583   4.390  18.240  0.00  0.00    +0.000 A 
ATOM     14  C   UNL     1      49.584   3.188  17.527  0.00  0.00    +0.000 A 
ATOM     15  C   UNL     1      48.401   2.695  16.979  0.00  0.00    +0.000 A 
ATOM     16  C   UNL     1      47.215   3.409  17.131  0.00  0.00    +0.000 A 
ATOM     17  C   UNL     1      47.213   4.612  17.839  0.00  0.00    +0.000 A 
ENDBRANCH  11  12
ENDBRANCH   8  11
ENDBRANCH   7   8
ENDBRANCH   1   7
BRANCH   4  18
ATOM     18  C   UNL     1      47.577   7.719  11.920  0.00  0.00    +0.000 C 
BRANCH  18  19
ATOM     19  N   UNL     1      46.895   6.476  11.673  0.00  0.00    +0.000 N 
ATOM     20  C   UNL     1      45.535   6.377  11.805  0.00  0.00    +0.000 C 
ATOM     21  O   UNL     1      44.839   7.338  12.119  0.00  0.00    +0.000 OA
ATOM     22  H   UNL     1      47.463   5.637  11.638  0.00  0.00    +0.000 HD
BRANCH  20  23
ATOM     23  C   UNL     1      44.940   5.074  11.489  0.00  0.00    +0.000 A 
ATOM     24  C   UNL     1      44.215   4.396  12.459  0.00  0.00    +0.000 A 
ATOM     25  S   UNL     1      43.542   2.929  11.913  0.00  0.00    +0.000 S 
ATOM     26  C   UNL     1      44.237   3.122  10.372  0.00  0.00    +0.000 A 
ATOM     27  N   UNL     1      44.063   2.181   9.406  0.00  0.00    +0.000 NA
ATOM     28  C   UNL     1      44.662   2.442   8.291  0.00  0.00    +0.000 A 
ATOM     29  N   UNL     1      45.420   3.561   8.059  0.00  0.00    +0.000 N 
ATOM     30  C   UNL     1      45.608   4.546   8.997  0.00  0.00    +0.000 A 
ATOM     31  O   UNL     1      46.268   5.547   8.744  0.00  0.00    +0.000 OA
ATOM     32  C   UNL     1      44.958   4.297  10.270  0.00  0.00    +0.000 A 
ATOM     33  H   UNL     1      45.860   3.709   7.162  0.00  0.00    +0.000 HD
ENDBRANCH  20  23
ENDBRANCH  18  19
ENDBRANCH   4  18
TORSDOF 7
ENDMDL
MODEL 5
REMARK VINA RESULT:    -7.438      2.805      4.425
REMARK INTER + INTRA:         -11.800
REMARK INTER:                 -10.456
REMARK INTRA:                  -1.344
REMARK UNBOUND:                -1.318
REMARK  Name = 
REMARK  8 active torsions:
REMARK  status: ('A' for Active; 'I' for Inactive)
REMARK    1  A    between atoms: C_1  and  C_2
REMARK    2  A    between atoms: C_2  and  N_3
REMARK    3  A    between atoms: C_2  and  C_25
REMARK    4  A    between atoms: N_3  and  C_4
REMARK    5  A    between atoms: C_4  and  C_5
REMARK    6  A    between atoms: C_8  and  C_9
REMARK    7  A    between atoms: C_9  and  N_10
REMARK    8  A    between atoms: C_11  and  C_13
REMARK                            x       y       z     vdW  Elec       q    Type
REMARK                         _______ _______ _______ _____ _____    ______ ____
ROOT
ATOM      1  C   UNL     1      44.721   5.202  11.333  0.00  0.00    +0.000 A 
ATOM      2  C   UNL     1      45.796   6.068  11.079  0.00  0.00    +0.000 A 
ATOM      3  C   UNL     1      46.779   6.290  12.045  0.00  0.00    +0.000 A 
ATOM      4  C   UNL     1      46.710   5.646  13.286  0.00  0.00    +0.000 A 
ATOM      5  C   UNL     1      45.608   4.825  13.562  0.00  0.00    +0.000 A 
ATOM      6  C   UNL     1      44.626   4.599  12.593  0.00  0.00    +0.000 A 
ENDROOT
BRANCH   1   7
ATOM      7  C   UNL     1      43.699   4.922  10.253  0.00  0.00    +0.000 C 
BRANCH   7   8
ATOM      8  N   UNL     1      44.350   4.332   9.087  0.00  0.00    +0.000 NA
ATOM      9  H   UNL     1      45.011   5.011   8.706  0.00  0.00    +0.000 HD
BRANCH   8  11
ATOM     10  C   UNL     1      44.152   1.911   9.702  0.00  0.00    +0.000 C 
ATOM     11  C   UNL     1      45.075   3.086   9.354  0.00  0.00    +0.000 C 
BRANCH  11  12
ATOM     12  C   UNL     1      45.917   2.729   8.135  0.00  0.00    +0.000 A 
ATOM     13  C   UNL     1      46.153   3.676   7.127  0.00  0.00    +0.000 A 
ATOM     14  C   UNL     1      46.946   3.355   6.022  0.00  0.00    +0.000 A 
ATOM     15  C   UNL     1      47.510   2.085   5.908  0.00  0.00    +0.000 A 
ATOM     16  C   UNL     1      47.273   1.129   6.892  0.00  0.00    +0.000 A 
ATOM     17  C   UNL     1      46.478   1.447   7.994  0.00  0.00    +0.000 A 
ENDBRANCH  11  12
ENDBRANCH   8  11
ENDBRANCH   7   8
ENDBRANCH   1   7
BRANCH   4  18
ATOM     18  C   UNL     1      47.788   5.847  14.317  0.00  0.00    +0.000 C 
BRANCH  18  19
ATOM     19  N   UNL     1      48.511   7.070  14.084  0.00  0.00    +0.000 N 
ATOM     20  C   UNL     1      49.678   7.340  14.748  0.00  0.00    +0.000 C 
ATOM     21  O   UNL     1      50.168   6.551  15.551  0.00  0.00    +0.000 OA
ATOM     22  H   UNL     1      48.014   7.816  13.608  0.00  0.00    +0.000 HD
BRANCH  20  23
ATOM     23  C   UNL     1      50.353   8.596  14.403  0.00  0.00    +0.000 A 
ATOM     24  C   UNL     1      50.620   9.527  15.396  0.00  0.00    +0.000 A 
ATOM     25  S   UNL     1      51.459  10.903  14.840  0.00  0.00    +0.000 S 
ATOM     26  C   UNL     1      51.452  10.326  13.240  0.00  0.00    +0.000 A 
ATOM     27  N   UNL     1      52.006  11.054  12.234  0.00  0.00    +0.000 NA
ATOM     28  C   UNL     1      51.912  10.509  11.066  0.00  0.00    +0.000 A 
ATOM     29  N   UNL     1      51.314   9.301  10.817  0.00  0.00    +0.000 N 
ATOM     30  C   UNL     1      50.758   8.524  11.802  0.00  0.00    +0.000 A 
ATOM     31  O   UNL     1      50.257   7.435  11.546  0.00  0.00    +0.000 OA
ATOM     32  C   UNL     1      50.834   9.094  13.134  0.00  0.00    +0.000 A 
ATOM     33  H   UNL     1      51.277   8.927   9.879  0.00  0.00    +0.000 HD
ENDBRANCH  20  23
ENDBRANCH  18  19
ENDBRANCH   4  18
TORSDOF 7
ENDMDL
MODEL 6
REMARK VINA RESULT:    -7.159      3.835      8.499
REMARK INTER + INTRA:         -11.407
REMARK INTER:                  -9.028
REMARK INTRA:                  -2.379
REMARK UNBOUND:                -1.318
REMARK  Name = 
REMARK  8 active torsions:
REMARK  status: ('A' for Active; 'I' for Inactive)
REMARK    1  A    between atoms: C_1  and  C_2
REMARK    2  A    between atoms: C_2  and  N_3
REMARK    3  A    between atoms: C_2  and  C_25
REMARK    4  A    between atoms: N_3  and  C_4
REMARK    5  A    between atoms: C_4  and  C_5
REMARK    6  A    between atoms: C_8  and  C_9
REMARK    7  A    between atoms: C_9  and  N_10
REMARK    8  A    between atoms: C_11  and  C_13
REMARK                            x       y       z     vdW  Elec       q    Type
REMARK                         _______ _______ _______ _____ _____    ______ ____
ROOT
ATOM      1  C   UNL     1      49.762   7.514  18.445  0.00  0.00    +0.000 A 
ATOM      2  C   UNL     1      48.732   8.442  18.224  0.00  0.00    +0.000 A 
ATOM      3  C   UNL     1      48.330   8.767  16.927  0.00  0.00    +0.000 A 
ATOM      4  C   UNL     1      48.946   8.166  15.823  0.00  0.00    +0.000 A 
ATOM      5  C   UNL     1      50.012   7.283  16.041  0.00  0.00    +0.000 A 
ATOM      6  C   UNL     1      50.412   6.954  17.340  0.00  0.00    +0.000 A 
ENDROOT
BRANCH   1   7
ATOM      7  C   UNL     1      50.142   7.125  19.857  0.00  0.00    +0.000 C 
BRANCH   7   8
ATOM      8  N   UNL     1      50.325   5.680  19.948  0.00  0.00    +0.000 NA
ATOM      9  H   UNL     1      50.967   5.481  20.716  0.00  0.00    +0.000 HD
BRANCH   8  11
ATOM     10  C   UNL     1      47.960   5.762  20.770  0.00  0.00    +0.000 C 
ATOM     11  C   UNL     1      49.092   4.918  20.171  0.00  0.00    +0.000 C 
BRANCH  11  12
ATOM     12  C   UNL     1      48.634   4.315  18.848  0.00  0.00    +0.000 A 
ATOM     13  C   UNL     1      47.476   4.786  18.212  0.00  0.00    +0.000 A 
ATOM     14  C   UNL     1      47.071   4.249  16.986  0.00  0.00    +0.000 A 
ATOM     15  C   UNL     1      47.815   3.236  16.383  0.00  0.00    +0.000 A 
ATOM     16  C   UNL     1      48.958   2.747  17.010  0.00  0.00    +0.000 A 
ATOM     17  C   UNL     1      49.361   3.279  18.236  0.00  0.00    +0.000 A 
ENDBRANCH  11  12
ENDBRANCH   8  11
ENDBRANCH   7   8
ENDBRANCH   1   7
BRANCH   4  18
ATOM     18  C   UNL     1      48.489   8.479  14.423  0.00  0.00    +0.000 C 
BRANCH  18  19
ATOM     19  N   UNL     1      47.436   7.590  14.008  0.00  0.00    +0.000 N 
ATOM     20  C   UNL     1      47.703   6.485  13.244  0.00  0.00    +0.000 C 
ATOM     21  O   UNL     1      48.844   6.192  12.898  0.00  0.00    +0.000 OA
ATOM     22  H   UNL     1      46.485   7.933  14.088  0.00  0.00    +0.000 HD
BRANCH  20  23
ATOM     23  C   UNL     1      46.561   5.626  12.912  0.00  0.00    +0.000 A 
ATOM     24  C   UNL     1      46.631   4.263  13.164  0.00  0.00    +0.000 A 
ATOM     25  S   UNL     1      45.202   3.420  12.776  0.00  0.00    +0.000 S 
ATOM     26  C   UNL     1      44.453   4.839  12.212  0.00  0.00    +0.000 A 
ATOM     27  N   UNL     1      43.191   4.808  11.708  0.00  0.00    +0.000 NA
ATOM     28  C   UNL     1      42.752   5.952  11.295  0.00  0.00    +0.000 A 
ATOM     29  N   UNL     1      43.466   7.121  11.343  0.00  0.00    +0.000 N 
ATOM     30  C   UNL     1      44.735   7.204  11.858  0.00  0.00    +0.000 A 
ATOM     31  O   UNL     1      45.331   8.273  11.912  0.00  0.00    +0.000 OA
ATOM     32  C   UNL     1      45.276   5.944  12.333  0.00  0.00    +0.000 A 
ATOM     33  H   UNL     1      43.063   7.985  11.007  0.00  0.00    +0.000 HD
ENDBRANCH  20  23
ENDBRANCH  18  19
ENDBRANCH   4  18
TORSDOF 7
ENDMDL
MODEL 7
REMARK VINA RESULT:    -6.973      3.811      8.215
REMARK INTER + INTRA:         -11.145
REMARK INTER:                  -9.070
REMARK INTRA:                  -2.074
REMARK UNBOUND:                -1.318
REMARK  Name = 
REMARK  8 active torsions:
REMARK  status: ('A' for Active; 'I' for Inactive)
REMARK    1  A    between atoms: C_1  and  C_2
REMARK    2  A    between atoms: C_2  and  N_3
REMARK    3  A    between atoms: C_2  and  C_25
REMARK    4  A    between atoms: N_3  and  C_4
REMARK    5  A    between atoms: C_4  and  C_5
REMARK    6  A    between atoms: C_8  and  C_9
REMARK    7  A    between atoms: C_9  and  N_10
REMARK    8  A    between atoms: C_11  and  C_13
REMARK                            x       y       z     vdW  Elec       q    Type
REMARK                         _______ _______ _______ _____ _____    ______ ____
ROOT
ATOM      1  C   UNL     1      49.865   7.290  17.338  0.00  0.00    +0.000 A 
ATOM      2  C   UNL     1      50.081   6.759  16.057  0.00  0.00    +0.000 A 
ATOM      3  C   UNL     1      49.429   7.293  14.943  0.00  0.00    +0.000 A 
ATOM      4  C   UNL     1      48.550   8.373  15.088  0.00  0.00    +0.000 A 
ATOM      5  C   UNL     1      48.291   8.867  16.374  0.00  0.00    +0.000 A 
ATOM      6  C   UNL     1      48.947   8.336  17.488  0.00  0.00    +0.000 A 
ENDROOT
BRANCH   1   7
ATOM      7  C   UNL     1      50.628   6.742  18.525  0.00  0.00    +0.000 C 
BRANCH   7   8
ATOM      8  N   UNL     1      49.703   6.398  19.600  0.00  0.00    +0.000 NA
ATOM      9  H   UNL     1      48.777   6.751  19.357  0.00  0.00    +0.000 HD
BRANCH   8  11
ATOM     10  C   UNL     1      48.759   4.650  21.128  0.00  0.00    +0.000 C 
ATOM     11  C   UNL     1      49.589   4.962  19.876  0.00  0.00    +0.000 C 
BRANCH  11  12
ATOM     12  C   UNL     1      48.967   4.272  18.668  0.00  0.00    +0.000 A 
ATOM     13  C   UNL     1      47.702   4.656  18.198  0.00  0.00    +0.000 A 
ATOM     14  C   UNL     1      47.144   4.039  17.074  0.00  0.00    +0.000 A 
ATOM     15  C   UNL     1      47.840   3.032  16.408  0.00  0.00    +0.000 A 
ATOM     16  C   UNL     1      49.090   2.629  16.871  0.00  0.00    +0.000 A 
ATOM     17  C   UNL     1      49.646   3.241  17.995  0.00  0.00    +0.000 A 
ENDBRANCH  11  12
ENDBRANCH   8  11
ENDBRANCH   7   8
ENDBRANCH   1   7
BRANCH   4  18
ATOM     18  C   UNL     1      47.877   8.982  13.887  0.00  0.00    +0.000 C 
BRANCH  18  19
ATOM     19  N   UNL     1      46.722   8.217  13.493  0.00  0.00    +0.000 N 
ATOM     20  C   UNL     1      46.755   7.402  12.392  0.00  0.00    +0.000 C 
ATOM     21  O   UNL     1      47.766   7.273  11.707  0.00  0.00    +0.000 OA
ATOM     22  H   UNL     1      45.832   8.481  13.902  0.00  0.00    +0.000 HD
BRANCH  20  23
ATOM     23  C   UNL     1      45.536   6.638  12.107  0.00  0.00    +0.000 A 
ATOM     24  C   UNL     1      44.430   7.283  11.572  0.00  0.00    +0.000 A 
ATOM     25  S   UNL     1      43.119   6.243  11.246  0.00  0.00    +0.000 S 
ATOM     26  C   UNL     1      43.966   4.899  11.854  0.00  0.00    +0.000 A 
ATOM     27  N   UNL     1      43.389   3.668  11.886  0.00  0.00    +0.000 NA
ATOM     28  C   UNL     1      44.134   2.742  12.392  0.00  0.00    +0.000 A 
ATOM     29  N   UNL     1      45.405   2.939  12.868  0.00  0.00    +0.000 N 
ATOM     30  C   UNL     1      46.034   4.158  12.840  0.00  0.00    +0.000 A 
ATOM     31  O   UNL     1      47.182   4.291  13.248  0.00  0.00    +0.000 OA
ATOM     32  C   UNL     1      45.236   5.235  12.284  0.00  0.00    +0.000 A 
ATOM     33  H   UNL     1      45.938   2.170  13.248  0.00  0.00    +0.000 HD
ENDBRANCH  20  23
ENDBRANCH  18  19
ENDBRANCH   4  18
TORSDOF 7
ENDMDL
MODEL 8
REMARK VINA RESULT:    -6.839      3.344      6.109
REMARK INTER + INTRA:         -10.957
REMARK INTER:                  -9.472
REMARK INTRA:                  -1.484
REMARK UNBOUND:                -1.318
REMARK  Name = 
REMARK  8 active torsions:
REMARK  status: ('A' for Active; 'I' for Inactive)
REMARK    1  A    between atoms: C_1  and  C_2
REMARK    2  A    between atoms: C_2  and  N_3
REMARK    3  A    between atoms: C_2  and  C_25
REMARK    4  A    between atoms: N_3  and  C_4
REMARK    5  A    between atoms: C_4  and  C_5
REMARK    6  A    between atoms: C_8  and  C_9
REMARK    7  A    between atoms: C_9  and  N_10
REMARK    8  A    between atoms: C_11  and  C_13
REMARK                            x       y       z     vdW  Elec       q    Type
REMARK                         _______ _______ _______ _____ _____    ______ ____
ROOT
ATOM      1  C   UNL     1      47.860   6.083  14.800  0.00  0.00    +0.000 A 
ATOM      2  C   UNL     1      48.623   6.324  15.953  0.00  0.00    +0.000 A 
ATOM      3  C   UNL     1      48.754   5.345  16.940  0.00  0.00    +0.000 A 
ATOM      4  C   UNL     1      48.129   4.102  16.792  0.00  0.00    +0.000 A 
ATOM      5  C   UNL     1      47.323   3.880  15.668  0.00  0.00    +0.000 A 
ATOM      6  C   UNL     1      47.194   4.859  14.677  0.00  0.00    +0.000 A 
ENDROOT
BRANCH   1   7
ATOM      7  C   UNL     1      47.781   7.130  13.710  0.00  0.00    +0.000 C 
BRANCH   7   8
ATOM      8  N   UNL     1      46.386   7.397  13.372  0.00  0.00    +0.000 NA
ATOM      9  H   UNL     1      46.179   8.372  13.595  0.00  0.00    +0.000 HD
BRANCH   8  11
ATOM     10  C   UNL     1      47.255   6.835  11.090  0.00  0.00    +0.000 C 
ATOM     11  C   UNL     1      46.039   7.164  11.966  0.00  0.00    +0.000 C 
BRANCH  11  12
ATOM     12  C   UNL     1      45.029   6.025  11.885  0.00  0.00    +0.000 A 
ATOM     13  C   UNL     1      44.185   5.741  12.970  0.00  0.00    +0.000 A 
ATOM     14  C   UNL     1      43.242   4.712  12.884  0.00  0.00    +0.000 A 
ATOM     15  C   UNL     1      43.131   3.956  11.718  0.00  0.00    +0.000 A 
ATOM     16  C   UNL     1      43.972   4.217  10.639  0.00  0.00    +0.000 A 
ATOM     17  C   UNL     1      44.917   5.240  10.725  0.00  0.00    +0.000 A 
ENDBRANCH  11  12
ENDBRANCH   8  11
ENDBRANCH   7   8
ENDBRANCH   1   7
BRANCH   4  18
ATOM     18  C   UNL     1      48.301   3.027  17.831  0.00  0.00    +0.000 C 
BRANCH  18  19
ATOM     19  N   UNL     1      49.694   2.781  18.102  0.00  0.00    +0.000 N 
ATOM     20  C   UNL     1      50.473   2.079  17.221  0.00  0.00    +0.000 C 
ATOM     21  O   UNL     1      50.031   1.648  16.160  0.00  0.00    +0.000 OA
ATOM     22  H   UNL     1      50.011   2.927  19.054  0.00  0.00    +0.000 HD
BRANCH  20  23
ATOM     23  C   UNL     1      51.888   1.924  17.578  0.00  0.00    +0.000 A 
ATOM     24  C   UNL     1      52.412   0.653  17.769  0.00  0.00    +0.000 A 
ATOM     25  S   UNL     1      54.080   0.644  18.120  0.00  0.00    +0.000 S 
ATOM     26  C   UNL     1      54.152   2.343  18.077  0.00  0.00    +0.000 A 
ATOM     27  N   UNL     1      55.319   2.998  18.322  0.00  0.00    +0.000 NA
ATOM     28  C   UNL     1      55.227   4.286  18.280  0.00  0.00    +0.000 A 
ATOM     29  N   UNL     1      54.072   4.976  18.014  0.00  0.00    +0.000 N 
ATOM     30  C   UNL     1      52.877   4.359  17.744  0.00  0.00    +0.000 A 
ATOM     31  O   UNL     1      51.871   5.008  17.482  0.00  0.00    +0.000 OA
ATOM     32  C   UNL     1      52.925   2.909  17.783  0.00  0.00    +0.000 A 
ATOM     33  H   UNL     1      54.069   5.986  17.991  0.00  0.00    +0.000 HD
ENDBRANCH  20  23
ENDBRANCH  18  19
ENDBRANCH   4  18
TORSDOF 7
ENDMDL
MODEL 9
REMARK VINA RESULT:    -6.180      4.903      7.964
REMARK INTER + INTRA:         -10.027
REMARK INTER:                  -8.744
REMARK INTRA:                  -1.283
REMARK UNBOUND:                -1.318
REMARK  Name = 
REMARK  8 active torsions:
REMARK  status: ('A' for Active; 'I' for Inactive)
REMARK    1  A    between atoms: C_1  and  C_2
REMARK    2  A    between atoms: C_2  and  N_3
REMARK    3  A    between atoms: C_2  and  C_25
REMARK    4  A    between atoms: N_3  and  C_4
REMARK    5  A    between atoms: C_4  and  C_5
REMARK    6  A    between atoms: C_8  and  C_9
REMARK    7  A    between atoms: C_9  and  N_10
REMARK    8  A    between atoms: C_11  and  C_13
REMARK                            x       y       z     vdW  Elec       q    Type
REMARK                         _______ _______ _______ _____ _____    ______ ____
ROOT
ATOM      1  C   UNL     1      50.321   8.803  12.448  0.00  0.00    +0.000 A 
ATOM      2  C   UNL     1      49.806   7.509  12.266  0.00  0.00    +0.000 A 
ATOM      3  C   UNL     1      48.432   7.299  12.134  0.00  0.00    +0.000 A 
ATOM      4  C   UNL     1      47.544   8.380  12.175  0.00  0.00    +0.000 A 
ATOM      5  C   UNL     1      48.051   9.664  12.412  0.00  0.00    +0.000 A 
ATOM      6  C   UNL     1      49.427   9.876  12.541  0.00  0.00    +0.000 A 
ENDROOT
BRANCH   1   7
ATOM      7  C   UNL     1      51.816   9.021  12.525  0.00  0.00    +0.000 C 
BRANCH   7   8
ATOM      8  N   UNL     1      52.519   7.900  11.909  0.00  0.00    +0.000 NA
ATOM      9  H   UNL     1      51.884   7.438  11.258  0.00  0.00    +0.000 HD
BRANCH   8  11
ATOM     10  C   UNL     1      54.997   7.577  11.726  0.00  0.00    +0.000 C 
ATOM     11  C   UNL     1      53.739   8.265  11.181  0.00  0.00    +0.000 C 
BRANCH  11  12
ATOM     12  C   UNL     1      53.563   7.914   9.709  0.00  0.00    +0.000 A 
ATOM     13  C   UNL     1      52.559   7.022   9.302  0.00  0.00    +0.000 A 
ATOM     14  C   UNL     1      52.383   6.722   7.948  0.00  0.00    +0.000 A 
ATOM     15  C   UNL     1      53.205   7.305   6.986  0.00  0.00    +0.000 A 
ATOM     16  C   UNL     1      54.216   8.181   7.375  0.00  0.00    +0.000 A 
ATOM     17  C   UNL     1      54.396   8.479   8.727  0.00  0.00    +0.000 A 
ENDBRANCH  11  12
ENDBRANCH   8  11
ENDBRANCH   7   8
ENDBRANCH   1   7
BRANCH   4  18
ATOM     18  C   UNL     1      46.065   8.165  11.990  0.00  0.00    +0.000 C 
BRANCH  18  19
ATOM     19  N   UNL     1      45.763   6.776  11.766  0.00  0.00    +0.000 N 
ATOM     20  C   UNL     1      44.488   6.365  11.483  0.00  0.00    +0.000 C 
ATOM     21  O   UNL     1      43.554   7.157  11.389  0.00  0.00    +0.000 OA
ATOM     22  H   UNL     1      46.460   6.099  12.059  0.00  0.00    +0.000 HD
BRANCH  20  23
ATOM     23  C   UNL     1      44.301   4.932  11.232  0.00  0.00    +0.000 A 
ATOM     24  C   UNL     1      43.571   4.166  12.130  0.00  0.00    +0.000 A 
ATOM     25  S   UNL     1      43.399   2.537  11.662  0.00  0.00    +0.000 S 
ATOM     26  C   UNL     1      44.337   2.783  10.265  0.00  0.00    +0.000 A 
ATOM     27  N   UNL     1      44.602   1.757   9.412  0.00  0.00    +0.000 NA
ATOM     28  C   UNL     1      45.344   2.078   8.404  0.00  0.00    +0.000 A 
ATOM     29  N   UNL     1      45.843   3.334   8.174  0.00  0.00    +0.000 N 
ATOM     30  C   UNL     1      45.589   4.403   8.996  0.00  0.00    +0.000 A 
ATOM     31  O   UNL     1      46.028   5.518   8.743  0.00  0.00    +0.000 OA
ATOM     32  C   UNL     1      44.762   4.094  10.148  0.00  0.00    +0.000 A 
ATOM     33  H   UNL     1      46.415   3.520   7.362  0.00  0.00    +0.000 HD
ENDBRANCH  20  23
ENDBRANCH  18  19
ENDBRANCH   4  18
TORSDOF 7
ENDMDL
