MODEL 1
REMARK VINA RESULT:    -7.723      0.000      0.000
REMARK INTER + INTRA:          -9.663
REMARK INTER:                  -9.303
REMARK INTRA:                  -0.359
REMARK UNBOUND:                -0.359
REMARK  Name = 
REMARK  4 active torsions:
REMARK  status: ('A' for Active; 'I' for Inactive)
REMARK    1  A    between atoms: N_1  and  C_2
REMARK    2  A    between atoms: C_2  and  C_3
REMARK    3  A    between atoms: C_7  and  C_8
REMARK    4  A    between atoms: C_8  and  C_9
REMARK                            x       y       z     vdW  Elec       q    Type
REMARK                         _______ _______ _______ _____ _____    ______ ____
ROOT
ATOM      1  C   UNL     1      45.300   4.541  13.105  0.00  0.00    +0.000 A 
ATOM      2  C   UNL     1      44.185   5.336  13.403  0.00  0.00    +0.000 A 
ATOM      3  C   UNL     1      43.049   5.297  12.598  0.00  0.00    +0.000 A 
ATOM      4  C   UNL     1      43.017   4.473  11.473  0.00  0.00    +0.000 A 
ATOM      5  C   UNL     1      44.122   3.674  11.146  0.00  0.00    +0.000 A 
ATOM      6  C   UNL     1      45.258   3.714  11.971  0.00  0.00    +0.000 A 
ENDROOT
BRANCH   1   7
ATOM      7  C   UNL     1      46.534   4.603  13.969  0.00  0.00    +0.000 C 
BRANCH   7   8
ATOM      8  N   UNL     1      47.183   3.301  14.079  0.00  0.00    +0.000 NA
ATOM      9  H   UNL     1      47.879   3.214  13.342  0.00  0.00    +0.000 HD
ATOM     10  H   UNL     1      46.488   2.577  13.903  0.00  0.00    +0.000 HD
ENDBRANCH   7   8
ENDBRANCH   1   7
BRANCH   5  11
ATOM     11  C   UNL     1      44.101   2.818   9.897  0.00  0.00    +0.000 C 
BRANCH  11  12
ATOM     12  C   UNL     1      45.053   3.254   8.837  0.00  0.00    +0.000 A 
ATOM     13  N   UNL     1      45.231   4.496   8.424  0.00  0.00    +0.000 NA
ATOM     14  N   UNL     1      46.228   4.499   7.477  0.00  0.00    +0.000 NA
ATOM     15  C   UNL     1      46.641   3.262   7.324  0.00  0.00    +0.000 A 
ATOM     16  C   UNL     1      47.657   2.679   6.520  0.00  0.00    +0.000 A 
ATOM     17  C   UNL     1      47.859   1.346   6.565  0.00  0.00    +0.000 A 
ATOM     18  C   UNL     1      47.036   0.483   7.400  0.00  0.00    +0.000 A 
ATOM     19  C   UNL     1      46.080   1.033   8.166  0.00  0.00    +0.000 A 
ATOM     20  N   UNL     1      45.900   2.417   8.140  0.00  0.00    +0.000 N 
ENDBRANCH  11  12
ENDBRANCH   5  11
TORSDOF 4
ENDMDL
MODEL 2
REMARK VINA RESULT:    -7.685      2.053      6.177
REMARK INTER + INTRA:          -9.617
REMARK INTER:                  -9.378
REMARK INTRA:                  -0.239
REMARK UNBOUND:                -0.359
REMARK  Name = 
REMARK  4 active torsions:
REMARK  status: ('A' for Active; 'I' for Inactive)
REMARK    1  A    between atoms: N_1  and  C_2
REMARK    2  A    between atoms: C_2  and  C_3
REMARK    3  A    between atoms: C_7  and  C_8
REMARK    4  A    between atoms: C_8  and  C_9
REMARK                            x       y       z     vdW  Elec       q    Type
REMARK                         _______ _______ _______ _____ _____    ______ ____
ROOT
ATOM      1  C   UNL     1      46.629   2.508   6.646  0.00  0.00    +0.000 A 
ATOM      2  C   UNL     1      46.776   1.226   7.195  0.00  0.00    +0.000 A 
ATOM      3  C   UNL     1      46.064   0.853   8.333  0.00  0.00    +0.000 A 
ATOM      4  C   UNL     1      45.206   1.764   8.949  0.00  0.00    +0.000 A 
ATOM      5  C   UNL     1      45.047   3.056   8.429  0.00  0.00    +0.000 A 
ATOM      6  C   UNL     1      45.762   3.417   7.274  0.00  0.00    +0.000 A 
ENDROOT
BRANCH   1   7
ATOM      7  C   UNL     1      47.419   2.910   5.427  0.00  0.00    +0.000 C 
BRANCH   7   8
ATOM      8  N   UNL     1      48.526   1.994   5.174  0.00  0.00    +0.000 NA
ATOM      9  H   UNL     1      49.114   1.949   6.002  0.00  0.00    +0.000 HD
ATOM     10  H   UNL     1      49.104   2.383   4.431  0.00  0.00    +0.000 HD
ENDBRANCH   7   8
ENDBRANCH   1   7
BRANCH   5  11
ATOM     11  C   UNL     1      44.151   4.056   9.129  0.00  0.00    +0.000 C 
BRANCH  11  12
ATOM     12  C   UNL     1      44.294   4.076  10.612  0.00  0.00    +0.000 A 
ATOM     13  N   UNL     1      43.668   3.279  11.459  0.00  0.00    +0.000 NA
ATOM     14  N   UNL     1      44.102   3.569  12.730  0.00  0.00    +0.000 NA
ATOM     15  C   UNL     1      44.984   4.538  12.642  0.00  0.00    +0.000 A 
ATOM     16  C   UNL     1      45.778   5.209  13.611  0.00  0.00    +0.000 A 
ATOM     17  C   UNL     1      46.613   6.194  13.223  0.00  0.00    +0.000 A 
ATOM     18  C   UNL     1      46.700   6.607  11.829  0.00  0.00    +0.000 A 
ATOM     19  C   UNL     1      45.956   5.969  10.911  0.00  0.00    +0.000 A 
ATOM     20  N   UNL     1      45.119   4.928  11.316  0.00  0.00    +0.000 N 
ENDBRANCH  11  12
ENDBRANCH   5  11
TORSDOF 4
ENDMDL
MODEL 3
REMARK VINA RESULT:    -7.431      1.902      6.063
REMARK INTER + INTRA:          -9.310
REMARK INTER:                  -9.098
REMARK INTRA:                  -0.212
REMARK UNBOUND:                -0.359
REMARK  Name = 
REMARK  4 active torsions:
REMARK  status: ('A' for Active; 'I' for Inactive)
REMARK    1  A    between atoms: N_1  and  C_2
REMARK    2  A    between atoms: C_2  and  C_3
REMARK    3  A    between atoms: C_7  and  C_8
REMARK    4  A    between atoms: C_8  and  C_9
REMARK                            x       y       z     vdW  Elec       q    Type
REMARK                         _______ _______ _______ _____ _____    ______ ____
ROOT
ATOM      1  C   UNL     1      46.615   1.915   7.470  0.00  0.00    +0.000 A 
ATOM      2  C   UNL     1      46.898   3.115   6.802  0.00  0.00    +0.000 A 
ATOM      3  C   UNL     1      46.387   4.325   7.268  0.00  0.00    +0.000 A 
ATOM      4  C   UNL     1      45.572   4.350   8.399  0.00  0.00    +0.000 A 
ATOM      5  C   UNL     1      45.265   3.164   9.081  0.00  0.00    +0.000 A 
ATOM      6  C   UNL     1      45.794   1.951   8.609  0.00  0.00    +0.000 A 
ENDROOT
BRANCH   1   7
ATOM      7  C   UNL     1      47.154   0.607   6.948  0.00  0.00    +0.000 C 
BRANCH   7   8
ATOM      8  N   UNL     1      46.782  -0.511   7.809  0.00  0.00    +0.000 NA
ATOM      9  H   UNL     1      47.352  -1.319   7.567  0.00  0.00    +0.000 HD
ATOM     10  H   UNL     1      45.818  -0.770   7.605  0.00  0.00    +0.000 HD
ENDBRANCH   7   8
ENDBRANCH   1   7
BRANCH   5  11
ATOM     11  C   UNL     1      44.341   3.191  10.281  0.00  0.00    +0.000 C 
BRANCH  11  12
ATOM     12  C   UNL     1      44.980   3.672  11.537  0.00  0.00    +0.000 A 
ATOM     13  N   UNL     1      45.393   2.910  12.535  0.00  0.00    +0.000 NA
ATOM     14  N   UNL     1      45.973   3.715  13.485  0.00  0.00    +0.000 NA
ATOM     15  C   UNL     1      45.905   4.955  13.058  0.00  0.00    +0.000 A 
ATOM     16  C   UNL     1      46.367   6.186  13.596  0.00  0.00    +0.000 A 
ATOM     17  C   UNL     1      46.145   7.333  12.923  0.00  0.00    +0.000 A 
ATOM     18  C   UNL     1      45.414   7.343  11.663  0.00  0.00    +0.000 A 
ATOM     19  C   UNL     1      44.983   6.179  11.149  0.00  0.00    +0.000 A 
ATOM     20  N   UNL     1      45.247   4.992  11.835  0.00  0.00    +0.000 N 
ENDBRANCH  11  12
ENDBRANCH   5  11
TORSDOF 4
ENDMDL
MODEL 4
REMARK VINA RESULT:    -6.799      2.528      3.505
REMARK INTER + INTRA:          -8.549
REMARK INTER:                  -8.201
REMARK INTRA:                  -0.348
REMARK UNBOUND:                -0.359
REMARK  Name = 
REMARK  4 active torsions:
REMARK  status: ('A' for Active; 'I' for Inactive)
REMARK    1  A    between atoms: N_1  and  C_2
REMARK    2  A    between atoms: C_2  and  C_3
REMARK    3  A    between atoms: C_7  and  C_8
REMARK    4  A    between atoms: C_8  and  C_9
REMARK                            x       y       z     vdW  Elec       q    Type
REMARK                         _______ _______ _______ _____ _____    ______ ____
ROOT
ATOM      1  C   UNL     1      46.614   6.767  12.997  0.00  0.00    +0.000 A 
ATOM      2  C   UNL     1      46.748   8.153  12.833  0.00  0.00    +0.000 A 
ATOM      3  C   UNL     1      45.800   8.879  12.113  0.00  0.00    +0.000 A 
ATOM      4  C   UNL     1      44.714   8.226  11.533  0.00  0.00    +0.000 A 
ATOM      5  C   UNL     1      44.560   6.839  11.672  0.00  0.00    +0.000 A 
ATOM      6  C   UNL     1      45.515   6.119  12.409  0.00  0.00    +0.000 A 
ENDROOT
BRANCH   1   7
ATOM      7  C   UNL     1      47.654   5.986  13.759  0.00  0.00    +0.000 C 
BRANCH   7   8
ATOM      8  N   UNL     1      49.005   6.295  13.301  0.00  0.00    +0.000 NA
ATOM      9  H   UNL     1      48.958   6.655  12.350  0.00  0.00    +0.000 HD
ATOM     10  H   UNL     1      49.537   5.428  13.254  0.00  0.00    +0.000 HD
ENDBRANCH   7   8
ENDBRANCH   1   7
BRANCH   5  11
ATOM     11  C   UNL     1      43.404   6.128  11.000  0.00  0.00    +0.000 C 
BRANCH  11  12
ATOM     12  C   UNL     1      43.621   4.670  10.786  0.00  0.00    +0.000 A 
ATOM     13  N   UNL     1      43.036   3.695  11.460  0.00  0.00    +0.000 NA
ATOM     14  N   UNL     1      43.453   2.494  10.937  0.00  0.00    +0.000 NA
ATOM     15  C   UNL     1      44.287   2.752   9.955  0.00  0.00    +0.000 A 
ATOM     16  C   UNL     1      44.991   1.917   9.045  0.00  0.00    +0.000 A 
ATOM     17  C   UNL     1      45.801   2.473   8.122  0.00  0.00    +0.000 A 
ATOM     18  C   UNL     1      45.995   3.914   8.053  0.00  0.00    +0.000 A 
ATOM     19  C   UNL     1      45.325   4.705   8.907  0.00  0.00    +0.000 A 
ATOM     20  N   UNL     1      44.461   4.125   9.838  0.00  0.00    +0.000 N 
ENDBRANCH  11  12
ENDBRANCH   5  11
TORSDOF 4
ENDMDL
MODEL 5
REMARK VINA RESULT:    -6.770      1.777      2.208
REMARK INTER + INTRA:          -8.514
REMARK INTER:                  -8.281
REMARK INTRA:                  -0.233
REMARK UNBOUND:                -0.359
REMARK  Name = 
REMARK  4 active torsions:
REMARK  status: ('A' for Active; 'I' for Inactive)
REMARK    1  A    between atoms: N_1  and  C_2
REMARK    2  A    between atoms: C_2  and  C_3
REMARK    3  A    between atoms: C_7  and  C_8
REMARK    4  A    between atoms: C_8  and  C_9
REMARK                            x       y       z     vdW  Elec       q    Type
REMARK                         _______ _______ _______ _____ _____    ______ ____
ROOT
ATOM      1  C   UNL     1      46.665   6.346  12.706  0.00  0.00    +0.000 A 
ATOM      2  C   UNL     1      46.757   5.456  13.786  0.00  0.00    +0.000 A 
ATOM      3  C   UNL     1      46.203   4.181  13.706  0.00  0.00    +0.000 A 
ATOM      4  C   UNL     1      45.534   3.781  12.550  0.00  0.00    +0.000 A 
ATOM      5  C   UNL     1      45.418   4.652  11.458  0.00  0.00    +0.000 A 
ATOM      6  C   UNL     1      45.989   5.933  11.546  0.00  0.00    +0.000 A 
ENDROOT
BRANCH   1   7
ATOM      7  C   UNL     1      47.249   7.732  12.807  0.00  0.00    +0.000 C 
BRANCH   7   8
ATOM      8  N   UNL     1      46.662   8.485  13.911  0.00  0.00    +0.000 NA
ATOM      9  H   UNL     1      46.017   7.883  14.417  0.00  0.00    +0.000 HD
ATOM     10  H   UNL     1      46.104   9.244  13.524  0.00  0.00    +0.000 HD
ENDBRANCH   7   8
ENDBRANCH   1   7
BRANCH   5  11
ATOM     11  C   UNL     1      44.649   4.231  10.223  0.00  0.00    +0.000 C 
BRANCH  11  12
ATOM     12  C   UNL     1      45.482   4.104   8.995  0.00  0.00    +0.000 A 
ATOM     13  N   UNL     1      45.964   5.106   8.282  0.00  0.00    +0.000 NA
ATOM     14  N   UNL     1      46.723   4.587   7.260  0.00  0.00    +0.000 NA
ATOM     15  C   UNL     1      46.692   3.278   7.362  0.00  0.00    +0.000 A 
ATOM     16  C   UNL     1      47.311   2.239   6.616  0.00  0.00    +0.000 A 
ATOM     17  C   UNL     1      47.089   0.953   6.953  0.00  0.00    +0.000 A 
ATOM     18  C   UNL     1      46.202   0.601   8.053  0.00  0.00    +0.000 A 
ATOM     19  C   UNL     1      45.621   1.581   8.764  0.00  0.00    +0.000 A 
ATOM     20  N   UNL     1      45.883   2.911   8.430  0.00  0.00    +0.000 N 
ENDBRANCH  11  12
ENDBRANCH   5  11
TORSDOF 4
ENDMDL
MODEL 6
REMARK VINA RESULT:    -6.633      1.401      2.111
REMARK INTER + INTRA:          -8.350
REMARK INTER:                  -8.016
REMARK INTRA:                  -0.333
REMARK UNBOUND:                -0.359
REMARK  Name = 
REMARK  4 active torsions:
REMARK  status: ('A' for Active; 'I' for Inactive)
REMARK    1  A    between atoms: N_1  and  C_2
REMARK    2  A    between atoms: C_2  and  C_3
REMARK    3  A    between atoms: C_7  and  C_8
REMARK    4  A    between atoms: C_8  and  C_9
REMARK                            x       y       z     vdW  Elec       q    Type
REMARK                         _______ _______ _______ _____ _____    ______ ____
ROOT
ATOM      1  C   UNL     1      46.048   4.758  12.931  0.00  0.00    +0.000 A 
ATOM      2  C   UNL     1      46.019   6.153  13.074  0.00  0.00    +0.000 A 
ATOM      3  C   UNL     1      45.348   6.949  12.149  0.00  0.00    +0.000 A 
ATOM      4  C   UNL     1      44.708   6.364  11.057  0.00  0.00    +0.000 A 
ATOM      5  C   UNL     1      44.728   4.973  10.883  0.00  0.00    +0.000 A 
ATOM      6  C   UNL     1      45.399   4.179  11.828  0.00  0.00    +0.000 A 
ENDROOT
BRANCH   1   7
ATOM      7  C   UNL     1      46.794   3.904  13.924  0.00  0.00    +0.000 C 
BRANCH   7   8
ATOM      8  N   UNL     1      46.727   4.460  15.271  0.00  0.00    +0.000 NA
ATOM      9  H   UNL     1      45.956   5.123  15.318  0.00  0.00    +0.000 HD
ATOM     10  H   UNL     1      47.577   4.995  15.443  0.00  0.00    +0.000 HD
ENDBRANCH   7   8
ENDBRANCH   1   7
BRANCH   5  11
ATOM     11  C   UNL     1      44.073   4.346   9.670  0.00  0.00    +0.000 C 
BRANCH  11  12
ATOM     12  C   UNL     1      44.746   3.111   9.178  0.00  0.00    +0.000 A 
ATOM     13  N   UNL     1      44.436   1.874   9.523  0.00  0.00    +0.000 NA
ATOM     14  N   UNL     1      45.244   1.012   8.820  0.00  0.00    +0.000 NA
ATOM     15  C   UNL     1      46.036   1.734   8.060  0.00  0.00    +0.000 A 
ATOM     16  C   UNL     1      47.035   1.389   7.110  0.00  0.00    +0.000 A 
ATOM     17  C   UNL     1      47.709   2.365   6.468  0.00  0.00    +0.000 A 
ATOM     18  C   UNL     1      47.454   3.771   6.748  0.00  0.00    +0.000 A 
ATOM     19  C   UNL     1      46.505   4.098   7.639  0.00  0.00    +0.000 A 
ATOM     20  N   UNL     1      45.788   3.083   8.275  0.00  0.00    +0.000 N 
ENDBRANCH  11  12
ENDBRANCH   5  11
TORSDOF 4
ENDMDL
MODEL 7
REMARK VINA RESULT:    -6.586      1.999      5.725
REMARK INTER + INTRA:          -8.293
REMARK INTER:                  -7.898
REMARK INTRA:                  -0.394
REMARK UNBOUND:                -0.359
REMARK  Name = 
REMARK  4 active torsions:
REMARK  status: ('A' for Active; 'I' for Inactive)
REMARK    1  A    between atoms: N_1  and  C_2
REMARK    2  A    between atoms: C_2  and  C_3
REMARK    3  A    between atoms: C_7  and  C_8
REMARK    4  A    between atoms: C_8  and  C_9
REMARK                            x       y       z     vdW  Elec       q    Type
REMARK                         _______ _______ _______ _____ _____    ______ ____
ROOT
ATOM      1  C   UNL     1      46.225   3.254   7.610  0.00  0.00    +0.000 A 
ATOM      2  C   UNL     1      46.051   1.879   7.823  0.00  0.00    +0.000 A 
ATOM      3  C   UNL     1      45.176   1.417   8.803  0.00  0.00    +0.000 A 
ATOM      4  C   UNL     1      44.474   2.323   9.598  0.00  0.00    +0.000 A 
ATOM      5  C   UNL     1      44.636   3.703   9.414  0.00  0.00    +0.000 A 
ATOM      6  C   UNL     1      45.512   4.158   8.415  0.00  0.00    +0.000 A 
ENDROOT
BRANCH   1   7
ATOM      7  C   UNL     1      47.188   3.748   6.561  0.00  0.00    +0.000 C 
BRANCH   7   8
ATOM      8  N   UNL     1      48.321   2.843   6.400  0.00  0.00    +0.000 NA
ATOM      9  H   UNL     1      48.561   2.785   5.413  0.00  0.00    +0.000 HD
ATOM     10  H   UNL     1      48.030   1.907   6.679  0.00  0.00    +0.000 HD
ENDBRANCH   7   8
ENDBRANCH   1   7
BRANCH   5  11
ATOM     11  C   UNL     1      43.908   4.683  10.311  0.00  0.00    +0.000 C 
BRANCH  11  12
ATOM     12  C   UNL     1      44.803   5.570  11.105  0.00  0.00    +0.000 A 
ATOM     13  N   UNL     1      44.937   6.875  10.944  0.00  0.00    +0.000 NA
ATOM     14  N   UNL     1      45.811   7.342  11.896  0.00  0.00    +0.000 NA
ATOM     15  C   UNL     1      46.200   6.319  12.622  0.00  0.00    +0.000 A 
ATOM     16  C   UNL     1      47.056   6.209  13.751  0.00  0.00    +0.000 A 
ATOM     17  C   UNL     1      47.283   4.998  14.299  0.00  0.00    +0.000 A 
ATOM     18  C   UNL     1      46.689   3.791  13.742  0.00  0.00    +0.000 A 
ATOM     19  C   UNL     1      45.874   3.894  12.680  0.00  0.00    +0.000 A 
ATOM     20  N   UNL     1      45.617   5.154  12.138  0.00  0.00    +0.000 N 
ENDBRANCH  11  12
ENDBRANCH   5  11
TORSDOF 4
ENDMDL
MODEL 8
REMARK VINA RESULT:    -6.216      2.883      4.216
REMARK INTER + INTRA:          -7.847
REMARK INTER:                  -7.470
REMARK INTRA:                  -0.377
REMARK UNBOUND:                -0.359
REMARK  Name = 
REMARK  4 active torsions:
REMARK  status: ('A' for Active; 'I' for Inactive)
REMARK    1  A    between atoms: N_1  and  C_2
REMARK    2  A    between atoms: C_2  and  C_3
REMARK    3  A    between atoms: C_7  and  C_8
REMARK    4  A    between atoms: C_8  and  C_9
REMARK                            x       y       z     vdW  Elec       q    Type
REMARK                         _______ _______ _______ _____ _____    ______ ____
ROOT
ATOM      1  C   UNL     1      47.441   7.741  13.315  0.00  0.00    +0.000 A 
ATOM      2  C   UNL     1      48.006   6.713  14.082  0.00  0.00    +0.000 A 
ATOM      3  C   UNL     1      47.368   5.481  14.202  0.00  0.00    +0.000 A 
ATOM      4  C   UNL     1      46.145   5.263  13.568  0.00  0.00    +0.000 A 
ATOM      5  C   UNL     1      45.551   6.276  12.802  0.00  0.00    +0.000 A 
ATOM      6  C   UNL     1      46.209   7.511  12.680  0.00  0.00    +0.000 A 
ENDROOT
BRANCH   1   7
ATOM      7  C   UNL     1      48.127   9.079  13.207  0.00  0.00    +0.000 C 
BRANCH   7   8
ATOM      8  N   UNL     1      47.177  10.153  12.936  0.00  0.00    +0.000 NA
ATOM      9  H   UNL     1      46.272   9.901  13.327  0.00  0.00    +0.000 HD
ATOM     10  H   UNL     1      47.045  10.221  11.928  0.00  0.00    +0.000 HD
ENDBRANCH   7   8
ENDBRANCH   1   7
BRANCH   5  11
ATOM     11  C   UNL     1      44.200   6.051  12.155  0.00  0.00    +0.000 C 
BRANCH  11  12
ATOM     12  C   UNL     1      44.038   4.714  11.520  0.00  0.00    +0.000 A 
ATOM     13  N   UNL     1      43.309   3.718  11.991  0.00  0.00    +0.000 NA
ATOM     14  N   UNL     1      43.370   2.674  11.099  0.00  0.00    +0.000 NA
ATOM     15  C   UNL     1      44.137   3.045  10.099  0.00  0.00    +0.000 A 
ATOM     16  C   UNL     1      44.524   2.402   8.893  0.00  0.00    +0.000 A 
ATOM     17  C   UNL     1      45.347   3.037   8.033  0.00  0.00    +0.000 A 
ATOM     18  C   UNL     1      45.872   4.363   8.327  0.00  0.00    +0.000 A 
ATOM     19  C   UNL     1      45.501   4.975   9.463  0.00  0.00    +0.000 A 
ATOM     20  N   UNL     1      44.623   4.325  10.332  0.00  0.00    +0.000 N 
ENDBRANCH  11  12
ENDBRANCH   5  11
TORSDOF 4
ENDMDL
MODEL 9
REMARK VINA RESULT:    -6.140      2.854      6.336
REMARK INTER + INTRA:          -7.756
REMARK INTER:                  -7.603
REMARK INTRA:                  -0.152
REMARK UNBOUND:                -0.359
REMARK  Name = 
REMARK  4 active torsions:
REMARK  status: ('A' for Active; 'I' for Inactive)
REMARK    1  A    between atoms: N_1  and  C_2
REMARK    2  A    between atoms: C_2  and  C_3
REMARK    3  A    between atoms: C_7  and  C_8
REMARK    4  A    between atoms: C_8  and  C_9
REMARK                            x       y       z     vdW  Elec       q    Type
REMARK                         _______ _______ _______ _____ _____    ______ ____
ROOT
ATOM      1  C   UNL     1      45.355   3.584   8.444  0.00  0.00    +0.000 A 
ATOM      2  C   UNL     1      44.607   2.588   9.087  0.00  0.00    +0.000 A 
ATOM      3  C   UNL     1      44.099   2.795  10.368  0.00  0.00    +0.000 A 
ATOM      4  C   UNL     1      44.345   3.996  11.031  0.00  0.00    +0.000 A 
ATOM      5  C   UNL     1      45.097   5.007  10.417  0.00  0.00    +0.000 A 
ATOM      6  C   UNL     1      45.596   4.791   9.121  0.00  0.00    +0.000 A 
ENDROOT
BRANCH   1   7
ATOM      7  C   UNL     1      45.919   3.345   7.067  0.00  0.00    +0.000 C 
BRANCH   7   8
ATOM      8  N   UNL     1      47.082   4.187   6.807  0.00  0.00    +0.000 NA
ATOM      9  H   UNL     1      46.998   5.045   7.347  0.00  0.00    +0.000 HD
ATOM     10  H   UNL     1      47.069   4.463   5.827  0.00  0.00    +0.000 HD
ENDBRANCH   7   8
ENDBRANCH   1   7
BRANCH   5  11
ATOM     11  C   UNL     1      45.402   6.291  11.160  0.00  0.00    +0.000 C 
BRANCH  11  12
ATOM     12  C   UNL     1      46.504   6.177  12.156  0.00  0.00    +0.000 A 
ATOM     13  N   UNL     1      46.733   5.138  12.939  0.00  0.00    +0.000 NA
ATOM     14  N   UNL     1      47.865   5.389  13.675  0.00  0.00    +0.000 NA
ATOM     15  C   UNL     1      48.310   6.578  13.335  0.00  0.00    +0.000 A 
ATOM     16  C   UNL     1      49.446   7.332  13.735  0.00  0.00    +0.000 A 
ATOM     17  C   UNL     1      49.651   8.557  13.210  0.00  0.00    +0.000 A 
ATOM     18  C   UNL     1      48.716   9.139  12.257  0.00  0.00    +0.000 A 
ATOM     19  C   UNL     1      47.646   8.425  11.872  0.00  0.00    +0.000 A 
ATOM     20  N   UNL     1      47.458   7.144  12.395  0.00  0.00    +0.000 N 
ENDBRANCH  11  12
ENDBRANCH   5  11
TORSDOF 4
ENDMDL
