MODEL 1
REMARK VINA RESULT:    -8.228      0.000      0.000
REMARK INTER + INTRA:         -11.353
REMARK INTER:                 -10.873
REMARK INTRA:                  -0.480
REMARK UNBOUND:                -0.480
REMARK  Name = 
REMARK  6 active torsions:
REMARK  status: ('A' for Active; 'I' for Inactive)
REMARK    1  A    between atoms: N_1  and  C_2
REMARK    2  A    between atoms: C_2  and  C_3
REMARK    3  A    between atoms: C_3  and  C_4
REMARK    4  A    between atoms: C_7  and  C_8
REMARK    5  A    between atoms: C_8  and  N_9
REMARK    6  A    between atoms: C_15  and  C_16
REMARK                            x       y       z     vdW  Elec       q    Type
REMARK                         _______ _______ _______ _____ _____    ______ ____
ROOT
ATOM      1  N   UNL     1      43.560   4.047  12.029  0.00  0.00    +0.000 N 
ATOM      2  C   UNL     1      42.762   5.154  11.945  0.00  0.00    +0.000 A 
ATOM      3  N   UNL     1      43.374   6.224  12.403  0.00  0.00    +0.000 NA
ATOM      4  C   UNL     1      44.615   5.784  12.811  0.00  0.00    +0.000 A 
ATOM      5  C   UNL     1      45.744   6.508  13.227  0.00  0.00    +0.000 A 
ATOM      6  F   UNL     1      45.703   7.852  13.241  0.00  0.00    +0.000 F 
ATOM      7  C   UNL     1      46.924   5.818  13.527  0.00  0.00    +0.000 A 
ATOM      8  C   UNL     1      46.935   4.413  13.541  0.00  0.00    +0.000 A 
ATOM      9  C   UNL     1      45.814   3.671  13.156  0.00  0.00    +0.000 A 
ATOM     10  C   UNL     1      44.699   4.395  12.720  0.00  0.00    +0.000 A 
ENDROOT
BRANCH   7  11
ATOM     11  C   UNL     1      48.217   6.522  13.721  0.00  0.00    +0.000 C 
ATOM     12  N   UNL     1      48.397   7.232  14.876  0.00  0.00    +0.000 N 
ATOM     13  O   UNL     1      49.084   6.502  12.859  0.00  0.00    +0.000 OA
ATOM     14  H   UNL     1      47.651   7.373  15.546  0.00  0.00    +0.000 HD
ATOM     15  H   UNL     1      49.210   7.829  14.932  0.00  0.00    +0.000 HD
ENDBRANCH   7  11
BRANCH   1  16
ATOM     16  C   UNL     1      43.373   2.833  11.247  0.00  0.00    +0.000 C 
BRANCH  16  20
ATOM     17  C   UNL     1      45.874   3.093   7.696  0.00  0.00    +0.000 A 
ATOM     18  C   UNL     1      45.650   1.864   8.326  0.00  0.00    +0.000 A 
ATOM     19  C   UNL     1      44.805   1.772   9.439  0.00  0.00    +0.000 A 
ATOM     20  C   UNL     1      44.183   2.912   9.966  0.00  0.00    +0.000 A 
ATOM     21  C   UNL     1      44.411   4.144   9.339  0.00  0.00    +0.000 A 
ATOM     22  C   UNL     1      45.247   4.231   8.223  0.00  0.00    +0.000 A 
BRANCH  17  23
ATOM     23  C   UNL     1      46.834   3.262   6.536  0.00  0.00    +0.000 C 
BRANCH  23  24
ATOM     24  C   UNL     1      48.170   2.515   6.654  0.00  0.00    +0.000 C 
BRANCH  24  25
ATOM     25  N   UNL     1      48.473   1.779   5.425  0.00  0.00    +0.000 NA
ATOM     26  H   UNL     1      47.819   1.002   5.329  0.00  0.00    +0.000 HD
ATOM     27  H   UNL     1      49.400   1.361   5.497  0.00  0.00    +0.000 HD
ENDBRANCH  24  25
ENDBRANCH  23  24
ENDBRANCH  17  23
ENDBRANCH  16  20
ENDBRANCH   1  16
TORSDOF 6
ENDMDL
MODEL 2
REMARK VINA RESULT:    -8.129      3.102      6.853
REMARK INTER + INTRA:         -11.223
REMARK INTER:                 -11.484
REMARK INTRA:                   0.261
REMARK UNBOUND:                -0.480
REMARK  Name = 
REMARK  6 active torsions:
REMARK  status: ('A' for Active; 'I' for Inactive)
REMARK    1  A    between atoms: N_1  and  C_2
REMARK    2  A    between atoms: C_2  and  C_3
REMARK    3  A    between atoms: C_3  and  C_4
REMARK    4  A    between atoms: C_7  and  C_8
REMARK    5  A    between atoms: C_8  and  N_9
REMARK    6  A    between atoms: C_15  and  C_16
REMARK                            x       y       z     vdW  Elec       q    Type
REMARK                         _______ _______ _______ _____ _____    ______ ____
ROOT
ATOM      1  N   UNL     1      44.553   4.806  10.405  0.00  0.00    +0.000 N 
ATOM      2  C   UNL     1      43.727   3.827  10.882  0.00  0.00    +0.000 A 
ATOM      3  N   UNL     1      43.892   2.698  10.228  0.00  0.00    +0.000 NA
ATOM      4  C   UNL     1      44.857   2.967   9.282  0.00  0.00    +0.000 A 
ATOM      5  C   UNL     1      45.546   2.101   8.416  0.00  0.00    +0.000 A 
ATOM      6  F   UNL     1      45.303   0.780   8.466  0.00  0.00    +0.000 F 
ATOM      7  C   UNL     1      46.545   2.622   7.586  0.00  0.00    +0.000 A 
ATOM      8  C   UNL     1      46.759   4.008   7.523  0.00  0.00    +0.000 A 
ATOM      9  C   UNL     1      46.066   4.892   8.357  0.00  0.00    +0.000 A 
ATOM     10  C   UNL     1      45.182   4.323   9.280  0.00  0.00    +0.000 A 
ENDROOT
BRANCH   7  11
ATOM     11  C   UNL     1      47.483   1.742   6.841  0.00  0.00    +0.000 C 
ATOM     12  N   UNL     1      48.628   2.298   6.342  0.00  0.00    +0.000 N 
ATOM     13  O   UNL     1      47.224   0.564   6.645  0.00  0.00    +0.000 OA
ATOM     14  H   UNL     1      48.806   3.294   6.376  0.00  0.00    +0.000 HD
ATOM     15  H   UNL     1      49.181   1.736   5.711  0.00  0.00    +0.000 HD
ENDBRANCH   7  11
BRANCH   1  16
ATOM     16  C   UNL     1      44.930   6.001  11.146  0.00  0.00    +0.000 C 
BRANCH  16  20
ATOM     17  C   UNL     1      47.253   5.019  14.692  0.00  0.00    +0.000 A 
ATOM     18  C   UNL     1      46.268   4.146  14.216  0.00  0.00    +0.000 A 
ATOM     19  C   UNL     1      45.556   4.439  13.047  0.00  0.00    +0.000 A 
ATOM     20  C   UNL     1      45.791   5.624  12.337  0.00  0.00    +0.000 A 
ATOM     21  C   UNL     1      46.773   6.501  12.816  0.00  0.00    +0.000 A 
ATOM     22  C   UNL     1      47.490   6.203  13.978  0.00  0.00    +0.000 A 
BRANCH  17  23
ATOM     23  C   UNL     1      48.002   4.789  15.989  0.00  0.00    +0.000 C 
BRANCH  23  24
ATOM     24  C   UNL     1      47.849   3.396  16.616  0.00  0.00    +0.000 C 
BRANCH  24  25
ATOM     25  N   UNL     1      46.732   3.363  17.561  0.00  0.00    +0.000 NA
ATOM     26  H   UNL     1      47.036   2.916  18.426  0.00  0.00    +0.000 HD
ATOM     27  H   UNL     1      45.985   2.777  17.188  0.00  0.00    +0.000 HD
ENDBRANCH  24  25
ENDBRANCH  23  24
ENDBRANCH  17  23
ENDBRANCH  16  20
ENDBRANCH   1  16
TORSDOF 6
ENDMDL
MODEL 3
REMARK VINA RESULT:    -7.675      1.827      2.525
REMARK INTER + INTRA:         -10.622
REMARK INTER:                  -9.995
REMARK INTRA:                  -0.628
REMARK UNBOUND:                -0.480
REMARK  Name = 
REMARK  6 active torsions:
REMARK  status: ('A' for Active; 'I' for Inactive)
REMARK    1  A    between atoms: N_1  and  C_2
REMARK    2  A    between atoms: C_2  and  C_3
REMARK    3  A    between atoms: C_3  and  C_4
REMARK    4  A    between atoms: C_7  and  C_8
REMARK    5  A    between atoms: C_8  and  N_9
REMARK    6  A    between atoms: C_15  and  C_16
REMARK                            x       y       z     vdW  Elec       q    Type
REMARK                         _______ _______ _______ _____ _____    ______ ____
ROOT
ATOM      1  N   UNL     1      45.770   4.679  12.373  0.00  0.00    +0.000 N 
ATOM      2  C   UNL     1      46.030   3.673  13.261  0.00  0.00    +0.000 A 
ATOM      3  N   UNL     1      46.875   4.059  14.192  0.00  0.00    +0.000 NA
ATOM      4  C   UNL     1      47.182   5.366  13.881  0.00  0.00    +0.000 A 
ATOM      5  C   UNL     1      47.900   6.328  14.610  0.00  0.00    +0.000 A 
ATOM      6  F   UNL     1      48.383   6.016  15.825  0.00  0.00    +0.000 F 
ATOM      7  C   UNL     1      48.014   7.626  14.098  0.00  0.00    +0.000 A 
ATOM      8  C   UNL     1      47.532   7.921  12.812  0.00  0.00    +0.000 A 
ATOM      9  C   UNL     1      46.838   6.971  12.057  0.00  0.00    +0.000 A 
ATOM     10  C   UNL     1      46.612   5.729  12.662  0.00  0.00    +0.000 A 
ENDROOT
BRANCH   7  11
ATOM     11  C   UNL     1      48.528   8.751  14.920  0.00  0.00    +0.000 C 
ATOM     12  N   UNL     1      47.703   9.286  15.869  0.00  0.00    +0.000 N 
ATOM     13  O   UNL     1      49.644   9.213  14.730  0.00  0.00    +0.000 OA
ATOM     14  H   UNL     1      46.733   9.011  15.960  0.00  0.00    +0.000 HD
ATOM     15  H   UNL     1      48.000  10.142  16.314  0.00  0.00    +0.000 HD
ENDBRANCH   7  11
BRANCH   1  16
ATOM     16  C   UNL     1      44.600   4.736  11.508  0.00  0.00    +0.000 C 
BRANCH  16  20
ATOM     17  C   UNL     1      45.783   3.115   7.647  0.00  0.00    +0.000 A 
ATOM     18  C   UNL     1      45.112   2.319   8.583  0.00  0.00    +0.000 A 
ATOM     19  C   UNL     1      44.687   2.855   9.805  0.00  0.00    +0.000 A 
ATOM     20  C   UNL     1      44.944   4.192  10.134  0.00  0.00    +0.000 A 
ATOM     21  C   UNL     1      45.622   4.988   9.200  0.00  0.00    +0.000 A 
ATOM     22  C   UNL     1      46.036   4.454   7.977  0.00  0.00    +0.000 A 
BRANCH  17  23
ATOM     23  C   UNL     1      46.329   2.569   6.343  0.00  0.00    +0.000 C 
BRANCH  23  24
ATOM     24  C   UNL     1      47.415   1.493   6.466  0.00  0.00    +0.000 C 
BRANCH  24  25
ATOM     25  N   UNL     1      48.609   1.858   5.703  0.00  0.00    +0.000 NA
ATOM     26  H   UNL     1      48.336   2.119   4.755  0.00  0.00    +0.000 HD
ATOM     27  H   UNL     1      49.217   1.044   5.607  0.00  0.00    +0.000 HD
ENDBRANCH  24  25
ENDBRANCH  23  24
ENDBRANCH  17  23
ENDBRANCH  16  20
ENDBRANCH   1  16
TORSDOF 6
ENDMDL
MODEL 4
REMARK VINA RESULT:    -6.469      4.393      7.768
REMARK INTER + INTRA:          -9.029
REMARK INTER:                  -8.556
REMARK INTRA:                  -0.473
REMARK UNBOUND:                -0.480
REMARK  Name = 
REMARK  6 active torsions:
REMARK  status: ('A' for Active; 'I' for Inactive)
REMARK    1  A    between atoms: N_1  and  C_2
REMARK    2  A    between atoms: C_2  and  C_3
REMARK    3  A    between atoms: C_3  and  C_4
REMARK    4  A    between atoms: C_7  and  C_8
REMARK    5  A    between atoms: C_8  and  N_9
REMARK    6  A    between atoms: C_15  and  C_16
REMARK                            x       y       z     vdW  Elec       q    Type
REMARK                         _______ _______ _______ _____ _____    ______ ____
ROOT
ATOM      1  N   UNL     1      47.617   5.014  15.204  0.00  0.00    +0.000 N 
ATOM      2  C   UNL     1      48.192   6.247  15.070  0.00  0.00    +0.000 A 
ATOM      3  N   UNL     1      47.871   6.805  13.924  0.00  0.00    +0.000 NA
ATOM      4  C   UNL     1      47.065   5.886  13.287  0.00  0.00    +0.000 A 
ATOM      5  C   UNL     1      46.301   6.005  12.114  0.00  0.00    +0.000 A 
ATOM      6  F   UNL     1      46.279   7.176  11.453  0.00  0.00    +0.000 F 
ATOM      7  C   UNL     1      45.500   4.931  11.711  0.00  0.00    +0.000 A 
ATOM      8  C   UNL     1      45.565   3.706  12.395  0.00  0.00    +0.000 A 
ATOM      9  C   UNL     1      46.339   3.556  13.550  0.00  0.00    +0.000 A 
ATOM     10  C   UNL     1      47.010   4.695  14.010  0.00  0.00    +0.000 A 
ENDROOT
BRANCH   7  11
ATOM     11  C   UNL     1      44.481   5.072  10.639  0.00  0.00    +0.000 C 
ATOM     12  N   UNL     1      44.906   5.060   9.340  0.00  0.00    +0.000 N 
ATOM     13  O   UNL     1      43.299   5.233  10.909  0.00  0.00    +0.000 OA
ATOM     14  H   UNL     1      45.887   5.059   9.091  0.00  0.00    +0.000 HD
ATOM     15  H   UNL     1      44.233   5.308   8.629  0.00  0.00    +0.000 HD
ENDBRANCH   7  11
BRANCH   1  16
ATOM     16  C   UNL     1      47.413   4.331  16.474  0.00  0.00    +0.000 C 
BRANCH  16  20
ATOM     17  C   UNL     1      51.266   2.713  17.688  0.00  0.00    +0.000 A 
ATOM     18  C   UNL     1      50.915   4.033  17.992  0.00  0.00    +0.000 A 
ATOM     19  C   UNL     1      49.656   4.539  17.646  0.00  0.00    +0.000 A 
ATOM     20  C   UNL     1      48.724   3.745  16.964  0.00  0.00    +0.000 A 
ATOM     21  C   UNL     1      49.077   2.425  16.653  0.00  0.00    +0.000 A 
ATOM     22  C   UNL     1      50.330   1.920  17.008  0.00  0.00    +0.000 A 
BRANCH  17  23
ATOM     23  C   UNL     1      52.638   2.138  17.974  0.00  0.00    +0.000 C 
BRANCH  23  24
ATOM     24  C   UNL     1      52.920   0.747  17.388  0.00  0.00    +0.000 C 
BRANCH  24  25
ATOM     25  N   UNL     1      52.880  -0.281  18.429  0.00  0.00    +0.000 NA
ATOM     26  H   UNL     1      53.707  -0.196  19.019  0.00  0.00    +0.000 HD
ATOM     27  H   UNL     1      52.933  -1.205  18.000  0.00  0.00    +0.000 HD
ENDBRANCH  24  25
ENDBRANCH  23  24
ENDBRANCH  17  23
ENDBRANCH  16  20
ENDBRANCH   1  16
TORSDOF 6
ENDMDL
MODEL 5
REMARK VINA RESULT:    -6.455      2.282      3.341
REMARK INTER + INTRA:          -9.010
REMARK INTER:                  -8.394
REMARK INTRA:                  -0.616
REMARK UNBOUND:                -0.480
REMARK  Name = 
REMARK  6 active torsions:
REMARK  status: ('A' for Active; 'I' for Inactive)
REMARK    1  A    between atoms: N_1  and  C_2
REMARK    2  A    between atoms: C_2  and  C_3
REMARK    3  A    between atoms: C_3  and  C_4
REMARK    4  A    between atoms: C_7  and  C_8
REMARK    5  A    between atoms: C_8  and  N_9
REMARK    6  A    between atoms: C_15  and  C_16
REMARK                            x       y       z     vdW  Elec       q    Type
REMARK                         _______ _______ _______ _____ _____    ______ ____
ROOT
ATOM      1  N   UNL     1      46.410   5.525  13.017  0.00  0.00    +0.000 N 
ATOM      2  C   UNL     1      46.636   4.776  14.138  0.00  0.00    +0.000 A 
ATOM      3  N   UNL     1      47.701   5.191  14.787  0.00  0.00    +0.000 NA
ATOM      4  C   UNL     1      48.189   6.245  14.045  0.00  0.00    +0.000 A 
ATOM      5  C   UNL     1      49.204   7.170  14.338  0.00  0.00    +0.000 A 
ATOM      6  F   UNL     1      49.842   7.103  15.520  0.00  0.00    +0.000 F 
ATOM      7  C   UNL     1      49.465   8.205  13.434  0.00  0.00    +0.000 A 
ATOM      8  C   UNL     1      48.813   8.236  12.190  0.00  0.00    +0.000 A 
ATOM      9  C   UNL     1      47.817   7.309  11.865  0.00  0.00    +0.000 A 
ATOM     10  C   UNL     1      47.477   6.379  12.853  0.00  0.00    +0.000 A 
ENDROOT
BRANCH   7  11
ATOM     11  C   UNL     1      50.334   9.356  13.788  0.00  0.00    +0.000 C 
ATOM     12  N   UNL     1      49.835  10.301  14.641  0.00  0.00    +0.000 N 
ATOM     13  O   UNL     1      51.449   9.479  13.303  0.00  0.00    +0.000 OA
ATOM     14  H   UNL     1      48.872  10.293  14.955  0.00  0.00    +0.000 HD
ATOM     15  H   UNL     1      50.368  11.151  14.756  0.00  0.00    +0.000 HD
ENDBRANCH   7  11
BRANCH   1  16
ATOM     16  C   UNL     1      45.129   5.618  12.330  0.00  0.00    +0.000 C 
BRANCH  16  20
ATOM     17  C   UNL     1      45.479   3.312   8.656  0.00  0.00    +0.000 A 
ATOM     18  C   UNL     1      45.045   2.709   9.843  0.00  0.00    +0.000 A 
ATOM     19  C   UNL     1      44.884   3.461  11.012  0.00  0.00    +0.000 A 
ATOM     20  C   UNL     1      45.178   4.831  11.033  0.00  0.00    +0.000 A 
ATOM     21  C   UNL     1      45.618   5.435   9.848  0.00  0.00    +0.000 A 
ATOM     22  C   UNL     1      45.769   4.684   8.679  0.00  0.00    +0.000 A 
BRANCH  17  23
ATOM     23  C   UNL     1      45.740   2.533   7.383  0.00  0.00    +0.000 C 
BRANCH  23  24
ATOM     24  C   UNL     1      47.013   1.676   7.368  0.00  0.00    +0.000 C 
BRANCH  24  25
ATOM     25  N   UNL     1      46.731   0.306   7.801  0.00  0.00    +0.000 NA
ATOM     26  H   UNL     1      47.328   0.074   8.594  0.00  0.00    +0.000 HD
ATOM     27  H   UNL     1      46.982  -0.346   7.058  0.00  0.00    +0.000 HD
ENDBRANCH  24  25
ENDBRANCH  23  24
ENDBRANCH  17  23
ENDBRANCH  16  20
ENDBRANCH   1  16
TORSDOF 6
ENDMDL
MODEL 6
REMARK VINA RESULT:    -6.182      3.626      6.477
REMARK INTER + INTRA:          -8.650
REMARK INTER:                  -8.025
REMARK INTRA:                  -0.624
REMARK UNBOUND:                -0.480
REMARK  Name = 
REMARK  6 active torsions:
REMARK  status: ('A' for Active; 'I' for Inactive)
REMARK    1  A    between atoms: N_1  and  C_2
REMARK    2  A    between atoms: C_2  and  C_3
REMARK    3  A    between atoms: C_3  and  C_4
REMARK    4  A    between atoms: C_7  and  C_8
REMARK    5  A    between atoms: C_8  and  N_9
REMARK    6  A    between atoms: C_15  and  C_16
REMARK                            x       y       z     vdW  Elec       q    Type
REMARK                         _______ _______ _______ _____ _____    ______ ____
ROOT
ATOM      1  N   UNL     1      47.298   7.255  13.616  0.00  0.00    +0.000 N 
ATOM      2  C   UNL     1      47.957   6.260  14.284  0.00  0.00    +0.000 A 
ATOM      3  N   UNL     1      47.439   5.080  14.022  0.00  0.00    +0.000 NA
ATOM      4  C   UNL     1      46.393   5.328  13.159  0.00  0.00    +0.000 A 
ATOM      5  C   UNL     1      45.592   4.439  12.424  0.00  0.00    +0.000 A 
ATOM      6  F   UNL     1      45.826   3.117  12.499  0.00  0.00    +0.000 F 
ATOM      7  C   UNL     1      44.627   4.954  11.551  0.00  0.00    +0.000 A 
ATOM      8  C   UNL     1      44.375   6.335  11.514  0.00  0.00    +0.000 A 
ATOM      9  C   UNL     1      45.142   7.237  12.258  0.00  0.00    +0.000 A 
ATOM     10  C   UNL     1      46.196   6.699  13.005  0.00  0.00    +0.000 A 
ENDROOT
BRANCH   7  11
ATOM     11  C   UNL     1      43.927   4.096  10.561  0.00  0.00    +0.000 C 
ATOM     12  N   UNL     1      44.011   4.437   9.240  0.00  0.00    +0.000 N 
ATOM     13  O   UNL     1      43.263   3.133  10.917  0.00  0.00    +0.000 OA
ATOM     14  H   UNL     1      44.444   5.298   8.929  0.00  0.00    +0.000 HD
ATOM     15  H   UNL     1      43.412   3.943   8.593  0.00  0.00    +0.000 HD
ENDBRANCH   7  11
BRANCH   1  16
ATOM     16  C   UNL     1      47.851   8.573  13.344  0.00  0.00    +0.000 C 
BRANCH  16  20
ATOM     17  C   UNL     1      51.740   7.992  11.479  0.00  0.00    +0.000 A 
ATOM     18  C   UNL     1      50.568   7.571  10.840  0.00  0.00    +0.000 A 
ATOM     19  C   UNL     1      49.313   7.803  11.416  0.00  0.00    +0.000 A 
ATOM     20  C   UNL     1      49.199   8.439  12.660  0.00  0.00    +0.000 A 
ATOM     21  C   UNL     1      50.372   8.855  13.304  0.00  0.00    +0.000 A 
ATOM     22  C   UNL     1      51.622   8.631  12.722  0.00  0.00    +0.000 A 
BRANCH  17  23
ATOM     23  C   UNL     1      53.125   7.701  10.937  0.00  0.00    +0.000 C 
BRANCH  23  24
ATOM     24  C   UNL     1      53.206   6.637   9.834  0.00  0.00    +0.000 C 
BRANCH  24  25
ATOM     25  N   UNL     1      53.543   5.326  10.390  0.00  0.00    +0.000 NA
ATOM     26  H   UNL     1      54.488   5.072  10.104  0.00  0.00    +0.000 HD
ATOM     27  H   UNL     1      52.927   4.616   9.992  0.00  0.00    +0.000 HD
ENDBRANCH  24  25
ENDBRANCH  23  24
ENDBRANCH  17  23
ENDBRANCH  16  20
ENDBRANCH   1  16
TORSDOF 6
ENDMDL
MODEL 7
REMARK VINA RESULT:    -5.670      4.169      6.224
REMARK INTER + INTRA:          -7.973
REMARK INTER:                  -7.370
REMARK INTRA:                  -0.603
REMARK UNBOUND:                -0.480
REMARK  Name = 
REMARK  6 active torsions:
REMARK  status: ('A' for Active; 'I' for Inactive)
REMARK    1  A    between atoms: N_1  and  C_2
REMARK    2  A    between atoms: C_2  and  C_3
REMARK    3  A    between atoms: C_3  and  C_4
REMARK    4  A    between atoms: C_7  and  C_8
REMARK    5  A    between atoms: C_8  and  N_9
REMARK    6  A    between atoms: C_15  and  C_16
REMARK                            x       y       z     vdW  Elec       q    Type
REMARK                         _______ _______ _______ _____ _____    ______ ____
ROOT
ATOM      1  N   UNL     1      48.757   7.370  14.080  0.00  0.00    +0.000 N 
ATOM      2  C   UNL     1      49.512   8.249  14.805  0.00  0.00    +0.000 A 
ATOM      3  N   UNL     1      49.746   7.796  16.017  0.00  0.00    +0.000 NA
ATOM      4  C   UNL     1      49.104   6.579  16.078  0.00  0.00    +0.000 A 
ATOM      5  C   UNL     1      49.147   5.578  17.063  0.00  0.00    +0.000 A 
ATOM      6  F   UNL     1      49.930   5.742  18.143  0.00  0.00    +0.000 F 
ATOM      7  C   UNL     1      48.447   4.385  16.852  0.00  0.00    +0.000 A 
ATOM      8  C   UNL     1      47.607   4.247  15.735  0.00  0.00    +0.000 A 
ATOM      9  C   UNL     1      47.528   5.242  14.755  0.00  0.00    +0.000 A 
ATOM     10  C   UNL     1      48.356   6.358  14.923  0.00  0.00    +0.000 A 
ENDROOT
BRANCH   7  11
ATOM     11  C   UNL     1      48.649   3.193  17.716  0.00  0.00    +0.000 C 
ATOM     12  N   UNL     1      48.225   3.259  19.014  0.00  0.00    +0.000 N 
ATOM     13  O   UNL     1      49.214   2.194  17.293  0.00  0.00    +0.000 OA
ATOM     14  H   UNL     1      47.874   4.115  19.426  0.00  0.00    +0.000 HD
ATOM     15  H   UNL     1      48.502   2.510  19.632  0.00  0.00    +0.000 HD
ENDBRANCH   7  11
BRANCH   1  16
ATOM     16  C   UNL     1      48.680   7.351  12.627  0.00  0.00    +0.000 C 
BRANCH  16  20
ATOM     17  C   UNL     1      44.484   6.971  11.539  0.00  0.00    +0.000 A 
ATOM     18  C   UNL     1      44.923   8.030  12.341  0.00  0.00    +0.000 A 
ATOM     19  C   UNL     1      46.280   8.181  12.649  0.00  0.00    +0.000 A 
ATOM     20  C   UNL     1      47.230   7.262  12.185  0.00  0.00    +0.000 A 
ATOM     21  C   UNL     1      46.791   6.197  11.387  0.00  0.00    +0.000 A 
ATOM     22  C   UNL     1      45.437   6.054  11.073  0.00  0.00    +0.000 A 
BRANCH  17  23
ATOM     23  C   UNL     1      43.021   6.718  11.235  0.00  0.00    +0.000 C 
BRANCH  23  24
ATOM     24  C   UNL     1      42.416   5.447  11.846  0.00  0.00    +0.000 C 
BRANCH  24  25
ATOM     25  N   UNL     1      42.646   5.395  13.291  0.00  0.00    +0.000 NA
ATOM     26  H   UNL     1      42.551   6.333  13.681  0.00  0.00    +0.000 HD
ATOM     27  H   UNL     1      43.608   5.109  13.475  0.00  0.00    +0.000 HD
ENDBRANCH  24  25
ENDBRANCH  23  24
ENDBRANCH  17  23
ENDBRANCH  16  20
ENDBRANCH   1  16
TORSDOF 6
ENDMDL
MODEL 8
REMARK VINA RESULT:    -5.521      3.891      5.513
REMARK INTER + INTRA:          -7.777
REMARK INTER:                  -7.880
REMARK INTRA:                   0.103
REMARK UNBOUND:                -0.480
REMARK  Name = 
REMARK  6 active torsions:
REMARK  status: ('A' for Active; 'I' for Inactive)
REMARK    1  A    between atoms: N_1  and  C_2
REMARK    2  A    between atoms: C_2  and  C_3
REMARK    3  A    between atoms: C_3  and  C_4
REMARK    4  A    between atoms: C_7  and  C_8
REMARK    5  A    between atoms: C_8  and  N_9
REMARK    6  A    between atoms: C_15  and  C_16
REMARK                            x       y       z     vdW  Elec       q    Type
REMARK                         _______ _______ _______ _____ _____    ______ ____
ROOT
ATOM      1  N   UNL     1      47.640   5.503  14.767  0.00  0.00    +0.000 N 
ATOM      2  C   UNL     1      47.335   4.197  14.498  0.00  0.00    +0.000 A 
ATOM      3  N   UNL     1      47.537   3.431  15.547  0.00  0.00    +0.000 NA
ATOM      4  C   UNL     1      48.003   4.278  16.529  0.00  0.00    +0.000 A 
ATOM      5  C   UNL     1      48.227   4.047  17.897  0.00  0.00    +0.000 A 
ATOM      6  F   UNL     1      47.949   2.840  18.421  0.00  0.00    +0.000 F 
ATOM      7  C   UNL     1      48.643   5.109  18.708  0.00  0.00    +0.000 A 
ATOM      8  C   UNL     1      48.961   6.351  18.135  0.00  0.00    +0.000 A 
ATOM      9  C   UNL     1      48.771   6.596  16.771  0.00  0.00    +0.000 A 
ATOM     10  C   UNL     1      48.213   5.558  16.018  0.00  0.00    +0.000 A 
ENDROOT
BRANCH   7  11
ATOM     11  C   UNL     1      48.651   5.008  20.190  0.00  0.00    +0.000 C 
ATOM     12  N   UNL     1      47.481   5.239  20.858  0.00  0.00    +0.000 N 
ATOM     13  O   UNL     1      49.681   4.763  20.801  0.00  0.00    +0.000 OA
ATOM     14  H   UNL     1      46.646   5.569  20.390  0.00  0.00    +0.000 HD
ATOM     15  H   UNL     1      47.528   5.319  21.863  0.00  0.00    +0.000 HD
ENDBRANCH   7  11
BRANCH   1  16
ATOM     16  C   UNL     1      47.144   6.640  14.005  0.00  0.00    +0.000 C 
BRANCH  16  20
ATOM     17  C   UNL     1      44.717   5.068  10.753  0.00  0.00    +0.000 A 
ATOM     18  C   UNL     1      44.336   4.881  12.086  0.00  0.00    +0.000 A 
ATOM     19  C   UNL     1      45.090   5.430  13.131  0.00  0.00    +0.000 A 
ATOM     20  C   UNL     1      46.259   6.158  12.870  0.00  0.00    +0.000 A 
ATOM     21  C   UNL     1      46.645   6.341  11.536  0.00  0.00    +0.000 A 
ATOM     22  C   UNL     1      45.886   5.800  10.495  0.00  0.00    +0.000 A 
BRANCH  17  23
ATOM     23  C   UNL     1      43.981   4.436   9.589  0.00  0.00    +0.000 C 
BRANCH  23  24
ATOM     24  C   UNL     1      44.561   3.115   9.064  0.00  0.00    +0.000 C 
BRANCH  24  25
ATOM     25  N   UNL     1      44.332   2.025  10.014  0.00  0.00    +0.000 NA
ATOM     26  H   UNL     1      44.602   2.331  10.948  0.00  0.00    +0.000 HD
ATOM     27  H   UNL     1      44.942   1.240   9.787  0.00  0.00    +0.000 HD
ENDBRANCH  24  25
ENDBRANCH  23  24
ENDBRANCH  17  23
ENDBRANCH  16  20
ENDBRANCH   1  16
TORSDOF 6
ENDMDL
MODEL 9
REMARK VINA RESULT:    -5.492      3.876      6.408
REMARK INTER + INTRA:          -7.737
REMARK INTER:                  -7.051
REMARK INTRA:                  -0.686
REMARK UNBOUND:                -0.480
REMARK  Name = 
REMARK  6 active torsions:
REMARK  status: ('A' for Active; 'I' for Inactive)
REMARK    1  A    between atoms: N_1  and  C_2
REMARK    2  A    between atoms: C_2  and  C_3
REMARK    3  A    between atoms: C_3  and  C_4
REMARK    4  A    between atoms: C_7  and  C_8
REMARK    5  A    between atoms: C_8  and  N_9
REMARK    6  A    between atoms: C_15  and  C_16
REMARK                            x       y       z     vdW  Elec       q    Type
REMARK                         _______ _______ _______ _____ _____    ______ ____
ROOT
ATOM      1  N   UNL     1      46.407   8.552  12.330  0.00  0.00    +0.000 N 
ATOM      2  C   UNL     1      45.453   9.373  11.798  0.00  0.00    +0.000 A 
ATOM      3  N   UNL     1      44.419   8.688  11.360  0.00  0.00    +0.000 NA
ATOM      4  C   UNL     1      44.728   7.369  11.609  0.00  0.00    +0.000 A 
ATOM      5  C   UNL     1      43.934   6.215  11.504  0.00  0.00    +0.000 A 
ATOM      6  F   UNL     1      42.648   6.325  11.126  0.00  0.00    +0.000 F 
ATOM      7  C   UNL     1      44.471   4.981  11.890  0.00  0.00    +0.000 A 
ATOM      8  C   UNL     1      45.825   4.882  12.248  0.00  0.00    +0.000 A 
ATOM      9  C   UNL     1      46.642   6.015  12.333  0.00  0.00    +0.000 A 
ATOM     10  C   UNL     1      46.033   7.250  12.085  0.00  0.00    +0.000 A 
ENDROOT
BRANCH   7  11
ATOM     11  C   UNL     1      43.623   3.772  12.050  0.00  0.00    +0.000 C 
ATOM     12  N   UNL     1      43.519   3.219  13.296  0.00  0.00    +0.000 N 
ATOM     13  O   UNL     1      43.062   3.262  11.091  0.00  0.00    +0.000 OA
ATOM     14  H   UNL     1      44.072   3.542  14.080  0.00  0.00    +0.000 HD
ATOM     15  H   UNL     1      43.070   2.317  13.368  0.00  0.00    +0.000 HD
ENDBRANCH   7  11
BRANCH   1  16
ATOM     16  C   UNL     1      47.442   8.982  13.259  0.00  0.00    +0.000 C 
BRANCH  16  20
ATOM     17  C   UNL     1      51.169   9.182  11.021  0.00  0.00    +0.000 A 
ATOM     18  C   UNL     1      50.267  10.252  11.009  0.00  0.00    +0.000 A 
ATOM     19  C   UNL     1      49.092  10.209  11.769  0.00  0.00    +0.000 A 
ATOM     20  C   UNL     1      48.775   9.083  12.540  0.00  0.00    +0.000 A 
ATOM     21  C   UNL     1      49.674   8.008  12.548  0.00  0.00    +0.000 A 
ATOM     22  C   UNL     1      50.851   8.058  11.796  0.00  0.00    +0.000 A 
BRANCH  17  23
ATOM     23  C   UNL     1      52.416   9.145  10.162  0.00  0.00    +0.000 C 
BRANCH  23  24
ATOM     24  C   UNL     1      53.033   7.759   9.929  0.00  0.00    +0.000 C 
BRANCH  24  25
ATOM     25  N   UNL     1      52.530   7.159   8.692  0.00  0.00    +0.000 NA
ATOM     26  H   UNL     1      52.076   6.272   8.909  0.00  0.00    +0.000 HD
ATOM     27  H   UNL     1      53.313   6.933   8.079  0.00  0.00    +0.000 HD
ENDBRANCH  24  25
ENDBRANCH  23  24
ENDBRANCH  17  23
ENDBRANCH  16  20
ENDBRANCH   1  16
TORSDOF 6
ENDMDL
