MODEL 1
REMARK VINA RESULT:    -9.012      0.000      0.000
REMARK INTER + INTRA:         -12.377
REMARK INTER:                 -11.646
REMARK INTRA:                  -0.731
REMARK UNBOUND:                -0.731
REMARK  Name = 
REMARK  5 active torsions:
REMARK  status: ('A' for Active; 'I' for Inactive)
REMARK    1  A    between atoms: C_8  and  C_9
REMARK    2  A    between atoms: N_11  and  C_12
REMARK    3  A    between atoms: C_12  and  C_13
REMARK    4  A    between atoms: C_16  and  C_17
REMARK    5  A    between atoms: C_17  and  C_18
REMARK                            x       y       z     vdW  Elec       q    Type
REMARK                         _______ _______ _______ _____ _____    ______ ____
ROOT
ATOM      1  C   UNL     1      48.011   6.773  13.931  0.00  0.00    +0.000 C 
ATOM      2  O   UNL     1      48.740   6.898  12.950  0.00  0.00    +0.000 OA
ATOM      3  N   UNL     1      46.666   7.040  13.854  0.00  0.00    +0.000 N 
ATOM      4  H   UNL     1      46.069   6.954  14.672  0.00  0.00    +0.000 HD
ENDROOT
BRANCH   1  12
ATOM      5  N   UNL     1      49.767   3.935  19.252  0.00  0.00    +0.000 N 
ATOM      6  C   UNL     1      48.947   4.047  18.163  0.00  0.00    +0.000 A 
ATOM      7  N   UNL     1      48.027   3.126  18.018  0.00  0.00    +0.000 NA
ATOM      8  N   UNL     1      47.191   3.193  16.925  0.00  0.00    +0.000 N 
ATOM      9  C   UNL     1      47.215   4.140  15.918  0.00  0.00    +0.000 A 
ATOM     10  O   UNL     1      46.425   4.090  14.982  0.00  0.00    +0.000 OA
ATOM     11  C   UNL     1      48.220   5.182  16.067  0.00  0.00    +0.000 A 
ATOM     12  C   UNL     1      48.552   6.315  15.227  0.00  0.00    +0.000 A 
ATOM     13  C   UNL     1      49.581   7.043  15.820  0.00  0.00    +0.000 A 
ATOM     14  S   UNL     1      50.139   6.382  17.291  0.00  0.00    +0.000 S 
ATOM     15  C   UNL     1      49.034   5.109  17.179  0.00  0.00    +0.000 A 
ATOM     16  H   UNL     1      49.400   3.330  19.977  0.00  0.00    +0.000 HD
ATOM     17  H   UNL     1      50.206   4.785  19.584  0.00  0.00    +0.000 HD
ATOM     18  H   UNL     1      46.505   2.451  16.840  0.00  0.00    +0.000 HD
ENDBRANCH   1  12
BRANCH   3  19
ATOM     19  C   UNL     1      46.054   7.456  12.617  0.00  0.00    +0.000 C 
BRANCH  19  20
ATOM     20  C   UNL     1      45.679   6.286  11.743  0.00  0.00    +0.000 A 
ATOM     21  C   UNL     1      44.984   5.192  12.273  0.00  0.00    +0.000 A 
ATOM     22  C   UNL     1      44.625   4.111  11.460  0.00  0.00    +0.000 A 
ATOM     23  C   UNL     1      44.952   4.103  10.096  0.00  0.00    +0.000 A 
ATOM     24  C   UNL     1      45.663   5.189   9.571  0.00  0.00    +0.000 A 
ATOM     25  C   UNL     1      46.032   6.264  10.387  0.00  0.00    +0.000 A 
BRANCH  23  26
ATOM     26  C   UNL     1      44.555   2.950   9.199  0.00  0.00    +0.000 C 
BRANCH  26  27
ATOM     27  C   UNL     1      45.610   2.493   8.213  0.00  0.00    +0.000 A 
ATOM     28  C   UNL     1      45.926   3.263   7.094  0.00  0.00    +0.000 A 
ATOM     29  C   UNL     1      46.807   2.752   6.144  0.00  0.00    +0.000 A 
ATOM     30  C   UNL     1      47.356   1.491   6.334  0.00  0.00    +0.000 A 
ATOM     31  C   UNL     1      47.010   0.797   7.479  0.00  0.00    +0.000 A 
ATOM     32  N   UNL     1      46.151   1.263   8.414  0.00  0.00    +0.000 NA
ENDBRANCH  26  27
ENDBRANCH  23  26
ENDBRANCH  19  20
ENDBRANCH   3  19
TORSDOF 5
ENDMDL
MODEL 2
REMARK VINA RESULT:    -8.245      3.593      4.567
REMARK INTER + INTRA:         -11.386
REMARK INTER:                 -10.347
REMARK INTRA:                  -1.040
REMARK UNBOUND:                -0.731
REMARK  Name = 
REMARK  5 active torsions:
REMARK  status: ('A' for Active; 'I' for Inactive)
REMARK    1  A    between atoms: C_8  and  C_9
REMARK    2  A    between atoms: N_11  and  C_12
REMARK    3  A    between atoms: C_12  and  C_13
REMARK    4  A    between atoms: C_16  and  C_17
REMARK    5  A    between atoms: C_17  and  C_18
REMARK                            x       y       z     vdW  Elec       q    Type
REMARK                         _______ _______ _______ _____ _____    ______ ____
ROOT
ATOM      1  C   UNL     1      45.729   8.296  12.305  0.00  0.00    +0.000 C 
ATOM      2  O   UNL     1      44.724   8.645  11.689  0.00  0.00    +0.000 OA
ATOM      3  N   UNL     1      45.726   7.166  13.086  0.00  0.00    +0.000 N 
ATOM      4  H   UNL     1      46.553   6.893  13.609  0.00  0.00    +0.000 HD
ENDROOT
BRANCH   1  12
ATOM      5  N   UNL     1      51.528  10.654  11.794  0.00  0.00    +0.000 N 
ATOM      6  C   UNL     1      50.669   9.611  12.002  0.00  0.00    +0.000 A 
ATOM      7  N   UNL     1      51.203   8.425  12.156  0.00  0.00    +0.000 NA
ATOM      8  N   UNL     1      50.370   7.345  12.350  0.00  0.00    +0.000 N 
ATOM      9  C   UNL     1      48.988   7.358  12.391  0.00  0.00    +0.000 A 
ATOM     10  O   UNL     1      48.349   6.325  12.558  0.00  0.00    +0.000 OA
ATOM     11  C   UNL     1      48.374   8.668  12.238  0.00  0.00    +0.000 A 
ATOM     12  C   UNL     1      46.982   9.072  12.215  0.00  0.00    +0.000 A 
ATOM     13  C   UNL     1      46.907  10.456  12.072  0.00  0.00    +0.000 A 
ATOM     14  S   UNL     1      48.426  11.224  11.940  0.00  0.00    +0.000 S 
ATOM     15  C   UNL     1      49.226   9.740  12.065  0.00  0.00    +0.000 A 
ATOM     16  H   UNL     1      52.484  10.453  12.065  0.00  0.00    +0.000 HD
ATOM     17  H   UNL     1      51.196  11.578  12.043  0.00  0.00    +0.000 HD
ATOM     18  H   UNL     1      50.824   6.442  12.445  0.00  0.00    +0.000 HD
ENDBRANCH   1  12
BRANCH   3  19
ATOM     19  C   UNL     1      44.555   6.335  13.196  0.00  0.00    +0.000 C 
BRANCH  19  20
ATOM     20  C   UNL     1      44.529   5.242  12.158  0.00  0.00    +0.000 A 
ATOM     21  C   UNL     1      43.787   5.392  10.980  0.00  0.00    +0.000 A 
ATOM     22  C   UNL     1      43.772   4.384  10.010  0.00  0.00    +0.000 A 
ATOM     23  C   UNL     1      44.506   3.202  10.196  0.00  0.00    +0.000 A 
ATOM     24  C   UNL     1      45.234   3.046  11.382  0.00  0.00    +0.000 A 
ATOM     25  C   UNL     1      45.238   4.049  12.357  0.00  0.00    +0.000 A 
BRANCH  23  26
ATOM     26  C   UNL     1      44.515   2.111   9.149  0.00  0.00    +0.000 C 
BRANCH  26  27
ATOM     27  C   UNL     1      45.669   2.153   8.168  0.00  0.00    +0.000 A 
ATOM     28  C   UNL     1      45.835   3.234   7.304  0.00  0.00    +0.000 A 
ATOM     29  C   UNL     1      46.831   3.180   6.331  0.00  0.00    +0.000 A 
ATOM     30  C   UNL     1      47.640   2.055   6.247  0.00  0.00    +0.000 A 
ATOM     31  C   UNL     1      47.427   1.032   7.154  0.00  0.00    +0.000 A 
ATOM     32  N   UNL     1      46.464   1.053   8.103  0.00  0.00    +0.000 NA
ENDBRANCH  26  27
ENDBRANCH  23  26
ENDBRANCH  19  20
ENDBRANCH   3  19
TORSDOF 5
ENDMDL
MODEL 3
REMARK VINA RESULT:    -8.033      1.515      2.149
REMARK INTER + INTRA:         -11.113
REMARK INTER:                 -10.079
REMARK INTRA:                  -1.034
REMARK UNBOUND:                -0.731
REMARK  Name = 
REMARK  5 active torsions:
REMARK  status: ('A' for Active; 'I' for Inactive)
REMARK    1  A    between atoms: C_8  and  C_9
REMARK    2  A    between atoms: N_11  and  C_12
REMARK    3  A    between atoms: C_12  and  C_13
REMARK    4  A    between atoms: C_16  and  C_17
REMARK    5  A    between atoms: C_17  and  C_18
REMARK                            x       y       z     vdW  Elec       q    Type
REMARK                         _______ _______ _______ _____ _____    ______ ____
ROOT
ATOM      1  C   UNL     1      48.889   7.811  15.480  0.00  0.00    +0.000 C 
ATOM      2  O   UNL     1      49.843   8.342  14.915  0.00  0.00    +0.000 OA
ATOM      3  N   UNL     1      47.658   7.737  14.877  0.00  0.00    +0.000 N 
ATOM      4  H   UNL     1      46.867   7.316  15.356  0.00  0.00    +0.000 HD
ENDROOT
BRANCH   1  12
ATOM      5  N   UNL     1      49.365   4.370  20.713  0.00  0.00    +0.000 N 
ATOM      6  C   UNL     1      48.998   4.524  19.405  0.00  0.00    +0.000 A 
ATOM      7  N   UNL     1      48.505   3.472  18.800  0.00  0.00    +0.000 NA
ATOM      8  N   UNL     1      48.139   3.581  17.477  0.00  0.00    +0.000 N 
ATOM      9  C   UNL     1      48.244   4.703  16.675  0.00  0.00    +0.000 A 
ATOM     10  O   UNL     1      47.895   4.677  15.500  0.00  0.00    +0.000 OA
ATOM     11  C   UNL     1      48.774   5.888  17.331  0.00  0.00    +0.000 A 
ATOM     12  C   UNL     1      49.037   7.220  16.826  0.00  0.00    +0.000 A 
ATOM     13  C   UNL     1      49.522   8.018  17.861  0.00  0.00    +0.000 A 
ATOM     14  S   UNL     1      49.681   7.201  19.350  0.00  0.00    +0.000 S 
ATOM     15  C   UNL     1      49.116   5.764  18.662  0.00  0.00    +0.000 A 
ATOM     16  H   UNL     1      48.957   3.555  21.157  0.00  0.00    +0.000 HD
ATOM     17  H   UNL     1      49.385   5.205  21.285  0.00  0.00    +0.000 HD
ATOM     18  H   UNL     1      47.780   2.738  17.041  0.00  0.00    +0.000 HD
ENDBRANCH   1  12
BRANCH   3  19
ATOM     19  C   UNL     1      47.441   8.256  13.550  0.00  0.00    +0.000 C 
BRANCH  19  20
ATOM     20  C   UNL     1      46.562   7.355  12.720  0.00  0.00    +0.000 A 
ATOM     21  C   UNL     1      45.496   7.881  11.980  0.00  0.00    +0.000 A 
ATOM     22  C   UNL     1      44.687   7.046  11.200  0.00  0.00    +0.000 A 
ATOM     23  C   UNL     1      44.931   5.666  11.141  0.00  0.00    +0.000 A 
ATOM     24  C   UNL     1      45.987   5.140  11.895  0.00  0.00    +0.000 A 
ATOM     25  C   UNL     1      46.787   5.972  12.684  0.00  0.00    +0.000 A 
BRANCH  23  26
ATOM     26  C   UNL     1      44.078   4.754  10.287  0.00  0.00    +0.000 C 
BRANCH  26  27
ATOM     27  C   UNL     1      44.829   3.896   9.291  0.00  0.00    +0.000 A 
ATOM     28  C   UNL     1      44.885   2.510   9.437  0.00  0.00    +0.000 A 
ATOM     29  C   UNL     1      45.689   1.768   8.575  0.00  0.00    +0.000 A 
ATOM     30  C   UNL     1      46.411   2.421   7.585  0.00  0.00    +0.000 A 
ATOM     31  C   UNL     1      46.286   3.796   7.490  0.00  0.00    +0.000 A 
ATOM     32  N   UNL     1      45.521   4.543   8.317  0.00  0.00    +0.000 NA
ENDBRANCH  26  27
ENDBRANCH  23  26
ENDBRANCH  19  20
ENDBRANCH   3  19
TORSDOF 5
ENDMDL
MODEL 4
REMARK VINA RESULT:    -7.850      2.272      3.809
REMARK INTER + INTRA:         -10.876
REMARK INTER:                  -9.953
REMARK INTRA:                  -0.923
REMARK UNBOUND:                -0.731
REMARK  Name = 
REMARK  5 active torsions:
REMARK  status: ('A' for Active; 'I' for Inactive)
REMARK    1  A    between atoms: C_8  and  C_9
REMARK    2  A    between atoms: N_11  and  C_12
REMARK    3  A    between atoms: C_12  and  C_13
REMARK    4  A    between atoms: C_16  and  C_17
REMARK    5  A    between atoms: C_17  and  C_18
REMARK                            x       y       z     vdW  Elec       q    Type
REMARK                         _______ _______ _______ _____ _____    ______ ____
ROOT
ATOM      1  C   UNL     1      47.474   5.658  14.417  0.00  0.00    +0.000 C 
ATOM      2  O   UNL     1      47.457   4.540  14.928  0.00  0.00    +0.000 OA
ATOM      3  N   UNL     1      46.405   6.121  13.690  0.00  0.00    +0.000 N 
ATOM      4  H   UNL     1      46.431   7.038  13.252  0.00  0.00    +0.000 HD
ENDROOT
BRANCH   1  12
ATOM      5  N   UNL     1      52.146   9.849  14.165  0.00  0.00    +0.000 N 
ATOM      6  C   UNL     1      51.151   9.121  13.574  0.00  0.00    +0.000 A 
ATOM      7  N   UNL     1      50.931   9.341  12.301  0.00  0.00    +0.000 NA
ATOM      8  N   UNL     1      49.926   8.641  11.672  0.00  0.00    +0.000 N 
ATOM      9  C   UNL     1      49.080   7.709  12.244  0.00  0.00    +0.000 A 
ATOM     10  O   UNL     1      48.207   7.156  11.583  0.00  0.00    +0.000 OA
ATOM     11  C   UNL     1      49.315   7.437  13.654  0.00  0.00    +0.000 A 
ATOM     12  C   UNL     1      48.639   6.550  14.580  0.00  0.00    +0.000 A 
ATOM     13  C   UNL     1      49.262   6.624  15.824  0.00  0.00    +0.000 A 
ATOM     14  S   UNL     1      50.568   7.721  15.883  0.00  0.00    +0.000 S 
ATOM     15  C   UNL     1      50.340   8.133  14.260  0.00  0.00    +0.000 A 
ATOM     16  H   UNL     1      52.792  10.264  13.505  0.00  0.00    +0.000 HD
ATOM     17  H   UNL     1      52.573   9.452  14.993  0.00  0.00    +0.000 HD
ATOM     18  H   UNL     1      49.777   8.856  10.692  0.00  0.00    +0.000 HD
ENDBRANCH   1  12
BRANCH   3  19
ATOM     19  C   UNL     1      45.216   5.327  13.516  0.00  0.00    +0.000 C 
BRANCH  19  20
ATOM     20  C   UNL     1      45.043   4.859  12.093  0.00  0.00    +0.000 A 
ATOM     21  C   UNL     1      45.543   5.615  11.026  0.00  0.00    +0.000 A 
ATOM     22  C   UNL     1      45.394   5.175   9.706  0.00  0.00    +0.000 A 
ATOM     23  C   UNL     1      44.743   3.965   9.425  0.00  0.00    +0.000 A 
ATOM     24  C   UNL     1      44.229   3.218  10.492  0.00  0.00    +0.000 A 
ATOM     25  C   UNL     1      44.367   3.664  11.810  0.00  0.00    +0.000 A 
BRANCH  23  26
ATOM     26  C   UNL     1      44.591   3.466   8.005  0.00  0.00    +0.000 C 
BRANCH  26  27
ATOM     27  C   UNL     1      45.836   2.871   7.381  0.00  0.00    +0.000 A 
ATOM     28  C   UNL     1      46.384   3.411   6.219  0.00  0.00    +0.000 A 
ATOM     29  C   UNL     1      47.453   2.761   5.605  0.00  0.00    +0.000 A 
ATOM     30  C   UNL     1      47.953   1.595   6.167  0.00  0.00    +0.000 A 
ATOM     31  C   UNL     1      47.370   1.133   7.333  0.00  0.00    +0.000 A 
ATOM     32  N   UNL     1      46.327   1.736   7.946  0.00  0.00    +0.000 NA
ENDBRANCH  26  27
ENDBRANCH  23  26
ENDBRANCH  19  20
ENDBRANCH   3  19
TORSDOF 5
ENDMDL
MODEL 5
REMARK VINA RESULT:    -7.849      2.041      2.675
REMARK INTER + INTRA:         -10.874
REMARK INTER:                  -9.826
REMARK INTRA:                  -1.048
REMARK UNBOUND:                -0.731
REMARK  Name = 
REMARK  5 active torsions:
REMARK  status: ('A' for Active; 'I' for Inactive)
REMARK    1  A    between atoms: C_8  and  C_9
REMARK    2  A    between atoms: N_11  and  C_12
REMARK    3  A    between atoms: C_12  and  C_13
REMARK    4  A    between atoms: C_16  and  C_17
REMARK    5  A    between atoms: C_17  and  C_18
REMARK                            x       y       z     vdW  Elec       q    Type
REMARK                         _______ _______ _______ _____ _____    ______ ____
ROOT
ATOM      1  C   UNL     1      49.038   6.532  16.416  0.00  0.00    +0.000 C 
ATOM      2  O   UNL     1      48.504   7.391  17.115  0.00  0.00    +0.000 OA
ATOM      3  N   UNL     1      48.784   6.456  15.068  0.00  0.00    +0.000 N 
ATOM      4  H   UNL     1      49.212   5.732  14.498  0.00  0.00    +0.000 HD
ENDROOT
BRANCH   1  12
ATOM      5  N   UNL     1      52.541   1.677  18.314  0.00  0.00    +0.000 N 
ATOM      6  C   UNL     1      51.415   2.192  17.734  0.00  0.00    +0.000 A 
ATOM      7  N   UNL     1      50.550   1.335  17.252  0.00  0.00    +0.000 NA
ATOM      8  N   UNL     1      49.411   1.815  16.644  0.00  0.00    +0.000 N 
ATOM      9  C   UNL     1      49.062   3.140  16.462  0.00  0.00    +0.000 A 
ATOM     10  O   UNL     1      48.022   3.449  15.891  0.00  0.00    +0.000 OA
ATOM     11  C   UNL     1      50.001   4.111  17.004  0.00  0.00    +0.000 A 
ATOM     12  C   UNL     1      49.985   5.560  16.998  0.00  0.00    +0.000 A 
ATOM     13  C   UNL     1      51.105   6.035  17.677  0.00  0.00    +0.000 A 
ATOM     14  S   UNL     1      52.134   4.807  18.263  0.00  0.00    +0.000 S 
ATOM     15  C   UNL     1      51.126   3.610  17.628  0.00  0.00    +0.000 A 
ATOM     16  H   UNL     1      52.456   0.699  18.567  0.00  0.00    +0.000 HD
ATOM     17  H   UNL     1      53.012   2.257  18.997  0.00  0.00    +0.000 HD
ATOM     18  H   UNL     1      48.778   1.118  16.267  0.00  0.00    +0.000 HD
ENDBRANCH   1  12
BRANCH   3  19
ATOM     19  C   UNL     1      47.901   7.390  14.418  0.00  0.00    +0.000 C 
BRANCH  19  20
ATOM     20  C   UNL     1      46.987   6.718  13.425  0.00  0.00    +0.000 A 
ATOM     21  C   UNL     1      46.908   5.321  13.359  0.00  0.00    +0.000 A 
ATOM     22  C   UNL     1      46.051   4.697  12.445  0.00  0.00    +0.000 A 
ATOM     23  C   UNL     1      45.250   5.457  11.581  0.00  0.00    +0.000 A 
ATOM     24  C   UNL     1      45.343   6.853  11.637  0.00  0.00    +0.000 A 
ATOM     25  C   UNL     1      46.209   7.478  12.541  0.00  0.00    +0.000 A 
BRANCH  23  26
ATOM     26  C   UNL     1      44.305   4.797  10.602  0.00  0.00    +0.000 C 
BRANCH  26  27
ATOM     27  C   UNL     1      44.959   3.968   9.516  0.00  0.00    +0.000 A 
ATOM     28  C   UNL     1      44.934   2.574   9.566  0.00  0.00    +0.000 A 
ATOM     29  C   UNL     1      45.654   1.848   8.619  0.00  0.00    +0.000 A 
ATOM     30  C   UNL     1      46.373   2.525   7.645  0.00  0.00    +0.000 A 
ATOM     31  C   UNL     1      46.332   3.908   7.648  0.00  0.00    +0.000 A 
ATOM     32  N   UNL     1      45.650   4.640   8.558  0.00  0.00    +0.000 NA
ENDBRANCH  26  27
ENDBRANCH  23  26
ENDBRANCH  19  20
ENDBRANCH   3  19
TORSDOF 5
ENDMDL
MODEL 6
REMARK VINA RESULT:    -7.117      3.229      3.949
REMARK INTER + INTRA:          -9.929
REMARK INTER:                  -9.259
REMARK INTRA:                  -0.671
REMARK UNBOUND:                -0.731
REMARK  Name = 
REMARK  5 active torsions:
REMARK  status: ('A' for Active; 'I' for Inactive)
REMARK    1  A    between atoms: C_8  and  C_9
REMARK    2  A    between atoms: N_11  and  C_12
REMARK    3  A    between atoms: C_12  and  C_13
REMARK    4  A    between atoms: C_16  and  C_17
REMARK    5  A    between atoms: C_17  and  C_18
REMARK                            x       y       z     vdW  Elec       q    Type
REMARK                         _______ _______ _______ _____ _____    ______ ____
ROOT
ATOM      1  C   UNL     1      47.309   8.137  12.768  0.00  0.00    +0.000 C 
ATOM      2  O   UNL     1      46.574   8.891  12.133  0.00  0.00    +0.000 OA
ATOM      3  N   UNL     1      46.814   7.010  13.375  0.00  0.00    +0.000 N 
ATOM      4  H   UNL     1      47.421   6.400  13.916  0.00  0.00    +0.000 HD
ENDROOT
BRANCH   1  12
ATOM      5  N   UNL     1      53.275   9.334  14.324  0.00  0.00    +0.000 N 
ATOM      6  C   UNL     1      51.940   9.298  14.618  0.00  0.00    +0.000 A 
ATOM      7  N   UNL     1      51.593   9.630  15.837  0.00  0.00    +0.000 NA
ATOM      8  N   UNL     1      50.259   9.590  16.178  0.00  0.00    +0.000 N 
ATOM      9  C   UNL     1      49.204   9.215  15.366  0.00  0.00    +0.000 A 
ATOM     10  O   UNL     1      48.053   9.206  15.787  0.00  0.00    +0.000 OA
ATOM     11  C   UNL     1      49.565   8.857  14.003  0.00  0.00    +0.000 A 
ATOM     12  C   UNL     1      48.755   8.410  12.888  0.00  0.00    +0.000 A 
ATOM     13  C   UNL     1      49.570   8.220  11.774  0.00  0.00    +0.000 A 
ATOM     14  S   UNL     1      51.223   8.532  12.062  0.00  0.00    +0.000 S 
ATOM     15  C   UNL     1      50.904   8.923  13.675  0.00  0.00    +0.000 A 
ATOM     16  H   UNL     1      53.821   9.883  14.978  0.00  0.00    +0.000 HD
ATOM     17  H   UNL     1      53.527   9.451  13.351  0.00  0.00    +0.000 HD
ATOM     18  H   UNL     1      50.035   9.836  17.137  0.00  0.00    +0.000 HD
ENDBRANCH   1  12
BRANCH   3  19
ATOM     19  C   UNL     1      45.421   6.653  13.274  0.00  0.00    +0.000 C 
BRANCH  19  20
ATOM     20  C   UNL     1      45.180   5.578  12.246  0.00  0.00    +0.000 A 
ATOM     21  C   UNL     1      44.971   5.909  10.901  0.00  0.00    +0.000 A 
ATOM     22  C   UNL     1      44.758   4.910   9.944  0.00  0.00    +0.000 A 
ATOM     23  C   UNL     1      44.754   3.556  10.311  0.00  0.00    +0.000 A 
ATOM     24  C   UNL     1      44.946   3.228  11.659  0.00  0.00    +0.000 A 
ATOM     25  C   UNL     1      45.146   4.227  12.618  0.00  0.00    +0.000 A 
BRANCH  23  26
ATOM     26  C   UNL     1      44.545   2.465   9.285  0.00  0.00    +0.000 C 
BRANCH  26  27
ATOM     27  C   UNL     1      45.642   2.317   8.252  0.00  0.00    +0.000 A 
ATOM     28  C   UNL     1      45.852   3.298   7.284  0.00  0.00    +0.000 A 
ATOM     29  C   UNL     1      46.784   3.069   6.275  0.00  0.00    +0.000 A 
ATOM     30  C   UNL     1      47.489   1.873   6.257  0.00  0.00    +0.000 A 
ATOM     31  C   UNL     1      47.240   0.957   7.264  0.00  0.00    +0.000 A 
ATOM     32  N   UNL     1      46.335   1.148   8.251  0.00  0.00    +0.000 NA
ENDBRANCH  26  27
ENDBRANCH  23  26
ENDBRANCH  19  20
ENDBRANCH   3  19
TORSDOF 5
ENDMDL
MODEL 7
REMARK VINA RESULT:    -6.959      3.677      8.328
REMARK INTER + INTRA:          -9.725
REMARK INTER:                  -8.651
REMARK INTRA:                  -1.074
REMARK UNBOUND:                -0.731
REMARK  Name = 
REMARK  5 active torsions:
REMARK  status: ('A' for Active; 'I' for Inactive)
REMARK    1  A    between atoms: C_8  and  C_9
REMARK    2  A    between atoms: N_11  and  C_12
REMARK    3  A    between atoms: C_12  and  C_13
REMARK    4  A    between atoms: C_16  and  C_17
REMARK    5  A    between atoms: C_17  and  C_18
REMARK                            x       y       z     vdW  Elec       q    Type
REMARK                         _______ _______ _______ _____ _____    ______ ____
ROOT
ATOM      1  C   UNL     1      47.504   7.788  13.662  0.00  0.00    +0.000 C 
ATOM      2  O   UNL     1      47.277   8.864  14.209  0.00  0.00    +0.000 OA
ATOM      3  N   UNL     1      48.755   7.222  13.700  0.00  0.00    +0.000 N 
ATOM      4  H   UNL     1      48.944   6.342  13.228  0.00  0.00    +0.000 HD
ENDROOT
BRANCH   1  12
ATOM      5  N   UNL     1      43.240   3.851  11.259  0.00  0.00    +0.000 N 
ATOM      6  C   UNL     1      44.381   4.098  11.971  0.00  0.00    +0.000 A 
ATOM      7  N   UNL     1      44.973   3.067  12.519  0.00  0.00    +0.000 NA
ATOM      8  N   UNL     1      46.116   3.276  13.259  0.00  0.00    +0.000 N 
ATOM      9  C   UNL     1      46.729   4.488  13.515  0.00  0.00    +0.000 A 
ATOM     10  O   UNL     1      47.742   4.553  14.203  0.00  0.00    +0.000 OA
ATOM     11  C   UNL     1      46.097   5.647  12.904  0.00  0.00    +0.000 A 
ATOM     12  C   UNL     1      46.435   7.055  12.953  0.00  0.00    +0.000 A 
ATOM     13  C   UNL     1      45.532   7.773  12.172  0.00  0.00    +0.000 A 
ATOM     14  S   UNL     1      44.326   6.810  11.444  0.00  0.00    +0.000 S 
ATOM     15  C   UNL     1      44.965   5.414  12.149  0.00  0.00    +0.000 A 
ATOM     16  H   UNL     1      43.132   2.880  10.989  0.00  0.00    +0.000 HD
ATOM     17  H   UNL     1      42.989   4.525  10.547  0.00  0.00    +0.000 HD
ATOM     18  H   UNL     1      46.532   2.452  13.681  0.00  0.00    +0.000 HD
ENDBRANCH   1  12
BRANCH   3  19
ATOM     19  C   UNL     1      49.843   7.855  14.401  0.00  0.00    +0.000 C 
BRANCH  19  20
ATOM     20  C   UNL     1      50.343   7.021  15.553  0.00  0.00    +0.000 A 
ATOM     21  C   UNL     1      49.445   6.341  16.385  0.00  0.00    +0.000 A 
ATOM     22  C   UNL     1      49.910   5.556  17.447  0.00  0.00    +0.000 A 
ATOM     23  C   UNL     1      51.284   5.433  17.697  0.00  0.00    +0.000 A 
ATOM     24  C   UNL     1      52.180   6.127  16.875  0.00  0.00    +0.000 A 
ATOM     25  C   UNL     1      51.715   6.921  15.821  0.00  0.00    +0.000 A 
BRANCH  23  26
ATOM     26  C   UNL     1      51.803   4.574  18.830  0.00  0.00    +0.000 C 
BRANCH  26  27
ATOM     27  C   UNL     1      52.369   3.228  18.426  0.00  0.00    +0.000 A 
ATOM     28  C   UNL     1      51.601   2.314  17.706  0.00  0.00    +0.000 A 
ATOM     29  C   UNL     1      52.110   1.040  17.464  0.00  0.00    +0.000 A 
ATOM     30  C   UNL     1      53.373   0.710  17.937  0.00  0.00    +0.000 A 
ATOM     31  C   UNL     1      54.083   1.679  18.625  0.00  0.00    +0.000 A 
ATOM     32  N   UNL     1      53.611   2.919  18.883  0.00  0.00    +0.000 NA
ENDBRANCH  26  27
ENDBRANCH  23  26
ENDBRANCH  19  20
ENDBRANCH   3  19
TORSDOF 5
ENDMDL
MODEL 8
REMARK VINA RESULT:    -6.887      4.136      5.652
REMARK INTER + INTRA:          -9.631
REMARK INTER:                  -8.512
REMARK INTRA:                  -1.119
REMARK UNBOUND:                -0.731
REMARK  Name = 
REMARK  5 active torsions:
REMARK  status: ('A' for Active; 'I' for Inactive)
REMARK    1  A    between atoms: C_8  and  C_9
REMARK    2  A    between atoms: N_11  and  C_12
REMARK    3  A    between atoms: C_12  and  C_13
REMARK    4  A    between atoms: C_16  and  C_17
REMARK    5  A    between atoms: C_17  and  C_18
REMARK                            x       y       z     vdW  Elec       q    Type
REMARK                         _______ _______ _______ _____ _____    ______ ____
ROOT
ATOM      1  C   UNL     1      48.574   9.847  12.366  0.00  0.00    +0.000 C 
ATOM      2  O   UNL     1      47.698  10.698  12.228  0.00  0.00    +0.000 OA
ATOM      3  N   UNL     1      48.334   8.688  13.062  0.00  0.00    +0.000 N 
ATOM      4  H   UNL     1      49.068   7.996  13.191  0.00  0.00    +0.000 HD
ENDROOT
BRANCH   1  12
ATOM      5  N   UNL     1      54.179   9.636   9.539  0.00  0.00    +0.000 N 
ATOM      6  C   UNL     1      53.081   9.024  10.077  0.00  0.00    +0.000 A 
ATOM      7  N   UNL     1      53.030   7.718   9.997  0.00  0.00    +0.000 NA
ATOM      8  N   UNL     1      51.932   7.066  10.512  0.00  0.00    +0.000 N 
ATOM      9  C   UNL     1      50.829   7.644  11.113  0.00  0.00    +0.000 A 
ATOM     10  O   UNL     1      49.899   6.957  11.525  0.00  0.00    +0.000 OA
ATOM     11  C   UNL     1      50.870   9.093  11.227  0.00  0.00    +0.000 A 
ATOM     12  C   UNL     1      49.915  10.035  11.775  0.00  0.00    +0.000 A 
ATOM     13  C   UNL     1      50.432  11.325  11.677  0.00  0.00    +0.000 A 
ATOM     14  S   UNL     1      51.968  11.403  10.939  0.00  0.00    +0.000 S 
ATOM     15  C   UNL     1      51.988   9.727  10.724  0.00  0.00    +0.000 A 
ATOM     16  H   UNL     1      54.963   9.010   9.396  0.00  0.00    +0.000 HD
ATOM     17  H   UNL     1      54.420  10.549   9.904  0.00  0.00    +0.000 HD
ATOM     18  H   UNL     1      51.924   6.056  10.412  0.00  0.00    +0.000 HD
ENDBRANCH   1  12
BRANCH   3  19
ATOM     19  C   UNL     1      47.043   8.413  13.638  0.00  0.00    +0.000 C 
BRANCH  19  20
ATOM     20  C   UNL     1      46.235   7.456  12.798  0.00  0.00    +0.000 A 
ATOM     21  C   UNL     1      45.144   7.910  12.047  0.00  0.00    +0.000 A 
ATOM     22  C   UNL     1      44.401   7.024  11.258  0.00  0.00    +0.000 A 
ATOM     23  C   UNL     1      44.737   5.663  11.201  0.00  0.00    +0.000 A 
ATOM     24  C   UNL     1      45.818   5.208  11.966  0.00  0.00    +0.000 A 
ATOM     25  C   UNL     1      46.552   6.091  12.764  0.00  0.00    +0.000 A 
BRANCH  23  26
ATOM     26  C   UNL     1      43.955   4.697  10.338  0.00  0.00    +0.000 C 
BRANCH  26  27
ATOM     27  C   UNL     1      44.772   3.897   9.344  0.00  0.00    +0.000 A 
ATOM     28  C   UNL     1      44.889   2.513   9.463  0.00  0.00    +0.000 A 
ATOM     29  C   UNL     1      45.749   1.828   8.607  0.00  0.00    +0.000 A 
ATOM     30  C   UNL     1      46.465   2.536   7.652  0.00  0.00    +0.000 A 
ATOM     31  C   UNL     1      46.279   3.905   7.582  0.00  0.00    +0.000 A 
ATOM     32  N   UNL     1      45.459   4.598   8.404  0.00  0.00    +0.000 NA
ENDBRANCH  26  27
ENDBRANCH  23  26
ENDBRANCH  19  20
ENDBRANCH   3  19
TORSDOF 5
ENDMDL
MODEL 9
REMARK VINA RESULT:    -6.865      5.114      6.886
REMARK INTER + INTRA:          -9.603
REMARK INTER:                  -8.615
REMARK INTRA:                  -0.988
REMARK UNBOUND:                -0.731
REMARK  Name = 
REMARK  5 active torsions:
REMARK  status: ('A' for Active; 'I' for Inactive)
REMARK    1  A    between atoms: C_8  and  C_9
REMARK    2  A    between atoms: N_11  and  C_12
REMARK    3  A    between atoms: C_12  and  C_13
REMARK    4  A    between atoms: C_16  and  C_17
REMARK    5  A    between atoms: C_17  and  C_18
REMARK                            x       y       z     vdW  Elec       q    Type
REMARK                         _______ _______ _______ _____ _____    ______ ____
ROOT
ATOM      1  C   UNL     1      45.788   8.182  12.346  0.00  0.00    +0.000 C 
ATOM      2  O   UNL     1      45.226   9.161  12.832  0.00  0.00    +0.000 OA
ATOM      3  N   UNL     1      47.126   8.213  12.037  0.00  0.00    +0.000 N 
ATOM      4  H   UNL     1      47.582   7.407  11.617  0.00  0.00    +0.000 HD
ENDROOT
BRANCH   1  12
ATOM      5  N   UNL     1      43.332   2.417  11.930  0.00  0.00    +0.000 N 
ATOM      6  C   UNL     1      44.346   3.269  12.268  0.00  0.00    +0.000 A 
ATOM      7  N   UNL     1      45.398   2.742  12.843  0.00  0.00    +0.000 NA
ATOM      8  N   UNL     1      46.434   3.569  13.214  0.00  0.00    +0.000 N 
ATOM      9  C   UNL     1      46.496   4.942  13.060  0.00  0.00    +0.000 A 
ATOM     10  O   UNL     1      47.472   5.579  13.444  0.00  0.00    +0.000 OA
ATOM     11  C   UNL     1      45.345   5.548  12.410  0.00  0.00    +0.000 A 
ATOM     12  C   UNL     1      45.047   6.930  12.091  0.00  0.00    +0.000 A 
ATOM     13  C   UNL     1      43.820   6.997  11.435  0.00  0.00    +0.000 A 
ATOM     14  S   UNL     1      43.053   5.485  11.242  0.00  0.00    +0.000 S 
ATOM     15  C   UNL     1      44.326   4.699  12.027  0.00  0.00    +0.000 A 
ATOM     16  H   UNL     1      43.614   1.444  11.895  0.00  0.00    +0.000 HD
ATOM     17  H   UNL     1      42.714   2.712  11.185  0.00  0.00    +0.000 HD
ATOM     18  H   UNL     1      47.221   3.123  13.673  0.00  0.00    +0.000 HD
ENDBRANCH   1  12
BRANCH   3  19
ATOM     19  C   UNL     1      47.927   9.383  12.289  0.00  0.00    +0.000 C 
BRANCH  19  20
ATOM     20  C   UNL     1      49.306   9.273  11.689  0.00  0.00    +0.000 A 
ATOM     21  C   UNL     1      49.923   8.025  11.540  0.00  0.00    +0.000 A 
ATOM     22  C   UNL     1      51.198   7.921  10.972  0.00  0.00    +0.000 A 
ATOM     23  C   UNL     1      51.882   9.066  10.535  0.00  0.00    +0.000 A 
ATOM     24  C   UNL     1      51.270  10.315  10.700  0.00  0.00    +0.000 A 
ATOM     25  C   UNL     1      50.002  10.419  11.280  0.00  0.00    +0.000 A 
BRANCH  23  26
ATOM     26  C   UNL     1      53.252   8.968   9.902  0.00  0.00    +0.000 C 
BRANCH  26  27
ATOM     27  C   UNL     1      53.512   7.716   9.090  0.00  0.00    +0.000 A 
ATOM     28  C   UNL     1      52.910   7.531   7.846  0.00  0.00    +0.000 A 
ATOM     29  C   UNL     1      53.071   6.313   7.188  0.00  0.00    +0.000 A 
ATOM     30  C   UNL     1      53.832   5.315   7.780  0.00  0.00    +0.000 A 
ATOM     31  C   UNL     1      54.415   5.582   9.006  0.00  0.00    +0.000 A 
ATOM     32  N   UNL     1      54.269   6.749   9.672  0.00  0.00    +0.000 NA
ENDBRANCH  26  27
ENDBRANCH  23  26
ENDBRANCH  19  20
ENDBRANCH   3  19
TORSDOF 5
ENDMDL
