MODEL 1
REMARK VINA RESULT:    -7.344      0.000      0.000
REMARK INTER + INTRA:          -9.852
REMARK INTER:                  -9.276
REMARK INTRA:                  -0.576
REMARK UNBOUND:                -0.576
REMARK  Name = 
REMARK  5 active torsions:
REMARK  status: ('A' for Active; 'I' for Inactive)
REMARK    1  A    between atoms: N_1  and  C_2
REMARK    2  A    between atoms: C_2  and  C_3
REMARK    3  A    between atoms: C_6  and  O_7
REMARK    4  A    between atoms: O_7  and  C_8
REMARK    5  A    between atoms: C_8  and  C_9
REMARK                            x       y       z     vdW  Elec       q    Type
REMARK                         _______ _______ _______ _____ _____    ______ ____
ROOT
ATOM      1  C   UNL     1      46.495   2.678   7.079  0.00  0.00    +0.000 A 
ATOM      2  C   UNL     1      46.000   3.954   7.387  0.00  0.00    +0.000 A 
ATOM      3  C   UNL     1      45.166   4.154   8.486  0.00  0.00    +0.000 A 
ATOM      4  C   UNL     1      44.798   3.078   9.293  0.00  0.00    +0.000 A 
ATOM      5  C   UNL     1      45.324   1.813   9.030  0.00  0.00    +0.000 A 
ATOM      6  C   UNL     1      46.164   1.612   7.930  0.00  0.00    +0.000 A 
ATOM      7 CL   UNL     1      46.776   0.016   7.671  0.00  0.00    +0.000 Cl
ENDROOT
BRANCH   1   8
ATOM      8  C   UNL     1      47.401   2.531   5.884  0.00  0.00    +0.000 C 
BRANCH   8   9
ATOM      9  N   UNL     1      48.800   2.531   6.292  0.00  0.00    +0.000 NA
ATOM     10  H   UNL     1      48.972   3.341   6.886  0.00  0.00    +0.000 HD
ATOM     11  H   UNL     1      49.380   2.662   5.465  0.00  0.00    +0.000 HD
ENDBRANCH   8   9
ENDBRANCH   1   8
BRANCH   4  12
ATOM     12  O   UNL     1      43.939   3.155  10.357  0.00  0.00    +0.000 OA
BRANCH  12  13
ATOM     13  C   UNL     1      43.947   4.409  11.043  0.00  0.00    +0.000 C 
BRANCH  13  14
ATOM     14  C   UNL     1      45.165   4.578  11.917  0.00  0.00    +0.000 A 
ATOM     15  C   UNL     1      45.595   3.606  12.822  0.00  0.00    +0.000 A 
ATOM     16  C   UNL     1      46.714   3.872  13.598  0.00  0.00    +0.000 A 
ATOM     17  N   UNL     1      47.425   5.018  13.530  0.00  0.00    +0.000 NA
ATOM     18  C   UNL     1      47.000   5.941  12.644  0.00  0.00    +0.000 A 
ATOM     19  C   UNL     1      45.896   5.769  11.826  0.00  0.00    +0.000 A 
ENDBRANCH  13  14
ENDBRANCH  12  13
ENDBRANCH   4  12
TORSDOF 5
ENDMDL
MODEL 2
REMARK VINA RESULT:    -6.933      2.431      6.085
REMARK INTER + INTRA:          -9.333
REMARK INTER:                  -8.794
REMARK INTRA:                  -0.540
REMARK UNBOUND:                -0.576
REMARK  Name = 
REMARK  5 active torsions:
REMARK  status: ('A' for Active; 'I' for Inactive)
REMARK    1  A    between atoms: N_1  and  C_2
REMARK    2  A    between atoms: C_2  and  C_3
REMARK    3  A    between atoms: C_6  and  O_7
REMARK    4  A    between atoms: O_7  and  C_8
REMARK    5  A    between atoms: C_8  and  C_9
REMARK                            x       y       z     vdW  Elec       q    Type
REMARK                         _______ _______ _______ _____ _____    ______ ____
ROOT
ATOM      1  C   UNL     1      46.097   4.759  12.955  0.00  0.00    +0.000 A 
ATOM      2  C   UNL     1      45.456   3.615  12.453  0.00  0.00    +0.000 A 
ATOM      3  C   UNL     1      45.042   3.551  11.124  0.00  0.00    +0.000 A 
ATOM      4  C   UNL     1      45.246   4.636  10.272  0.00  0.00    +0.000 A 
ATOM      5  C   UNL     1      45.928   5.758  10.742  0.00  0.00    +0.000 A 
ATOM      6  C   UNL     1      46.349   5.822  12.074  0.00  0.00    +0.000 A 
ATOM      7 CL   UNL     1      47.188   7.246  12.582  0.00  0.00    +0.000 Cl
ENDROOT
BRANCH   1   8
ATOM      8  C   UNL     1      46.532   4.760  14.398  0.00  0.00    +0.000 C 
BRANCH   8   9
ATOM      9  N   UNL     1      47.279   3.550  14.715  0.00  0.00    +0.000 NA
ATOM     10  H   UNL     1      48.250   3.676  14.432  0.00  0.00    +0.000 HD
ATOM     11  H   UNL     1      46.919   2.786  14.144  0.00  0.00    +0.000 HD
ENDBRANCH   8   9
ENDBRANCH   1   8
BRANCH   4  12
ATOM     12  O   UNL     1      44.825   4.699   8.970  0.00  0.00    +0.000 OA
BRANCH  12  13
ATOM     13  C   UNL     1      44.529   3.433   8.374  0.00  0.00    +0.000 C 
BRANCH  13  14
ATOM     14  C   UNL     1      45.745   2.789   7.759  0.00  0.00    +0.000 A 
ATOM     15  C   UNL     1      46.542   3.421   6.801  0.00  0.00    +0.000 A 
ATOM     16  C   UNL     1      47.624   2.730   6.279  0.00  0.00    +0.000 A 
ATOM     17  N   UNL     1      47.966   1.476   6.642  0.00  0.00    +0.000 NA
ATOM     18  C   UNL     1      47.191   0.884   7.573  0.00  0.00    +0.000 A 
ATOM     19  C   UNL     1      46.091   1.491   8.155  0.00  0.00    +0.000 A 
ENDBRANCH  13  14
ENDBRANCH  12  13
ENDBRANCH   4  12
TORSDOF 5
ENDMDL
MODEL 3
REMARK VINA RESULT:    -6.870      1.697      2.338
REMARK INTER + INTRA:          -9.254
REMARK INTER:                  -8.646
REMARK INTRA:                  -0.609
REMARK UNBOUND:                -0.576
REMARK  Name = 
REMARK  5 active torsions:
REMARK  status: ('A' for Active; 'I' for Inactive)
REMARK    1  A    between atoms: N_1  and  C_2
REMARK    2  A    between atoms: C_2  and  C_3
REMARK    3  A    between atoms: C_6  and  O_7
REMARK    4  A    between atoms: O_7  and  C_8
REMARK    5  A    between atoms: C_8  and  C_9
REMARK                            x       y       z     vdW  Elec       q    Type
REMARK                         _______ _______ _______ _____ _____    ______ ____
ROOT
ATOM      1  C   UNL     1      46.204   1.892   7.861  0.00  0.00    +0.000 A 
ATOM      2  C   UNL     1      45.374   1.501   8.923  0.00  0.00    +0.000 A 
ATOM      3  C   UNL     1      44.488   2.404   9.511  0.00  0.00    +0.000 A 
ATOM      4  C   UNL     1      44.425   3.721   9.058  0.00  0.00    +0.000 A 
ATOM      5  C   UNL     1      45.206   4.110   7.969  0.00  0.00    +0.000 A 
ATOM      6  C   UNL     1      46.092   3.204   7.376  0.00  0.00    +0.000 A 
ATOM      7 CL   UNL     1      47.025   3.761   6.031  0.00  0.00    +0.000 Cl
ENDROOT
BRANCH   1   8
ATOM      8  C   UNL     1      47.130   0.866   7.262  0.00  0.00    +0.000 C 
BRANCH   8   9
ATOM      9  N   UNL     1      46.800  -0.471   7.740  0.00  0.00    +0.000 NA
ATOM     10  H   UNL     1      47.630  -1.059   7.679  0.00  0.00    +0.000 HD
ATOM     11  H   UNL     1      46.117  -0.884   7.106  0.00  0.00    +0.000 HD
ENDBRANCH   8   9
ENDBRANCH   1   8
BRANCH   4  12
ATOM     12  O   UNL     1      43.637   4.699   9.603  0.00  0.00    +0.000 OA
BRANCH  12  13
ATOM     13  C   UNL     1      43.540   4.666  11.029  0.00  0.00    +0.000 C 
BRANCH  13  14
ATOM     14  C   UNL     1      44.766   5.231  11.701  0.00  0.00    +0.000 A 
ATOM     15  C   UNL     1      45.401   6.400  11.274  0.00  0.00    +0.000 A 
ATOM     16  C   UNL     1      46.539   6.820  11.946  0.00  0.00    +0.000 A 
ATOM     17  N   UNL     1      47.075   6.170  13.002  0.00  0.00    +0.000 NA
ATOM     18  C   UNL     1      46.444   5.049  13.405  0.00  0.00    +0.000 A 
ATOM     19  C   UNL     1      45.304   4.550  12.800  0.00  0.00    +0.000 A 
ENDBRANCH  13  14
ENDBRANCH  12  13
ENDBRANCH   4  12
TORSDOF 5
ENDMDL
MODEL 4
REMARK VINA RESULT:    -6.718      2.254      5.785
REMARK INTER + INTRA:          -9.061
REMARK INTER:                  -8.493
REMARK INTRA:                  -0.569
REMARK UNBOUND:                -0.576
REMARK  Name = 
REMARK  5 active torsions:
REMARK  status: ('A' for Active; 'I' for Inactive)
REMARK    1  A    between atoms: N_1  and  C_2
REMARK    2  A    between atoms: C_2  and  C_3
REMARK    3  A    between atoms: C_6  and  O_7
REMARK    4  A    between atoms: O_7  and  C_8
REMARK    5  A    between atoms: C_8  and  C_9
REMARK                            x       y       z     vdW  Elec       q    Type
REMARK                         _______ _______ _______ _____ _____    ______ ____
ROOT
ATOM      1  C   UNL     1      46.853   6.073  12.679  0.00  0.00    +0.000 A 
ATOM      2  C   UNL     1      46.494   6.583  11.421  0.00  0.00    +0.000 A 
ATOM      3  C   UNL     1      45.698   5.843  10.548  0.00  0.00    +0.000 A 
ATOM      4  C   UNL     1      45.256   4.570  10.909  0.00  0.00    +0.000 A 
ATOM      5  C   UNL     1      45.561   4.072  12.176  0.00  0.00    +0.000 A 
ATOM      6  C   UNL     1      46.356   4.816  13.054  0.00  0.00    +0.000 A 
ATOM      7 CL   UNL     1      46.689   4.131  14.607  0.00  0.00    +0.000 Cl
ENDROOT
BRANCH   1   8
ATOM      8  C   UNL     1      47.705   6.928  13.580  0.00  0.00    +0.000 C 
BRANCH   8   9
ATOM      9  N   UNL     1      49.105   6.531  13.498  0.00  0.00    +0.000 NA
ATOM     10  H   UNL     1      49.157   5.533  13.301  0.00  0.00    +0.000 HD
ATOM     11  H   UNL     1      49.534   6.658  14.415  0.00  0.00    +0.000 HD
ENDBRANCH   8   9
ENDBRANCH   1   8
BRANCH   4  12
ATOM     12  O   UNL     1      44.523   3.739  10.104  0.00  0.00    +0.000 OA
BRANCH  12  13
ATOM     13  C   UNL     1      44.676   3.974   8.703  0.00  0.00    +0.000 C 
BRANCH  13  14
ATOM     14  C   UNL     1      45.642   3.011   8.061  0.00  0.00    +0.000 A 
ATOM     15  C   UNL     1      45.767   1.677   8.457  0.00  0.00    +0.000 A 
ATOM     16  C   UNL     1      46.706   0.881   7.818  0.00  0.00    +0.000 A 
ATOM     17  N   UNL     1      47.512   1.313   6.824  0.00  0.00    +0.000 NA
ATOM     18  C   UNL     1      47.370   2.601   6.449  0.00  0.00    +0.000 A 
ATOM     19  C   UNL     1      46.463   3.473   7.024  0.00  0.00    +0.000 A 
ENDBRANCH  13  14
ENDBRANCH  12  13
ENDBRANCH   4  12
TORSDOF 5
ENDMDL
MODEL 5
REMARK VINA RESULT:    -6.143      2.637      6.027
REMARK INTER + INTRA:          -8.336
REMARK INTER:                  -7.686
REMARK INTRA:                  -0.650
REMARK UNBOUND:                -0.576
REMARK  Name = 
REMARK  5 active torsions:
REMARK  status: ('A' for Active; 'I' for Inactive)
REMARK    1  A    between atoms: N_1  and  C_2
REMARK    2  A    between atoms: C_2  and  C_3
REMARK    3  A    between atoms: C_6  and  O_7
REMARK    4  A    between atoms: O_7  and  C_8
REMARK    5  A    between atoms: C_8  and  C_9
REMARK                            x       y       z     vdW  Elec       q    Type
REMARK                         _______ _______ _______ _____ _____    ______ ____
ROOT
ATOM      1  C   UNL     1      46.987   5.758  13.609  0.00  0.00    +0.000 A 
ATOM      2  C   UNL     1      46.984   4.355  13.578  0.00  0.00    +0.000 A 
ATOM      3  C   UNL     1      46.003   3.655  12.876  0.00  0.00    +0.000 A 
ATOM      4  C   UNL     1      44.996   4.345  12.202  0.00  0.00    +0.000 A 
ATOM      5  C   UNL     1      45.016   5.740  12.180  0.00  0.00    +0.000 A 
ATOM      6  C   UNL     1      46.002   6.442  12.881  0.00  0.00    +0.000 A 
ATOM      7 CL   UNL     1      45.961   8.169  12.805  0.00  0.00    +0.000 Cl
ENDROOT
BRANCH   1   8
ATOM      8  C   UNL     1      48.081   6.454  14.376  0.00  0.00    +0.000 C 
BRANCH   8   9
ATOM      9  N   UNL     1      49.272   6.613  13.550  0.00  0.00    +0.000 NA
ATOM     10  H   UNL     1      49.220   7.507  13.062  0.00  0.00    +0.000 HD
ATOM     11  H   UNL     1      49.262   5.898  12.824  0.00  0.00    +0.000 HD
ENDBRANCH   8   9
ENDBRANCH   1   8
BRANCH   4  12
ATOM     12  O   UNL     1      43.955   3.755  11.535  0.00  0.00    +0.000 OA
BRANCH  12  13
ATOM     13  C   UNL     1      43.792   4.183  10.181  0.00  0.00    +0.000 C 
BRANCH  13  14
ATOM     14  C   UNL     1      44.799   3.551   9.254  0.00  0.00    +0.000 A 
ATOM     15  C   UNL     1      45.593   4.288   8.372  0.00  0.00    +0.000 A 
ATOM     16  C   UNL     1      46.471   3.607   7.542  0.00  0.00    +0.000 A 
ATOM     17  N   UNL     1      46.615   2.265   7.534  0.00  0.00    +0.000 NA
ATOM     18  C   UNL     1      45.847   1.570   8.398  0.00  0.00    +0.000 A 
ATOM     19  C   UNL     1      44.942   2.158   9.266  0.00  0.00    +0.000 A 
ENDBRANCH  13  14
ENDBRANCH  12  13
ENDBRANCH   4  12
TORSDOF 5
ENDMDL
MODEL 6
REMARK VINA RESULT:    -5.824      2.496      5.913
REMARK INTER + INTRA:          -7.932
REMARK INTER:                  -7.426
REMARK INTRA:                  -0.506
REMARK UNBOUND:                -0.576
REMARK  Name = 
REMARK  5 active torsions:
REMARK  status: ('A' for Active; 'I' for Inactive)
REMARK    1  A    between atoms: N_1  and  C_2
REMARK    2  A    between atoms: C_2  and  C_3
REMARK    3  A    between atoms: C_6  and  O_7
REMARK    4  A    between atoms: O_7  and  C_8
REMARK    5  A    between atoms: C_8  and  C_9
REMARK                            x       y       z     vdW  Elec       q    Type
REMARK                         _______ _______ _______ _____ _____    ______ ____
ROOT
ATOM      1  C   UNL     1      45.361   6.015  12.079  0.00  0.00    +0.000 A 
ATOM      2  C   UNL     1      46.211   6.205  10.979  0.00  0.00    +0.000 A 
ATOM      3  C   UNL     1      45.914   5.643   9.738  0.00  0.00    +0.000 A 
ATOM      4  C   UNL     1      44.767   4.866   9.576  0.00  0.00    +0.000 A 
ATOM      5  C   UNL     1      43.886   4.712  10.646  0.00  0.00    +0.000 A 
ATOM      6  C   UNL     1      44.180   5.280  11.890  0.00  0.00    +0.000 A 
ATOM      7 CL   UNL     1      43.039   5.045  13.167  0.00  0.00    +0.000 Cl
ENDROOT
BRANCH   1   8
ATOM      8  C   UNL     1      45.732   6.659  13.390  0.00  0.00    +0.000 C 
BRANCH   8   9
ATOM      9  N   UNL     1      47.161   6.942  13.442  0.00  0.00    +0.000 NA
ATOM     10  H   UNL     1      47.409   7.224  14.389  0.00  0.00    +0.000 HD
ATOM     11  H   UNL     1      47.355   7.749  12.850  0.00  0.00    +0.000 HD
ENDBRANCH   8   9
ENDBRANCH   1   8
BRANCH   4  12
ATOM     12  O   UNL     1      44.416   4.222   8.419  0.00  0.00    +0.000 OA
BRANCH  12  13
ATOM     13  C   UNL     1      44.515   2.797   8.474  0.00  0.00    +0.000 C 
BRANCH  13  14
ATOM     14  C   UNL     1      45.745   2.279   7.773  0.00  0.00    +0.000 A 
ATOM     15  C   UNL     1      46.304   1.026   8.038  0.00  0.00    +0.000 A 
ATOM     16  C   UNL     1      47.454   0.656   7.357  0.00  0.00    +0.000 A 
ATOM     17  N   UNL     1      48.071   1.431   6.440  0.00  0.00    +0.000 NA
ATOM     18  C   UNL     1      47.512   2.633   6.191  0.00  0.00    +0.000 A 
ATOM     19  C   UNL     1      46.367   3.092   6.818  0.00  0.00    +0.000 A 
ENDBRANCH  13  14
ENDBRANCH  12  13
ENDBRANCH   4  12
TORSDOF 5
ENDMDL
MODEL 7
REMARK VINA RESULT:    -5.546      2.990      6.349
REMARK INTER + INTRA:          -7.582
REMARK INTER:                  -7.113
REMARK INTRA:                  -0.469
REMARK UNBOUND:                -0.576
REMARK  Name = 
REMARK  5 active torsions:
REMARK  status: ('A' for Active; 'I' for Inactive)
REMARK    1  A    between atoms: N_1  and  C_2
REMARK    2  A    between atoms: C_2  and  C_3
REMARK    3  A    between atoms: C_6  and  O_7
REMARK    4  A    between atoms: O_7  and  C_8
REMARK    5  A    between atoms: C_8  and  C_9
REMARK                            x       y       z     vdW  Elec       q    Type
REMARK                         _______ _______ _______ _____ _____    ______ ____
ROOT
ATOM      1  C   UNL     1      45.429   7.470  12.293  0.00  0.00    +0.000 A 
ATOM      2  C   UNL     1      46.296   6.389  12.519  0.00  0.00    +0.000 A 
ATOM      3  C   UNL     1      46.091   5.162  11.889  0.00  0.00    +0.000 A 
ATOM      4  C   UNL     1      45.006   4.986  11.032  0.00  0.00    +0.000 A 
ATOM      5  C   UNL     1      44.166   6.066  10.757  0.00  0.00    +0.000 A 
ATOM      6  C   UNL     1      44.373   7.299  11.384  0.00  0.00    +0.000 A 
ATOM      7 CL   UNL     1      43.291   8.589  10.991  0.00  0.00    +0.000 Cl
ENDROOT
BRANCH   1   8
ATOM      8  C   UNL     1      45.712   8.773  12.994  0.00  0.00    +0.000 C 
BRANCH   8   9
ATOM      9  N   UNL     1      46.579   9.619  12.184  0.00  0.00    +0.000 NA
ATOM     10  H   UNL     1      47.305   9.043  11.761  0.00  0.00    +0.000 HD
ATOM     11  H   UNL     1      47.064  10.272  12.800  0.00  0.00    +0.000 HD
ENDBRANCH   8   9
ENDBRANCH   1   8
BRANCH   4  12
ATOM     12  O   UNL     1      44.681   3.808  10.412  0.00  0.00    +0.000 OA
BRANCH  12  13
ATOM     13  C   UNL     1      44.557   3.893   8.991  0.00  0.00    +0.000 C 
BRANCH  13  14
ATOM     14  C   UNL     1      45.602   3.077   8.273  0.00  0.00    +0.000 A 
ATOM     15  C   UNL     1      46.516   3.628   7.372  0.00  0.00    +0.000 A 
ATOM     16  C   UNL     1      47.420   2.784   6.745  0.00  0.00    +0.000 A 
ATOM     17  N   UNL     1      47.480   1.452   6.954  0.00  0.00    +0.000 NA
ATOM     18  C   UNL     1      46.595   0.938   7.833  0.00  0.00    +0.000 A 
ATOM     19  C   UNL     1      45.655   1.697   8.510  0.00  0.00    +0.000 A 
ENDBRANCH  13  14
ENDBRANCH  12  13
ENDBRANCH   4  12
TORSDOF 5
ENDMDL
MODEL 8
REMARK VINA RESULT:    -5.306      4.788      5.951
REMARK INTER + INTRA:          -7.278
REMARK INTER:                  -6.829
REMARK INTRA:                  -0.449
REMARK UNBOUND:                -0.576
REMARK  Name = 
REMARK  5 active torsions:
REMARK  status: ('A' for Active; 'I' for Inactive)
REMARK    1  A    between atoms: N_1  and  C_2
REMARK    2  A    between atoms: C_2  and  C_3
REMARK    3  A    between atoms: C_6  and  O_7
REMARK    4  A    between atoms: O_7  and  C_8
REMARK    5  A    between atoms: C_8  and  C_9
REMARK                            x       y       z     vdW  Elec       q    Type
REMARK                         _______ _______ _______ _____ _____    ______ ____
ROOT
ATOM      1  C   UNL     1      44.196   5.656  12.024  0.00  0.00    +0.000 A 
ATOM      2  C   UNL     1      45.040   6.771  12.144  0.00  0.00    +0.000 A 
ATOM      3  C   UNL     1      46.293   6.661  12.745  0.00  0.00    +0.000 A 
ATOM      4  C   UNL     1      46.722   5.435  13.252  0.00  0.00    +0.000 A 
ATOM      5  C   UNL     1      45.917   4.307  13.094  0.00  0.00    +0.000 A 
ATOM      6  C   UNL     1      44.661   4.416  12.487  0.00  0.00    +0.000 A 
ATOM      7 CL   UNL     1      43.722   2.973  12.327  0.00  0.00    +0.000 Cl
ENDROOT
BRANCH   1   8
ATOM      8  C   UNL     1      42.859   5.839  11.354  0.00  0.00    +0.000 C 
BRANCH   8   9
ATOM      9  N   UNL     1      42.565   7.253  11.163  0.00  0.00    +0.000 NA
ATOM     10  H   UNL     1      41.779   7.345  10.520  0.00  0.00    +0.000 HD
ATOM     11  H   UNL     1      43.359   7.691  10.697  0.00  0.00    +0.000 HD
ENDBRANCH   8   9
ENDBRANCH   1   8
BRANCH   4  12
ATOM     12  O   UNL     1      47.905   5.233  13.912  0.00  0.00    +0.000 OA
BRANCH  12  13
ATOM     13  C   UNL     1      48.004   5.886  15.180  0.00  0.00    +0.000 C 
BRANCH  13  14
ATOM     14  C   UNL     1      48.147   4.909  16.320  0.00  0.00    +0.000 A 
ATOM     15  C   UNL     1      47.223   3.893  16.575  0.00  0.00    +0.000 A 
ATOM     16  C   UNL     1      47.434   3.064  17.666  0.00  0.00    +0.000 A 
ATOM     17  N   UNL     1      48.489   3.170  18.503  0.00  0.00    +0.000 NA
ATOM     18  C   UNL     1      49.375   4.150  18.235  0.00  0.00    +0.000 A 
ATOM     19  C   UNL     1      49.253   5.028  17.171  0.00  0.00    +0.000 A 
ENDBRANCH  13  14
ENDBRANCH  12  13
ENDBRANCH   4  12
TORSDOF 5
ENDMDL
MODEL 9
REMARK VINA RESULT:    -5.222      3.106      6.419
REMARK INTER + INTRA:          -7.173
REMARK INTER:                  -6.740
REMARK INTRA:                  -0.433
REMARK UNBOUND:                -0.576
REMARK  Name = 
REMARK  5 active torsions:
REMARK  status: ('A' for Active; 'I' for Inactive)
REMARK    1  A    between atoms: N_1  and  C_2
REMARK    2  A    between atoms: C_2  and  C_3
REMARK    3  A    between atoms: C_6  and  O_7
REMARK    4  A    between atoms: O_7  and  C_8
REMARK    5  A    between atoms: C_8  and  C_9
REMARK                            x       y       z     vdW  Elec       q    Type
REMARK                         _______ _______ _______ _____ _____    ______ ____
ROOT
ATOM      1  C   UNL     1      47.716   6.964  13.624  0.00  0.00    +0.000 A 
ATOM      2  C   UNL     1      47.187   5.663  13.609  0.00  0.00    +0.000 A 
ATOM      3  C   UNL     1      46.195   5.303  12.699  0.00  0.00    +0.000 A 
ATOM      4  C   UNL     1      45.699   6.240  11.794  0.00  0.00    +0.000 A 
ATOM      5  C   UNL     1      46.250   7.521  11.762  0.00  0.00    +0.000 A 
ATOM      6  C   UNL     1      47.250   7.883  12.671  0.00  0.00    +0.000 A 
ATOM      7 CL   UNL     1      47.884   9.488  12.568  0.00  0.00    +0.000 Cl
ENDROOT
BRANCH   1   8
ATOM      8  C   UNL     1      48.795   7.286  14.624  0.00  0.00    +0.000 C 
BRANCH   8   9
ATOM      9  N   UNL     1      49.014   6.165  15.530  0.00  0.00    +0.000 NA
ATOM     10  H   UNL     1      49.778   6.394  16.163  0.00  0.00    +0.000 HD
ATOM     11  H   UNL     1      49.332   5.364  14.985  0.00  0.00    +0.000 HD
ENDBRANCH   8   9
ENDBRANCH   1   8
BRANCH   4  12
ATOM     12  O   UNL     1      44.686   6.007  10.902  0.00  0.00    +0.000 OA
BRANCH  12  13
ATOM     13  C   UNL     1      44.212   4.659  10.873  0.00  0.00    +0.000 C 
BRANCH  13  14
ATOM     14  C   UNL     1      44.847   3.850   9.769  0.00  0.00    +0.000 A 
ATOM     15  C   UNL     1      44.849   2.454   9.750  0.00  0.00    +0.000 A 
ATOM     16  C   UNL     1      45.484   1.806   8.701  0.00  0.00    +0.000 A 
ATOM     17  N   UNL     1      46.103   2.443   7.684  0.00  0.00    +0.000 NA
ATOM     18  C   UNL     1      46.084   3.791   7.715  0.00  0.00    +0.000 A 
ATOM     19  C   UNL     1      45.476   4.528   8.717  0.00  0.00    +0.000 A 
ENDBRANCH  13  14
ENDBRANCH  12  13
ENDBRANCH   4  12
TORSDOF 5
ENDMDL
