MODEL 1
REMARK VINA RESULT:    -8.110      0.000      0.000
REMARK INTER + INTRA:         -11.763
REMARK INTER:                 -10.955
REMARK INTRA:                  -0.809
REMARK UNBOUND:                -0.809
REMARK  Name = 
REMARK  9 active torsions:
REMARK  status: ('A' for Active; 'I' for Inactive)
REMARK    1  A    between atoms: C_1  and  C_2
REMARK    2  A    between atoms: C_2  and  N_3
REMARK    3  A    between atoms: C_6  and  C_7
REMARK    4  A    between atoms: C_11  and  C_12
REMARK    5  A    between atoms: C_12  and  C_13
REMARK    6  A    between atoms: C_12  and  C_14
REMARK    7  A    between atoms: C_12  and  C_15
REMARK    8  A    between atoms: C_15  and  N_16
REMARK    9  A    between atoms: C_20  and  C_21
REMARK                            x       y       z     vdW  Elec       q    Type
REMARK                         _______ _______ _______ _____ _____    ______ ____
ROOT
ATOM      1  C   UNL     1      43.675   5.553  11.981  0.00  0.00    +0.000 C 
ATOM      2  C   UNL     1      42.842   4.973  13.143  0.00  0.00    +0.000 C 
ATOM      3  C   UNL     1      43.258   7.018  11.715  0.00  0.00    +0.000 C 
ENDROOT
BRANCH   1   8
ATOM      4  C   UNL     1      47.431   6.600  12.235  0.00  0.00    +0.000 A 
ATOM      5  C   UNL     1      47.857   5.711  13.230  0.00  0.00    +0.000 A 
ATOM      6  C   UNL     1      47.001   4.736  13.744  0.00  0.00    +0.000 A 
ATOM      7  C   UNL     1      45.680   4.656  13.309  0.00  0.00    +0.000 A 
ATOM      8  C   UNL     1      45.183   5.557  12.356  0.00  0.00    +0.000 A 
ATOM      9  C   UNL     1      46.089   6.502  11.825  0.00  0.00    +0.000 A 
BRANCH   4  13
ATOM     10  N   UNL     1      49.417   9.265  14.011  0.00  0.00    +0.000 NA
ATOM     11  C   UNL     1      50.001   7.977  13.600  0.00  0.00    +0.000 C 
ATOM     12  C   UNL     1      49.811   7.663  12.114  0.00  0.00    +0.000 C 
ATOM     13  C   UNL     1      48.328   7.724  11.694  0.00  0.00    +0.000 C 
ATOM     14  C   UNL     1      47.871   9.151  12.030  0.00  0.00    +0.000 C 
ATOM     15  C   UNL     1      48.039   9.453  13.521  0.00  0.00    +0.000 C 
BRANCH  10  17
ATOM     16  C   UNL     1      49.140  10.808  15.982  0.00  0.00    +0.000 C 
ATOM     17  C   UNL     1      49.409   9.393  15.484  0.00  0.00    +0.000 C 
ENDBRANCH  10  17
ENDBRANCH   4  13
ENDBRANCH   1   8
BRANCH   1  18
ATOM     18  C   UNL     1      43.415   4.708  10.701  0.00  0.00    +0.000 C 
BRANCH  18  19
ATOM     19  N   UNL     1      44.164   5.136   9.510  0.00  0.00    +0.000 N 
ATOM     20  C   UNL     1      44.892   4.056   8.952  0.00  0.00    +0.000 A 
ATOM     21  C   UNL     1      45.688   4.298   7.838  0.00  0.00    +0.000 A 
ATOM     22  C   UNL     1      46.418   3.247   7.281  0.00  0.00    +0.000 A 
ATOM     23  C   UNL     1      46.338   1.970   7.845  0.00  0.00    +0.000 A 
ATOM     24  C   UNL     1      45.509   1.819   8.942  0.00  0.00    +0.000 A 
ATOM     25  N   UNL     1      44.791   2.826   9.492  0.00  0.00    +0.000 NA
ATOM     26  H   UNL     1      44.833   5.872   9.721  0.00  0.00    +0.000 HD
BRANCH  23  27
ATOM     27  C   UNL     1      47.127   0.862   7.264  0.00  0.00    +0.000 C 
ATOM     28  N   UNL     1      46.869  -0.419   7.668  0.00  0.00    +0.000 N 
ATOM     29  O   UNL     1      48.006   1.079   6.436  0.00  0.00    +0.000 OA
ATOM     30  H   UNL     1      46.177  -0.711   8.337  0.00  0.00    +0.000 HD
ATOM     31  H   UNL     1      47.438  -1.143   7.240  0.00  0.00    +0.000 HD
ENDBRANCH  23  27
ENDBRANCH  18  19
ENDBRANCH   1  18
TORSDOF 6
ENDMDL
MODEL 2
REMARK VINA RESULT:    -8.034      1.617      2.926
REMARK INTER + INTRA:         -11.661
REMARK INTER:                 -10.712
REMARK INTRA:                  -0.949
REMARK UNBOUND:                -0.809
REMARK  Name = 
REMARK  9 active torsions:
REMARK  status: ('A' for Active; 'I' for Inactive)
REMARK    1  A    between atoms: C_1  and  C_2
REMARK    2  A    between atoms: C_2  and  N_3
REMARK    3  A    between atoms: C_6  and  C_7
REMARK    4  A    between atoms: C_11  and  C_12
REMARK    5  A    between atoms: C_12  and  C_13
REMARK    6  A    between atoms: C_12  and  C_14
REMARK    7  A    between atoms: C_12  and  C_15
REMARK    8  A    between atoms: C_15  and  N_16
REMARK    9  A    between atoms: C_20  and  C_21
REMARK                            x       y       z     vdW  Elec       q    Type
REMARK                         _______ _______ _______ _____ _____    ______ ____
ROOT
ATOM      1  C   UNL     1      44.235   5.190  12.203  0.00  0.00    +0.000 C 
ATOM      2  C   UNL     1      45.377   4.298  12.731  0.00  0.00    +0.000 C 
ATOM      3  C   UNL     1      42.997   5.055  13.120  0.00  0.00    +0.000 C 
ENDROOT
BRANCH   1   8
ATOM      4  C   UNL     1      46.185   8.474  13.025  0.00  0.00    +0.000 A 
ATOM      5  C   UNL     1      45.622   9.329  12.069  0.00  0.00    +0.000 A 
ATOM      6  C   UNL     1      44.579   8.904  11.243  0.00  0.00    +0.000 A 
ATOM      7  C   UNL     1      44.105   7.596  11.320  0.00  0.00    +0.000 A 
ATOM      8  C   UNL     1      44.670   6.681  12.220  0.00  0.00    +0.000 A 
ATOM      9  C   UNL     1      45.693   7.157  13.071  0.00  0.00    +0.000 A 
BRANCH   4  13
ATOM     10  N   UNL     1      49.902   8.206  12.466  0.00  0.00    +0.000 NA
ATOM     11  C   UNL     1      49.132   9.417  12.137  0.00  0.00    +0.000 C 
ATOM     12  C   UNL     1      48.311   9.960  13.308  0.00  0.00    +0.000 C 
ATOM     13  C   UNL     1      47.374   8.890  13.905  0.00  0.00    +0.000 C 
ATOM     14  C   UNL     1      48.298   7.746  14.348  0.00  0.00    +0.000 C 
ATOM     15  C   UNL     1      49.099   7.189  13.169  0.00  0.00    +0.000 C 
BRANCH  10  17
ATOM     16  C   UNL     1      51.778   8.217  10.786  0.00  0.00    +0.000 C 
ATOM     17  C   UNL     1      50.465   7.593  11.244  0.00  0.00    +0.000 C 
ENDBRANCH  10  17
ENDBRANCH   4  13
ENDBRANCH   1   8
BRANCH   1  18
ATOM     18  C   UNL     1      43.856   4.729  10.765  0.00  0.00    +0.000 C 
BRANCH  18  19
ATOM     19  N   UNL     1      44.023   3.290  10.509  0.00  0.00    +0.000 N 
ATOM     20  C   UNL     1      44.911   3.066   9.428  0.00  0.00    +0.000 A 
ATOM     21  C   UNL     1      45.151   1.757   9.027  0.00  0.00    +0.000 A 
ATOM     22  C   UNL     1      46.016   1.519   7.958  0.00  0.00    +0.000 A 
ATOM     23  C   UNL     1      46.630   2.594   7.309  0.00  0.00    +0.000 A 
ATOM     24  C   UNL     1      46.345   3.861   7.785  0.00  0.00    +0.000 A 
ATOM     25  N   UNL     1      45.512   4.110   8.823  0.00  0.00    +0.000 NA
ATOM     26  H   UNL     1      43.143   2.838  10.274  0.00  0.00    +0.000 HD
BRANCH  23  27
ATOM     27  C   UNL     1      47.532   2.340   6.164  0.00  0.00    +0.000 C 
ATOM     28  N   UNL     1      47.519   3.205   5.105  0.00  0.00    +0.000 N 
ATOM     29  O   UNL     1      48.281   1.369   6.154  0.00  0.00    +0.000 OA
ATOM     30  H   UNL     1      46.948   4.028   5.007  0.00  0.00    +0.000 HD
ATOM     31  H   UNL     1      48.156   2.987   4.345  0.00  0.00    +0.000 HD
ENDBRANCH  23  27
ENDBRANCH  18  19
ENDBRANCH   1  18
TORSDOF 6
ENDMDL
MODEL 3
REMARK VINA RESULT:    -7.888      1.418      2.204
REMARK INTER + INTRA:         -11.463
REMARK INTER:                 -10.477
REMARK INTRA:                  -0.986
REMARK UNBOUND:                -0.809
REMARK  Name = 
REMARK  9 active torsions:
REMARK  status: ('A' for Active; 'I' for Inactive)
REMARK    1  A    between atoms: C_1  and  C_2
REMARK    2  A    between atoms: C_2  and  N_3
REMARK    3  A    between atoms: C_6  and  C_7
REMARK    4  A    between atoms: C_11  and  C_12
REMARK    5  A    between atoms: C_12  and  C_13
REMARK    6  A    between atoms: C_12  and  C_14
REMARK    7  A    between atoms: C_12  and  C_15
REMARK    8  A    between atoms: C_15  and  N_16
REMARK    9  A    between atoms: C_20  and  C_21
REMARK                            x       y       z     vdW  Elec       q    Type
REMARK                         _______ _______ _______ _____ _____    ______ ____
ROOT
ATOM      1  C   UNL     1      44.172   4.898  12.202  0.00  0.00    +0.000 C 
ATOM      2  C   UNL     1      45.174   3.859  12.747  0.00  0.00    +0.000 C 
ATOM      3  C   UNL     1      42.972   5.028  13.169  0.00  0.00    +0.000 C 
ENDROOT
BRANCH   1   8
ATOM      4  C   UNL     1      46.886   7.709  12.168  0.00  0.00    +0.000 A 
ATOM      5  C   UNL     1      46.115   8.775  11.688  0.00  0.00    +0.000 A 
ATOM      6  C   UNL     1      44.744   8.636  11.469  0.00  0.00    +0.000 A 
ATOM      7  C   UNL     1      44.116   7.410  11.679  0.00  0.00    +0.000 A 
ATOM      8  C   UNL     1      44.849   6.293  12.106  0.00  0.00    +0.000 A 
ATOM      9  C   UNL     1      46.226   6.481  12.360  0.00  0.00    +0.000 A 
BRANCH   4  13
ATOM     10  N   UNL     1      48.948   8.735  15.150  0.00  0.00    +0.000 NA
ATOM     11  C   UNL     1      48.619   7.330  14.854  0.00  0.00    +0.000 C 
ATOM     12  C   UNL     1      49.012   6.892  13.441  0.00  0.00    +0.000 C 
ATOM     13  C   UNL     1      48.407   7.811  12.360  0.00  0.00    +0.000 C 
ATOM     14  C   UNL     1      48.938   9.216  12.682  0.00  0.00    +0.000 C 
ATOM     15  C   UNL     1      48.522   9.661  14.086  0.00  0.00    +0.000 C 
BRANCH  10  17
ATOM     16  C   UNL     1      48.692  10.582  16.843  0.00  0.00    +0.000 C 
ATOM     17  C   UNL     1      48.325   9.164  16.420  0.00  0.00    +0.000 C 
ENDBRANCH  10  17
ENDBRANCH   4  13
ENDBRANCH   1   8
BRANCH   1  18
ATOM     18  C   UNL     1      43.658   4.423  10.812  0.00  0.00    +0.000 C 
BRANCH  18  19
ATOM     19  N   UNL     1      43.963   3.023  10.480  0.00  0.00    +0.000 N 
ATOM     20  C   UNL     1      44.862   2.944   9.388  0.00  0.00    +0.000 A 
ATOM     21  C   UNL     1      45.226   1.687   8.919  0.00  0.00    +0.000 A 
ATOM     22  C   UNL     1      46.104   1.592   7.839  0.00  0.00    +0.000 A 
ATOM     23  C   UNL     1      46.605   2.754   7.246  0.00  0.00    +0.000 A 
ATOM     24  C   UNL     1      46.201   3.960   7.788  0.00  0.00    +0.000 A 
ATOM     25  N   UNL     1      45.354   4.072   8.838  0.00  0.00    +0.000 NA
ATOM     26  H   UNL     1      43.130   2.499  10.224  0.00  0.00    +0.000 HD
BRANCH  23  27
ATOM     27  C   UNL     1      47.521   2.651   6.088  0.00  0.00    +0.000 C 
ATOM     28  N   UNL     1      48.840   2.365   6.309  0.00  0.00    +0.000 N 
ATOM     29  O   UNL     1      47.114   2.821   4.944  0.00  0.00    +0.000 OA
ATOM     30  H   UNL     1      49.281   2.208   7.200  0.00  0.00    +0.000 HD
ATOM     31  H   UNL     1      49.426   2.305   5.483  0.00  0.00    +0.000 HD
ENDBRANCH  23  27
ENDBRANCH  18  19
ENDBRANCH   1  18
TORSDOF 6
ENDMDL
MODEL 4
REMARK VINA RESULT:    -7.314      3.995      8.548
REMARK INTER + INTRA:         -10.687
REMARK INTER:                  -9.739
REMARK INTRA:                  -0.949
REMARK UNBOUND:                -0.809
REMARK  Name = 
REMARK  9 active torsions:
REMARK  status: ('A' for Active; 'I' for Inactive)
REMARK    1  A    between atoms: C_1  and  C_2
REMARK    2  A    between atoms: C_2  and  N_3
REMARK    3  A    between atoms: C_6  and  C_7
REMARK    4  A    between atoms: C_11  and  C_12
REMARK    5  A    between atoms: C_12  and  C_13
REMARK    6  A    between atoms: C_12  and  C_14
REMARK    7  A    between atoms: C_12  and  C_15
REMARK    8  A    between atoms: C_15  and  N_16
REMARK    9  A    between atoms: C_20  and  C_21
REMARK                            x       y       z     vdW  Elec       q    Type
REMARK                         _______ _______ _______ _____ _____    ______ ____
ROOT
ATOM      1  C   UNL     1      47.506   7.135  12.834  0.00  0.00    +0.000 C 
ATOM      2  C   UNL     1      48.101   7.499  11.458  0.00  0.00    +0.000 C 
ATOM      3  C   UNL     1      46.470   8.202  13.258  0.00  0.00    +0.000 C 
ENDROOT
BRANCH   1   8
ATOM      4  C   UNL     1      45.165   4.253  11.615  0.00  0.00    +0.000 A 
ATOM      5  C   UNL     1      45.609   3.220  12.450  0.00  0.00    +0.000 A 
ATOM      6  C   UNL     1      46.561   3.451  13.444  0.00  0.00    +0.000 A 
ATOM      7  C   UNL     1      47.131   4.713  13.596  0.00  0.00    +0.000 A 
ATOM      8  C   UNL     1      46.766   5.771  12.752  0.00  0.00    +0.000 A 
ATOM      9  C   UNL     1      45.768   5.513  11.786  0.00  0.00    +0.000 A 
BRANCH   4  13
ATOM     10  N   UNL     1      45.665   2.998   8.098  0.00  0.00    +0.000 NA
ATOM     11  C   UNL     1      45.295   2.112   9.216  0.00  0.00    +0.000 C 
ATOM     12  C   UNL     1      44.045   2.566   9.971  0.00  0.00    +0.000 C 
ATOM     13  C   UNL     1      44.166   4.019  10.473  0.00  0.00    +0.000 C 
ATOM     14  C   UNL     1      44.397   4.864   9.211  0.00  0.00    +0.000 C 
ATOM     15  C   UNL     1      45.663   4.424   8.471  0.00  0.00    +0.000 C 
BRANCH  10  17
ATOM     16  C   UNL     1      47.175   1.178   7.233  0.00  0.00    +0.000 C 
ATOM     17  C   UNL     1      47.004   2.654   7.575  0.00  0.00    +0.000 C 
ENDBRANCH  10  17
ENDBRANCH   4  13
ENDBRANCH   1   8
BRANCH   1  18
ATOM     18  C   UNL     1      48.653   7.092  13.886  0.00  0.00    +0.000 C 
BRANCH  18  19
ATOM     19  N   UNL     1      48.393   7.846  15.121  0.00  0.00    +0.000 N 
ATOM     20  C   UNL     1      48.668   7.059  16.266  0.00  0.00    +0.000 A 
ATOM     21  C   UNL     1      48.438   7.610  17.521  0.00  0.00    +0.000 A 
ATOM     22  C   UNL     1      48.697   6.845  18.659  0.00  0.00    +0.000 A 
ATOM     23  C   UNL     1      49.183   5.542  18.524  0.00  0.00    +0.000 A 
ATOM     24  C   UNL     1      49.397   5.081  17.238  0.00  0.00    +0.000 A 
ATOM     25  N   UNL     1      49.156   5.811  16.123  0.00  0.00    +0.000 NA
ATOM     26  H   UNL     1      47.424   8.148  15.190  0.00  0.00    +0.000 HD
BRANCH  23  27
ATOM     27  C   UNL     1      49.439   4.725  19.731  0.00  0.00    +0.000 C 
ATOM     28  N   UNL     1      48.587   3.698  20.031  0.00  0.00    +0.000 N 
ATOM     29  O   UNL     1      50.395   4.962  20.462  0.00  0.00    +0.000 OA
ATOM     30  H   UNL     1      47.776   3.417  19.505  0.00  0.00    +0.000 HD
ATOM     31  H   UNL     1      48.806   3.169  20.868  0.00  0.00    +0.000 HD
ENDBRANCH  23  27
ENDBRANCH  18  19
ENDBRANCH   1  18
TORSDOF 6
ENDMDL
MODEL 5
REMARK VINA RESULT:    -7.108      3.400      7.819
REMARK INTER + INTRA:         -10.410
REMARK INTER:                  -9.113
REMARK INTRA:                  -1.297
REMARK UNBOUND:                -0.809
REMARK  Name = 
REMARK  9 active torsions:
REMARK  status: ('A' for Active; 'I' for Inactive)
REMARK    1  A    between atoms: C_1  and  C_2
REMARK    2  A    between atoms: C_2  and  N_3
REMARK    3  A    between atoms: C_6  and  C_7
REMARK    4  A    between atoms: C_11  and  C_12
REMARK    5  A    between atoms: C_12  and  C_13
REMARK    6  A    between atoms: C_12  and  C_14
REMARK    7  A    between atoms: C_12  and  C_15
REMARK    8  A    between atoms: C_15  and  N_16
REMARK    9  A    between atoms: C_20  and  C_21
REMARK                            x       y       z     vdW  Elec       q    Type
REMARK                         _______ _______ _______ _____ _____    ______ ____
ROOT
ATOM      1  C   UNL     1      48.398   8.684  12.781  0.00  0.00    +0.000 C 
ATOM      2  C   UNL     1      49.211   9.179  11.567  0.00  0.00    +0.000 C 
ATOM      3  C   UNL     1      48.380   9.772  13.880  0.00  0.00    +0.000 C 
ENDROOT
BRANCH   1   8
ATOM      4  C   UNL     1      44.879   7.016  12.459  0.00  0.00    +0.000 A 
ATOM      5  C   UNL     1      44.186   8.049  11.816  0.00  0.00    +0.000 A 
ATOM      6  C   UNL     1      44.839   9.213  11.407  0.00  0.00    +0.000 A 
ATOM      7  C   UNL     1      46.194   9.394  11.673  0.00  0.00    +0.000 A 
ATOM      8  C   UNL     1      46.926   8.417  12.364  0.00  0.00    +0.000 A 
ATOM      9  C   UNL     1      46.244   7.233  12.724  0.00  0.00    +0.000 A 
BRANCH   4  13
ATOM     10  N   UNL     1      44.397   3.625  10.888  0.00  0.00    +0.000 NA
ATOM     11  C   UNL     1      45.516   3.931  11.796  0.00  0.00    +0.000 C 
ATOM     12  C   UNL     1      45.074   4.506  13.143  0.00  0.00    +0.000 C 
ATOM     13  C   UNL     1      44.179   5.751  12.977  0.00  0.00    +0.000 C 
ATOM     14  C   UNL     1      42.977   5.276  12.147  0.00  0.00    +0.000 C 
ATOM     15  C   UNL     1      43.420   4.725  10.790  0.00  0.00    +0.000 C 
BRANCH  10  17
ATOM     16  C   UNL     1      44.653   1.875   9.095  0.00  0.00    +0.000 C 
ATOM     17  C   UNL     1      44.891   3.317   9.529  0.00  0.00    +0.000 C 
ENDBRANCH  10  17
ENDBRANCH   4  13
ENDBRANCH   1   8
BRANCH   1  18
ATOM     18  C   UNL     1      49.066   7.399  13.348  0.00  0.00    +0.000 C 
BRANCH  18  19
ATOM     19  N   UNL     1      49.540   7.504  14.736  0.00  0.00    +0.000 N 
ATOM     20  C   UNL     1      49.029   6.448  15.530  0.00  0.00    +0.000 A 
ATOM     21  C   UNL     1      49.349   6.419  16.882  0.00  0.00    +0.000 A 
ATOM     22  C   UNL     1      48.847   5.390  17.680  0.00  0.00    +0.000 A 
ATOM     23  C   UNL     1      48.033   4.405  17.112  0.00  0.00    +0.000 A 
ATOM     24  C   UNL     1      47.779   4.505  15.757  0.00  0.00    +0.000 A 
ATOM     25  N   UNL     1      48.262   5.493  14.967  0.00  0.00    +0.000 NA
ATOM     26  H   UNL     1      49.254   8.376  15.175  0.00  0.00    +0.000 HD
BRANCH  23  27
ATOM     27  C   UNL     1      47.486   3.326  17.964  0.00  0.00    +0.000 C 
ATOM     28  N   UNL     1      48.131   3.006  19.127  0.00  0.00    +0.000 N 
ATOM     29  O   UNL     1      46.472   2.718  17.638  0.00  0.00    +0.000 OA
ATOM     30  H   UNL     1      48.966   3.436  19.489  0.00  0.00    +0.000 HD
ATOM     31  H   UNL     1      47.716   2.260  19.674  0.00  0.00    +0.000 HD
ENDBRANCH  23  27
ENDBRANCH  18  19
ENDBRANCH   1  18
TORSDOF 6
ENDMDL
MODEL 6
REMARK VINA RESULT:    -6.833      4.904      6.593
REMARK INTER + INTRA:         -10.038
REMARK INTER:                  -9.176
REMARK INTRA:                  -0.862
REMARK UNBOUND:                -0.809
REMARK  Name = 
REMARK  9 active torsions:
REMARK  status: ('A' for Active; 'I' for Inactive)
REMARK    1  A    between atoms: C_1  and  C_2
REMARK    2  A    between atoms: C_2  and  N_3
REMARK    3  A    between atoms: C_6  and  C_7
REMARK    4  A    between atoms: C_11  and  C_12
REMARK    5  A    between atoms: C_12  and  C_13
REMARK    6  A    between atoms: C_12  and  C_14
REMARK    7  A    between atoms: C_12  and  C_15
REMARK    8  A    between atoms: C_15  and  N_16
REMARK    9  A    between atoms: C_20  and  C_21
REMARK                            x       y       z     vdW  Elec       q    Type
REMARK                         _______ _______ _______ _____ _____    ______ ____
ROOT
ATOM      1  C   UNL     1      48.172   4.852  16.917  0.00  0.00    +0.000 C 
ATOM      2  C   UNL     1      47.253   4.751  18.152  0.00  0.00    +0.000 C 
ATOM      3  C   UNL     1      48.662   6.308  16.744  0.00  0.00    +0.000 C 
ENDROOT
BRANCH   1   8
ATOM      4  C   UNL     1      51.773   3.666  17.866  0.00  0.00    +0.000 A 
ATOM      5  C   UNL     1      51.619   2.285  17.695  0.00  0.00    +0.000 A 
ATOM      6  C   UNL     1      50.431   1.745  17.200  0.00  0.00    +0.000 A 
ATOM      7  C   UNL     1      49.348   2.571  16.906  0.00  0.00    +0.000 A 
ATOM      8  C   UNL     1      49.427   3.956  17.111  0.00  0.00    +0.000 A 
ATOM      9  C   UNL     1      50.658   4.473  17.572  0.00  0.00    +0.000 A 
BRANCH   4  13
ATOM     10  N   UNL     1      52.231   6.323  20.498  0.00  0.00    +0.000 NA
ATOM     11  C   UNL     1      52.236   4.883  20.809  0.00  0.00    +0.000 C 
ATOM     12  C   UNL     1      53.241   4.080  19.982  0.00  0.00    +0.000 C 
ATOM     13  C   UNL     1      53.043   4.287  18.467  0.00  0.00    +0.000 C 
ATOM     14  C   UNL     1      53.209   5.798  18.241  0.00  0.00    +0.000 C 
ATOM     15  C   UNL     1      52.185   6.597  19.051  0.00  0.00    +0.000 C 
BRANCH  10  17
ATOM     16  C   UNL     1      49.725   6.550  20.599  0.00  0.00    +0.000 C 
ATOM     17  C   UNL     1      51.080   6.995  21.137  0.00  0.00    +0.000 C 
ENDBRANCH  10  17
ENDBRANCH   4  13
ENDBRANCH   1   8
BRANCH   1  18
ATOM     18  C   UNL     1      47.369   4.431  15.652  0.00  0.00    +0.000 C 
BRANCH  18  19
ATOM     19  N   UNL     1      47.153   5.502  14.667  0.00  0.00    +0.000 N 
ATOM     20  C   UNL     1      46.393   5.035  13.567  0.00  0.00    +0.000 A 
ATOM     21  C   UNL     1      46.130   5.914  12.522  0.00  0.00    +0.000 A 
ATOM     22  C   UNL     1      45.390   5.468  11.427  0.00  0.00    +0.000 A 
ATOM     23  C   UNL     1      44.923   4.151  11.394  0.00  0.00    +0.000 A 
ATOM     24  C   UNL     1      45.218   3.352  12.483  0.00  0.00    +0.000 A 
ATOM     25  N   UNL     1      45.931   3.769  13.556  0.00  0.00    +0.000 NA
ATOM     26  H   UNL     1      48.028   5.865  14.297  0.00  0.00    +0.000 HD
BRANCH  23  27
ATOM     27  C   UNL     1      44.154   3.674  10.223  0.00  0.00    +0.000 C 
ATOM     28  N   UNL     1      43.857   4.556   9.220  0.00  0.00    +0.000 N 
ATOM     29  O   UNL     1      43.780   2.509  10.145  0.00  0.00    +0.000 OA
ATOM     30  H   UNL     1      44.111   5.529   9.180  0.00  0.00    +0.000 HD
ATOM     31  H   UNL     1      43.329   4.180   8.440  0.00  0.00    +0.000 HD
ENDBRANCH  23  27
ENDBRANCH  18  19
ENDBRANCH   1  18
TORSDOF 6
ENDMDL
MODEL 7
REMARK VINA RESULT:    -6.714      4.332      6.299
REMARK INTER + INTRA:          -9.877
REMARK INTER:                  -8.849
REMARK INTRA:                  -1.028
REMARK UNBOUND:                -0.809
REMARK  Name = 
REMARK  9 active torsions:
REMARK  status: ('A' for Active; 'I' for Inactive)
REMARK    1  A    between atoms: C_1  and  C_2
REMARK    2  A    between atoms: C_2  and  N_3
REMARK    3  A    between atoms: C_6  and  C_7
REMARK    4  A    between atoms: C_11  and  C_12
REMARK    5  A    between atoms: C_12  and  C_13
REMARK    6  A    between atoms: C_12  and  C_14
REMARK    7  A    between atoms: C_12  and  C_15
REMARK    8  A    between atoms: C_15  and  N_16
REMARK    9  A    between atoms: C_20  and  C_21
REMARK                            x       y       z     vdW  Elec       q    Type
REMARK                         _______ _______ _______ _____ _____    ______ ____
ROOT
ATOM      1  C   UNL     1      47.943   3.621  17.285  0.00  0.00    +0.000 C 
ATOM      2  C   UNL     1      47.149   2.546  18.057  0.00  0.00    +0.000 C 
ATOM      3  C   UNL     1      47.705   5.008  17.924  0.00  0.00    +0.000 C 
ENDROOT
BRANCH   1   8
ATOM      4  C   UNL     1      51.774   4.035  17.933  0.00  0.00    +0.000 A 
ATOM      5  C   UNL     1      52.188   2.709  17.754  0.00  0.00    +0.000 A 
ATOM      6  C   UNL     1      51.292   1.720  17.343  0.00  0.00    +0.000 A 
ATOM      7  C   UNL     1      49.947   2.023  17.148  0.00  0.00    +0.000 A 
ATOM      8  C   UNL     1      49.465   3.322  17.367  0.00  0.00    +0.000 A 
ATOM      9  C   UNL     1      50.407   4.307  17.739  0.00  0.00    +0.000 A 
BRANCH   4  13
ATOM     10  N   UNL     1      52.503   7.491  16.621  0.00  0.00    +0.000 NA
ATOM     11  C   UNL     1      51.499   7.231  17.667  0.00  0.00    +0.000 C 
ATOM     12  C   UNL     1      52.049   6.456  18.867  0.00  0.00    +0.000 C 
ATOM     13  C   UNL     1      52.719   5.132  18.444  0.00  0.00    +0.000 C 
ATOM     14  C   UNL     1      53.840   5.539  17.476  0.00  0.00    +0.000 C 
ATOM     15  C   UNL     1      53.284   6.293  16.265  0.00  0.00    +0.000 C 
BRANCH  10  17
ATOM     16  C   UNL     1      50.474   7.438  15.130  0.00  0.00    +0.000 C 
ATOM     17  C   UNL     1      51.862   8.011  15.395  0.00  0.00    +0.000 C 
ENDBRANCH  10  17
ENDBRANCH   4  13
ENDBRANCH   1   8
BRANCH   1  18
ATOM     18  C   UNL     1      47.452   3.648  15.809  0.00  0.00    +0.000 C 
BRANCH  18  19
ATOM     19  N   UNL     1      47.400   4.984  15.195  0.00  0.00    +0.000 N 
ATOM     20  C   UNL     1      46.716   4.948  13.955  0.00  0.00    +0.000 A 
ATOM     21  C   UNL     1      46.609   6.124  13.222  0.00  0.00    +0.000 A 
ATOM     22  C   UNL     1      45.946   6.104  11.994  0.00  0.00    +0.000 A 
ATOM     23  C   UNL     1      45.398   4.909  11.520  0.00  0.00    +0.000 A 
ATOM     24  C   UNL     1      45.538   3.792  12.323  0.00  0.00    +0.000 A 
ATOM     25  N   UNL     1      46.174   3.794  13.518  0.00  0.00    +0.000 NA
ATOM     26  H   UNL     1      48.327   5.361  15.017  0.00  0.00    +0.000 HD
BRANCH  23  27
ATOM     27  C   UNL     1      44.712   4.886  10.210  0.00  0.00    +0.000 C 
ATOM     28  N   UNL     1      45.431   5.159   9.079  0.00  0.00    +0.000 N 
ATOM     29  O   UNL     1      43.515   4.632  10.128  0.00  0.00    +0.000 OA
ATOM     30  H   UNL     1      46.412   5.380   9.029  0.00  0.00    +0.000 HD
ATOM     31  H   UNL     1      44.915   5.131   8.206  0.00  0.00    +0.000 HD
ENDBRANCH  23  27
ENDBRANCH  18  19
ENDBRANCH   1  18
TORSDOF 6
ENDMDL
MODEL 8
REMARK VINA RESULT:    -6.675      3.440      6.233
REMARK INTER + INTRA:          -9.824
REMARK INTER:                  -8.579
REMARK INTRA:                  -1.246
REMARK UNBOUND:                -0.809
REMARK  Name = 
REMARK  9 active torsions:
REMARK  status: ('A' for Active; 'I' for Inactive)
REMARK    1  A    between atoms: C_1  and  C_2
REMARK    2  A    between atoms: C_2  and  N_3
REMARK    3  A    between atoms: C_6  and  C_7
REMARK    4  A    between atoms: C_11  and  C_12
REMARK    5  A    between atoms: C_12  and  C_13
REMARK    6  A    between atoms: C_12  and  C_14
REMARK    7  A    between atoms: C_12  and  C_15
REMARK    8  A    between atoms: C_15  and  N_16
REMARK    9  A    between atoms: C_20  and  C_21
REMARK                            x       y       z     vdW  Elec       q    Type
REMARK                         _______ _______ _______ _____ _____    ______ ____
ROOT
ATOM      1  C   UNL     1      48.847   8.556  14.249  0.00  0.00    +0.000 C 
ATOM      2  C   UNL     1      49.018  10.033  13.840  0.00  0.00    +0.000 C 
ATOM      3  C   UNL     1      50.083   7.741  13.803  0.00  0.00    +0.000 C 
ENDROOT
BRANCH   1   8
ATOM      4  C   UNL     1      49.484   7.425  17.935  0.00  0.00    +0.000 A 
ATOM      5  C   UNL     1      48.737   8.397  18.612  0.00  0.00    +0.000 A 
ATOM      6  C   UNL     1      47.971   9.334  17.918  0.00  0.00    +0.000 A 
ATOM      7  C   UNL     1      47.969   9.353  16.525  0.00  0.00    +0.000 A 
ATOM      8  C   UNL     1      48.742   8.439  15.795  0.00  0.00    +0.000 A 
ATOM      9  C   UNL     1      49.471   7.477  16.529  0.00  0.00    +0.000 A 
BRANCH   4  13
ATOM     10  N   UNL     1      49.157   3.705  18.440  0.00  0.00    +0.000 NA
ATOM     11  C   UNL     1      49.933   4.294  17.335  0.00  0.00    +0.000 C 
ATOM     12  C   UNL     1      50.991   5.299  17.796  0.00  0.00    +0.000 C 
ATOM     13  C   UNL     1      50.386   6.420  18.666  0.00  0.00    +0.000 C 
ATOM     14  C   UNL     1      49.739   5.699  19.859  0.00  0.00    +0.000 C 
ATOM     15  C   UNL     1      48.664   4.713  19.396  0.00  0.00    +0.000 C 
BRANCH  10  17
ATOM     16  C   UNL     1      47.093   3.751  16.998  0.00  0.00    +0.000 C 
ATOM     17  C   UNL     1      47.998   2.946  17.923  0.00  0.00    +0.000 C 
ENDBRANCH  10  17
ENDBRANCH   4  13
ENDBRANCH   1   8
BRANCH   1  18
ATOM     18  C   UNL     1      47.579   7.982  13.553  0.00  0.00    +0.000 C 
BRANCH  18  19
ATOM     19  N   UNL     1      47.144   6.664  14.041  0.00  0.00    +0.000 N 
ATOM     20  C   UNL     1      46.434   5.960  13.038  0.00  0.00    +0.000 A 
ATOM     21  C   UNL     1      45.916   4.707  13.347  0.00  0.00    +0.000 A 
ATOM     22  C   UNL     1      45.207   4.003  12.373  0.00  0.00    +0.000 A 
ATOM     23  C   UNL     1      45.028   4.562  11.105  0.00  0.00    +0.000 A 
ATOM     24  C   UNL     1      45.590   5.806  10.881  0.00  0.00    +0.000 A 
ATOM     25  N   UNL     1      46.285   6.500  11.813  0.00  0.00    +0.000 NA
ATOM     26  H   UNL     1      46.531   6.737  14.849  0.00  0.00    +0.000 HD
BRANCH  23  27
ATOM     27  C   UNL     1      44.259   3.822  10.080  0.00  0.00    +0.000 C 
ATOM     28  N   UNL     1      44.112   4.371   8.836  0.00  0.00    +0.000 N 
ATOM     29  O   UNL     1      43.753   2.735  10.333  0.00  0.00    +0.000 OA
ATOM     30  H   UNL     1      44.482   5.253   8.520  0.00  0.00    +0.000 HD
ATOM     31  H   UNL     1      43.577   3.825   8.169  0.00  0.00    +0.000 HD
ENDBRANCH  23  27
ENDBRANCH  18  19
ENDBRANCH   1  18
TORSDOF 6
ENDMDL
MODEL 9
REMARK VINA RESULT:    -6.623      3.138      5.468
REMARK INTER + INTRA:          -9.754
REMARK INTER:                  -8.809
REMARK INTRA:                  -0.945
REMARK UNBOUND:                -0.809
REMARK  Name = 
REMARK  9 active torsions:
REMARK  status: ('A' for Active; 'I' for Inactive)
REMARK    1  A    between atoms: C_1  and  C_2
REMARK    2  A    between atoms: C_2  and  N_3
REMARK    3  A    between atoms: C_6  and  C_7
REMARK    4  A    between atoms: C_11  and  C_12
REMARK    5  A    between atoms: C_12  and  C_13
REMARK    6  A    between atoms: C_12  and  C_14
REMARK    7  A    between atoms: C_12  and  C_15
REMARK    8  A    between atoms: C_15  and  N_16
REMARK    9  A    between atoms: C_20  and  C_21
REMARK                            x       y       z     vdW  Elec       q    Type
REMARK                         _______ _______ _______ _____ _____    ______ ____
ROOT
ATOM      1  C   UNL     1      48.122   4.228  17.291  0.00  0.00    +0.000 C 
ATOM      2  C   UNL     1      48.333   2.884  18.018  0.00  0.00    +0.000 C 
ATOM      3  C   UNL     1      47.214   5.148  18.140  0.00  0.00    +0.000 C 
ENDROOT
BRANCH   1   8
ATOM      4  C   UNL     1      50.778   7.012  16.609  0.00  0.00    +0.000 A 
ATOM      5  C   UNL     1      51.936   6.337  17.014  0.00  0.00    +0.000 A 
ATOM      6  C   UNL     1      51.894   4.997  17.405  0.00  0.00    +0.000 A 
ATOM      7  C   UNL     1      50.682   4.312  17.447  0.00  0.00    +0.000 A 
ATOM      8  C   UNL     1      49.483   4.954  17.106  0.00  0.00    +0.000 A 
ATOM      9  C   UNL     1      49.568   6.296  16.673  0.00  0.00    +0.000 A 
BRANCH   4  13
ATOM     10  N   UNL     1      50.429   8.731  13.274  0.00  0.00    +0.000 NA
ATOM     11  C   UNL     1      49.285   8.488  14.170  0.00  0.00    +0.000 C 
ATOM     12  C   UNL     1      49.486   9.034  15.585  0.00  0.00    +0.000 C 
ATOM     13  C   UNL     1      50.780   8.501  16.233  0.00  0.00    +0.000 C 
ATOM     14  C   UNL     1      51.913   8.942  15.294  0.00  0.00    +0.000 C 
ATOM     15  C   UNL     1      51.722   8.374  13.886  0.00  0.00    +0.000 C 
BRANCH  10  17
ATOM     16  C   UNL     1      48.835   7.755  11.587  0.00  0.00    +0.000 C 
ATOM     17  C   UNL     1      50.282   7.970  12.016  0.00  0.00    +0.000 C 
ENDBRANCH  10  17
ENDBRANCH   4  13
ENDBRANCH   1   8
BRANCH   1  18
ATOM     18  C   UNL     1      47.436   3.960  15.920  0.00  0.00    +0.000 C 
BRANCH  18  19
ATOM     19  N   UNL     1      47.029   5.165  15.181  0.00  0.00    +0.000 N 
ATOM     20  C   UNL     1      46.374   4.823  13.972  0.00  0.00    +0.000 A 
ATOM     21  C   UNL     1      45.956   5.848  13.131  0.00  0.00    +0.000 A 
ATOM     22  C   UNL     1      45.317   5.528  11.933  0.00  0.00    +0.000 A 
ATOM     23  C   UNL     1      45.103   4.189  11.595  0.00  0.00    +0.000 A 
ATOM     24  C   UNL     1      45.538   3.236  12.498  0.00  0.00    +0.000 A 
ATOM     25  N   UNL     1      46.156   3.528  13.667  0.00  0.00    +0.000 NA
ATOM     26  H   UNL     1      47.823   5.752  14.938  0.00  0.00    +0.000 HD
BRANCH  23  27
ATOM     27  C   UNL     1      44.442   3.852  10.315  0.00  0.00    +0.000 C 
ATOM     28  N   UNL     1      44.457   4.767   9.299  0.00  0.00    +0.000 N 
ATOM     29  O   UNL     1      43.883   2.772  10.159  0.00  0.00    +0.000 OA
ATOM     30  H   UNL     1      44.883   5.679   9.318  0.00  0.00    +0.000 HD
ATOM     31  H   UNL     1      43.990   4.489   8.443  0.00  0.00    +0.000 HD
ENDBRANCH  23  27
ENDBRANCH  18  19
ENDBRANCH   1  18
TORSDOF 6
ENDMDL
