MODEL 1
REMARK VINA RESULT:    -7.859      0.000      0.000
REMARK INTER + INTRA:         -11.681
REMARK INTER:                 -10.615
REMARK INTRA:                  -1.066
REMARK UNBOUND:                -1.066
REMARK  Name = 
REMARK  7 active torsions:
REMARK  status: ('A' for Active; 'I' for Inactive)
REMARK    1  A    between atoms: C_1  and  S_2
REMARK    2  A    between atoms: S_2  and  C_3
REMARK    3  A    between atoms: C_5  and  C_6
REMARK    4  A    between atoms: C_11  and  N_12
REMARK    5  A    between atoms: N_12  and  C_13
REMARK    6  A    between atoms: C_13  and  C_14
REMARK    7  A    between atoms: C_18  and  C_19
REMARK                            x       y       z     vdW  Elec       q    Type
REMARK                         _______ _______ _______ _____ _____    ______ ____
ROOT
ATOM      1  N   UNL     1      44.541   6.706  12.657  0.00  0.00    +0.000 N 
ATOM      2  H   UNL     1      44.388   5.946  13.322  0.00  0.00    +0.000 HD
ENDROOT
BRANCH   1   8
ATOM      3  C   UNL     1      46.877   6.064  13.056  0.00  0.00    +0.000 A 
ATOM      4  C   UNL     1      48.248   6.369  12.996  0.00  0.00    +0.000 A 
ATOM      5  C   UNL     1      48.693   7.595  12.481  0.00  0.00    +0.000 A 
ATOM      6  C   UNL     1      47.750   8.521  12.039  0.00  0.00    +0.000 A 
ATOM      7  C   UNL     1      46.385   8.223  12.102  0.00  0.00    +0.000 A 
ATOM      8  C   UNL     1      45.921   6.982  12.566  0.00  0.00    +0.000 A 
BRANCH   5   9
ATOM      9  C   UNL     1      50.161   7.854  12.438  0.00  0.00    +0.000 C 
ATOM     10  N   UNL     1      50.871   7.832  13.607  0.00  0.00    +0.000 N 
ATOM     11  O   UNL     1      50.737   8.089  11.380  0.00  0.00    +0.000 OA
ATOM     12  H   UNL     1      50.490   7.666  14.524  0.00  0.00    +0.000 HD
ATOM     13  H   UNL     1      51.862   8.019  13.537  0.00  0.00    +0.000 HD
ENDBRANCH   5   9
BRANCH   3  15
ATOM     14  C   UNL     1      47.191   4.455  15.296  0.00  0.00    +0.000 C 
ATOM     15  S   UNL     1      46.426   4.426  13.652  0.00  0.00    +0.000 S 
ENDBRANCH   3  15
ENDBRANCH   1   8
BRANCH   1  16
ATOM     16  C   UNL     1      43.819   6.474  11.410  0.00  0.00    +0.000 C 
BRANCH  16  17
ATOM     17  C   UNL     1      43.886   5.015  11.031  0.00  0.00    +0.000 A 
ATOM     18  C   UNL     1      43.187   4.054  11.766  0.00  0.00    +0.000 A 
ATOM     19  C   UNL     1      43.315   2.706  11.448  0.00  0.00    +0.000 A 
ATOM     20  C   UNL     1      44.137   2.308  10.389  0.00  0.00    +0.000 A 
ATOM     21  C   UNL     1      44.840   3.245   9.612  0.00  0.00    +0.000 A 
ATOM     22  C   UNL     1      44.703   4.601   9.963  0.00  0.00    +0.000 A 
BRANCH  21  23
ATOM     23  C   UNL     1      45.668   2.833   8.459  0.00  0.00    +0.000 A 
ATOM     24  C   UNL     1      46.016   3.716   7.424  0.00  0.00    +0.000 A 
ATOM     25  C   UNL     1      46.768   3.276   6.333  0.00  0.00    +0.000 A 
ATOM     26  C   UNL     1      47.172   1.954   6.305  0.00  0.00    +0.000 A 
ATOM     27  N   UNL     1      46.878   1.066   7.272  0.00  0.00    +0.000 NA
ATOM     28  C   UNL     1      46.135   1.524   8.312  0.00  0.00    +0.000 A 
ENDBRANCH  21  23
ENDBRANCH  16  17
ENDBRANCH   1  16
TORSDOF 6
ENDMDL
MODEL 2
REMARK VINA RESULT:    -7.738      1.547      2.272
REMARK INTER + INTRA:         -11.518
REMARK INTER:                 -10.610
REMARK INTRA:                  -0.908
REMARK UNBOUND:                -1.066
REMARK  Name = 
REMARK  7 active torsions:
REMARK  status: ('A' for Active; 'I' for Inactive)
REMARK    1  A    between atoms: C_1  and  S_2
REMARK    2  A    between atoms: S_2  and  C_3
REMARK    3  A    between atoms: C_5  and  C_6
REMARK    4  A    between atoms: C_11  and  N_12
REMARK    5  A    between atoms: N_12  and  C_13
REMARK    6  A    between atoms: C_13  and  C_14
REMARK    7  A    between atoms: C_18  and  C_19
REMARK                            x       y       z     vdW  Elec       q    Type
REMARK                         _______ _______ _______ _____ _____    ______ ____
ROOT
ATOM      1  N   UNL     1      43.727   6.459  12.420  0.00  0.00    +0.000 N 
ATOM      2  H   UNL     1      43.292   5.785  13.053  0.00  0.00    +0.000 HD
ENDROOT
BRANCH   1   8
ATOM      3  C   UNL     1      45.787   7.794  12.457  0.00  0.00    +0.000 A 
ATOM      4  C   UNL     1      47.157   7.906  12.752  0.00  0.00    +0.000 A 
ATOM      5  C   UNL     1      47.866   6.833  13.309  0.00  0.00    +0.000 A 
ATOM      6  C   UNL     1      47.193   5.638  13.556  0.00  0.00    +0.000 A 
ATOM      7  C   UNL     1      45.831   5.521  13.259  0.00  0.00    +0.000 A 
ATOM      8  C   UNL     1      45.091   6.599  12.748  0.00  0.00    +0.000 A 
BRANCH   5   9
ATOM      9  C   UNL     1      49.316   7.018  13.606  0.00  0.00    +0.000 C 
ATOM     10  N   UNL     1      50.152   7.414  12.598  0.00  0.00    +0.000 N 
ATOM     11  O   UNL     1      49.768   6.819  14.730  0.00  0.00    +0.000 OA
ATOM     12  H   UNL     1      49.882   7.587  11.643  0.00  0.00    +0.000 HD
ATOM     13  H   UNL     1      51.128   7.522  12.838  0.00  0.00    +0.000 HD
ENDBRANCH   5   9
BRANCH   3  15
ATOM     14  C   UNL     1      46.325  10.459  11.892  0.00  0.00    +0.000 C 
ATOM     15  S   UNL     1      44.960   9.265  11.828  0.00  0.00    +0.000 S 
ENDBRANCH   3  15
ENDBRANCH   1   8
BRANCH   1  16
ATOM     16  C   UNL     1      43.397   6.171  11.028  0.00  0.00    +0.000 C 
BRANCH  16  17
ATOM     17  C   UNL     1      43.676   4.722  10.714  0.00  0.00    +0.000 A 
ATOM     18  C   UNL     1      43.127   3.703  11.496  0.00  0.00    +0.000 A 
ATOM     19  C   UNL     1      43.450   2.375  11.237  0.00  0.00    +0.000 A 
ATOM     20  C   UNL     1      44.320   2.054  10.191  0.00  0.00    +0.000 A 
ATOM     21  C   UNL     1      44.877   3.048   9.367  0.00  0.00    +0.000 A 
ATOM     22  C   UNL     1      44.544   4.384   9.659  0.00  0.00    +0.000 A 
BRANCH  21  23
ATOM     23  C   UNL     1      45.756   2.711   8.227  0.00  0.00    +0.000 A 
ATOM     24  C   UNL     1      46.025   3.614   7.187  0.00  0.00    +0.000 A 
ATOM     25  C   UNL     1      46.829   3.241   6.108  0.00  0.00    +0.000 A 
ATOM     26  C   UNL     1      47.364   1.967   6.098  0.00  0.00    +0.000 A 
ATOM     27  N   UNL     1      47.150   1.062   7.072  0.00  0.00    +0.000 NA
ATOM     28  C   UNL     1      46.354   1.454   8.099  0.00  0.00    +0.000 A 
ENDBRANCH  21  23
ENDBRANCH  16  17
ENDBRANCH   1  16
TORSDOF 6
ENDMDL
MODEL 3
REMARK VINA RESULT:    -7.045      2.715      3.697
REMARK INTER + INTRA:         -10.582
REMARK INTER:                  -9.763
REMARK INTRA:                  -0.818
REMARK UNBOUND:                -1.066
REMARK  Name = 
REMARK  7 active torsions:
REMARK  status: ('A' for Active; 'I' for Inactive)
REMARK    1  A    between atoms: C_1  and  S_2
REMARK    2  A    between atoms: S_2  and  C_3
REMARK    3  A    between atoms: C_5  and  C_6
REMARK    4  A    between atoms: C_11  and  N_12
REMARK    5  A    between atoms: N_12  and  C_13
REMARK    6  A    between atoms: C_13  and  C_14
REMARK    7  A    between atoms: C_18  and  C_19
REMARK                            x       y       z     vdW  Elec       q    Type
REMARK                         _______ _______ _______ _____ _____    ______ ____
ROOT
ATOM      1  N   UNL     1      47.406   6.721  12.445  0.00  0.00    +0.000 N 
ATOM      2  H   UNL     1      48.167   7.402  12.403  0.00  0.00    +0.000 HD
ENDROOT
BRANCH   1   8
ATOM      3  C   UNL     1      48.221   6.515  14.752  0.00  0.00    +0.000 A 
ATOM      4  C   UNL     1      48.318   5.777  15.945  0.00  0.00    +0.000 A 
ATOM      5  C   UNL     1      47.713   4.518  16.067  0.00  0.00    +0.000 A 
ATOM      6  C   UNL     1      47.018   3.997  14.976  0.00  0.00    +0.000 A 
ATOM      7  C   UNL     1      46.923   4.727  13.786  0.00  0.00    +0.000 A 
ATOM      8  C   UNL     1      47.479   6.010  13.660  0.00  0.00    +0.000 A 
BRANCH   5   9
ATOM      9  C   UNL     1      47.847   3.789  17.360  0.00  0.00    +0.000 C 
ATOM     10  N   UNL     1      46.924   2.830  17.677  0.00  0.00    +0.000 N 
ATOM     11  O   UNL     1      48.762   4.035  18.141  0.00  0.00    +0.000 OA
ATOM     12  H   UNL     1      46.131   2.567  17.115  0.00  0.00    +0.000 HD
ATOM     13  H   UNL     1      47.045   2.364  18.566  0.00  0.00    +0.000 HD
ENDBRANCH   5   9
BRANCH   3  15
ATOM     14  C   UNL     1      48.626   8.678  16.445  0.00  0.00    +0.000 C 
ATOM     15  S   UNL     1      48.961   8.156  14.740  0.00  0.00    +0.000 S 
ENDBRANCH   3  15
ENDBRANCH   1   8
BRANCH   1  16
ATOM     16  C   UNL     1      46.127   7.332  12.100  0.00  0.00    +0.000 C 
BRANCH  16  17
ATOM     17  C   UNL     1      45.258   6.345  11.361  0.00  0.00    +0.000 A 
ATOM     18  C   UNL     1      43.892   6.247  11.638  0.00  0.00    +0.000 A 
ATOM     19  C   UNL     1      43.119   5.283  10.999  0.00  0.00    +0.000 A 
ATOM     20  C   UNL     1      43.703   4.414  10.073  0.00  0.00    +0.000 A 
ATOM     21  C   UNL     1      45.069   4.493   9.749  0.00  0.00    +0.000 A 
ATOM     22  C   UNL     1      45.831   5.468  10.420  0.00  0.00    +0.000 A 
BRANCH  21  23
ATOM     23  C   UNL     1      45.681   3.611   8.732  0.00  0.00    +0.000 A 
ATOM     24  C   UNL     1      46.286   4.107   7.568  0.00  0.00    +0.000 A 
ATOM     25  C   UNL     1      46.817   3.236   6.613  0.00  0.00    +0.000 A 
ATOM     26  C   UNL     1      46.743   1.877   6.852  0.00  0.00    +0.000 A 
ATOM     27  N   UNL     1      46.183   1.345   7.954  0.00  0.00    +0.000 NA
ATOM     28  C   UNL     1      45.666   2.219   8.855  0.00  0.00    +0.000 A 
ENDBRANCH  21  23
ENDBRANCH  16  17
ENDBRANCH   1  16
TORSDOF 6
ENDMDL
MODEL 4
REMARK VINA RESULT:    -6.271      1.664      2.200
REMARK INTER + INTRA:          -9.536
REMARK INTER:                  -8.687
REMARK INTRA:                  -0.849
REMARK UNBOUND:                -1.066
REMARK  Name = 
REMARK  7 active torsions:
REMARK  status: ('A' for Active; 'I' for Inactive)
REMARK    1  A    between atoms: C_1  and  S_2
REMARK    2  A    between atoms: S_2  and  C_3
REMARK    3  A    between atoms: C_5  and  C_6
REMARK    4  A    between atoms: C_11  and  N_12
REMARK    5  A    between atoms: N_12  and  C_13
REMARK    6  A    between atoms: C_13  and  C_14
REMARK    7  A    between atoms: C_18  and  C_19
REMARK                            x       y       z     vdW  Elec       q    Type
REMARK                         _______ _______ _______ _____ _____    ______ ____
ROOT
ATOM      1  N   UNL     1      46.695   6.888  13.607  0.00  0.00    +0.000 N 
ATOM      2  H   UNL     1      46.653   5.869  13.674  0.00  0.00    +0.000 HD
ENDROOT
BRANCH   1   8
ATOM      3  C   UNL     1      48.927   7.743  14.171  0.00  0.00    +0.000 A 
ATOM      4  C   UNL     1      50.203   8.169  13.763  0.00  0.00    +0.000 A 
ATOM      5  C   UNL     1      50.565   8.174  12.409  0.00  0.00    +0.000 A 
ATOM      6  C   UNL     1      49.630   7.761  11.461  0.00  0.00    +0.000 A 
ATOM      7  C   UNL     1      48.357   7.341  11.863  0.00  0.00    +0.000 A 
ATOM      8  C   UNL     1      47.993   7.280  13.217  0.00  0.00    +0.000 A 
BRANCH   5   9
ATOM      9  C   UNL     1      51.937   8.630  12.043  0.00  0.00    +0.000 C 
ATOM     10  N   UNL     1      53.014   8.002  12.605  0.00  0.00    +0.000 N 
ATOM     11  O   UNL     1      52.114   9.554  11.254  0.00  0.00    +0.000 OA
ATOM     12  H   UNL     1      52.975   7.248  13.271  0.00  0.00    +0.000 HD
ATOM     13  H   UNL     1      53.927   8.345  12.336  0.00  0.00    +0.000 HD
ENDBRANCH   5   9
BRANCH   3  15
ATOM     14  C   UNL     1      48.938   5.945  16.285  0.00  0.00    +0.000 C 
ATOM     15  S   UNL     1      48.604   7.694  15.941  0.00  0.00    +0.000 S 
ENDBRANCH   3  15
ENDBRANCH   1   8
BRANCH   1  16
ATOM     16  C   UNL     1      45.574   7.416  12.836  0.00  0.00    +0.000 C 
BRANCH  16  17
ATOM     17  C   UNL     1      44.785   6.288  12.220  0.00  0.00    +0.000 A 
ATOM     18  C   UNL     1      43.527   5.940  12.719  0.00  0.00    +0.000 A 
ATOM     19  C   UNL     1      42.844   4.852  12.187  0.00  0.00    +0.000 A 
ATOM     20  C   UNL     1      43.408   4.107  11.147  0.00  0.00    +0.000 A 
ATOM     21  C   UNL     1      44.661   4.437  10.602  0.00  0.00    +0.000 A 
ATOM     22  C   UNL     1      45.337   5.534  11.168  0.00  0.00    +0.000 A 
BRANCH  21  23
ATOM     23  C   UNL     1      45.239   3.685   9.468  0.00  0.00    +0.000 A 
ATOM     24  C   UNL     1      45.792   4.318   8.344  0.00  0.00    +0.000 A 
ATOM     25  C   UNL     1      46.291   3.569   7.276  0.00  0.00    +0.000 A 
ATOM     26  C   UNL     1      46.239   2.191   7.361  0.00  0.00    +0.000 A 
ATOM     27  N   UNL     1      45.730   1.529   8.416  0.00  0.00    +0.000 NA
ATOM     28  C   UNL     1      45.242   2.288   9.431  0.00  0.00    +0.000 A 
ENDBRANCH  21  23
ENDBRANCH  16  17
ENDBRANCH   1  16
TORSDOF 6
ENDMDL
MODEL 5
REMARK VINA RESULT:    -6.154      4.132      8.097
REMARK INTER + INTRA:          -9.378
REMARK INTER:                  -8.703
REMARK INTRA:                  -0.675
REMARK UNBOUND:                -1.066
REMARK  Name = 
REMARK  7 active torsions:
REMARK  status: ('A' for Active; 'I' for Inactive)
REMARK    1  A    between atoms: C_1  and  S_2
REMARK    2  A    between atoms: S_2  and  C_3
REMARK    3  A    between atoms: C_5  and  C_6
REMARK    4  A    between atoms: C_11  and  N_12
REMARK    5  A    between atoms: N_12  and  C_13
REMARK    6  A    between atoms: C_13  and  C_14
REMARK    7  A    between atoms: C_18  and  C_19
REMARK                            x       y       z     vdW  Elec       q    Type
REMARK                         _______ _______ _______ _____ _____    ______ ____
ROOT
ATOM      1  N   UNL     1      46.722   5.227  14.812  0.00  0.00    +0.000 N 
ATOM      2  H   UNL     1      47.586   5.766  14.894  0.00  0.00    +0.000 HD
ENDROOT
BRANCH   1   8
ATOM      3  C   UNL     1      46.613   6.162  12.544  0.00  0.00    +0.000 A 
ATOM      4  C   UNL     1      46.222   6.043  11.199  0.00  0.00    +0.000 A 
ATOM      5  C   UNL     1      45.560   4.897  10.737  0.00  0.00    +0.000 A 
ATOM      6  C   UNL     1      45.280   3.872  11.640  0.00  0.00    +0.000 A 
ATOM      7  C   UNL     1      45.663   3.989  12.980  0.00  0.00    +0.000 A 
ATOM      8  C   UNL     1      46.371   5.105  13.451  0.00  0.00    +0.000 A 
BRANCH   5   9
ATOM      9  C   UNL     1      45.178   4.829   9.297  0.00  0.00    +0.000 C 
ATOM     10  N   UNL     1      43.919   4.410   8.966  0.00  0.00    +0.000 N 
ATOM     11  O   UNL     1      45.970   5.138   8.411  0.00  0.00    +0.000 OA
ATOM     12  H   UNL     1      43.205   4.121   9.615  0.00  0.00    +0.000 HD
ATOM     13  H   UNL     1      43.701   4.372   7.979  0.00  0.00    +0.000 HD
ENDBRANCH   5   9
BRANCH   3  15
ATOM     14  C   UNL     1      49.228   7.087  12.654  0.00  0.00    +0.000 C 
ATOM     15  S   UNL     1      47.535   7.638  13.004  0.00  0.00    +0.000 S 
ENDBRANCH   3  15
ENDBRANCH   1   8
BRANCH   1  16
ATOM     16  C   UNL     1      46.784   4.001  15.601  0.00  0.00    +0.000 C 
BRANCH  16  17
ATOM     17  C   UNL     1      47.758   4.163  16.742  0.00  0.00    +0.000 A 
ATOM     18  C   UNL     1      47.500   5.063  17.779  0.00  0.00    +0.000 A 
ATOM     19  C   UNL     1      48.440   5.252  18.787  0.00  0.00    +0.000 A 
ATOM     20  C   UNL     1      49.642   4.538  18.770  0.00  0.00    +0.000 A 
ATOM     21  C   UNL     1      49.931   3.607  17.756  0.00  0.00    +0.000 A 
ATOM     22  C   UNL     1      48.968   3.445  16.742  0.00  0.00    +0.000 A 
BRANCH  21  23
ATOM     23  C   UNL     1      51.177   2.812  17.761  0.00  0.00    +0.000 A 
ATOM     24  C   UNL     1      52.411   3.343  18.169  0.00  0.00    +0.000 A 
ATOM     25  C   UNL     1      53.572   2.569  18.120  0.00  0.00    +0.000 A 
ATOM     26  C   UNL     1      53.473   1.264  17.675  0.00  0.00    +0.000 A 
ATOM     27  N   UNL     1      52.316   0.699  17.282  0.00  0.00    +0.000 NA
ATOM     28  C   UNL     1      51.210   1.484  17.330  0.00  0.00    +0.000 A 
ENDBRANCH  21  23
ENDBRANCH  16  17
ENDBRANCH   1  16
TORSDOF 6
ENDMDL
MODEL 6
REMARK VINA RESULT:    -6.067      2.313      2.750
REMARK INTER + INTRA:          -9.261
REMARK INTER:                  -8.603
REMARK INTRA:                  -0.658
REMARK UNBOUND:                -1.066
REMARK  Name = 
REMARK  7 active torsions:
REMARK  status: ('A' for Active; 'I' for Inactive)
REMARK    1  A    between atoms: C_1  and  S_2
REMARK    2  A    between atoms: S_2  and  C_3
REMARK    3  A    between atoms: C_5  and  C_6
REMARK    4  A    between atoms: C_11  and  N_12
REMARK    5  A    between atoms: N_12  and  C_13
REMARK    6  A    between atoms: C_13  and  C_14
REMARK    7  A    between atoms: C_18  and  C_19
REMARK                            x       y       z     vdW  Elec       q    Type
REMARK                         _______ _______ _______ _____ _____    ______ ____
ROOT
ATOM      1  N   UNL     1      46.563   4.617  14.017  0.00  0.00    +0.000 N 
ATOM      2  H   UNL     1      46.999   3.871  13.471  0.00  0.00    +0.000 HD
ENDROOT
BRANCH   1   8
ATOM      3  C   UNL     1      47.962   5.272  15.925  0.00  0.00    +0.000 A 
ATOM      4  C   UNL     1      48.933   6.121  16.485  0.00  0.00    +0.000 A 
ATOM      5  C   UNL     1      49.503   7.160  15.736  0.00  0.00    +0.000 A 
ATOM      6  C   UNL     1      49.080   7.351  14.421  0.00  0.00    +0.000 A 
ATOM      7  C   UNL     1      48.110   6.512  13.862  0.00  0.00    +0.000 A 
ATOM      8  C   UNL     1      47.565   5.435  14.579  0.00  0.00    +0.000 A 
BRANCH   5   9
ATOM      9  C   UNL     1      50.533   8.020  16.385  0.00  0.00    +0.000 C 
ATOM     10  N   UNL     1      50.377   9.379  16.350  0.00  0.00    +0.000 N 
ATOM     11  O   UNL     1      51.512   7.534  16.943  0.00  0.00    +0.000 OA
ATOM     12  H   UNL     1      49.621   9.874  15.905  0.00  0.00    +0.000 HD
ATOM     13  H   UNL     1      51.100   9.928  16.795  0.00  0.00    +0.000 HD
ENDBRANCH   5   9
BRANCH   3  15
ATOM     14  C   UNL     1      48.940   3.132  17.398  0.00  0.00    +0.000 C 
ATOM     15  S   UNL     1      47.367   3.918  16.950  0.00  0.00    +0.000 S 
ENDBRANCH   3  15
ENDBRANCH   1   8
BRANCH   1  16
ATOM     16  C   UNL     1      45.502   5.277  13.263  0.00  0.00    +0.000 C 
BRANCH  16  17
ATOM     17  C   UNL     1      44.879   4.313  12.284  0.00  0.00    +0.000 A 
ATOM     18  C   UNL     1      43.715   3.613  12.613  0.00  0.00    +0.000 A 
ATOM     19  C   UNL     1      43.193   2.675  11.728  0.00  0.00    +0.000 A 
ATOM     20  C   UNL     1      43.825   2.434  10.504  0.00  0.00    +0.000 A 
ATOM     21  C   UNL     1      44.986   3.132  10.126  0.00  0.00    +0.000 A 
ATOM     22  C   UNL     1      45.500   4.065  11.046  0.00  0.00    +0.000 A 
BRANCH  21  23
ATOM     23  C   UNL     1      45.629   2.919   8.812  0.00  0.00    +0.000 A 
ATOM     24  C   UNL     1      46.081   1.660   8.388  0.00  0.00    +0.000 A 
ATOM     25  C   UNL     1      46.720   1.510   7.155  0.00  0.00    +0.000 A 
ATOM     26  C   UNL     1      46.881   2.628   6.359  0.00  0.00    +0.000 A 
ATOM     27  N   UNL     1      46.459   3.857   6.708  0.00  0.00    +0.000 NA
ATOM     28  C   UNL     1      45.854   3.970   7.919  0.00  0.00    +0.000 A 
ENDBRANCH  21  23
ENDBRANCH  16  17
ENDBRANCH   1  16
TORSDOF 6
ENDMDL
MODEL 7
REMARK VINA RESULT:    -6.005      2.364      3.014
REMARK INTER + INTRA:          -9.177
REMARK INTER:                  -8.353
REMARK INTRA:                  -0.824
REMARK UNBOUND:                -1.066
REMARK  Name = 
REMARK  7 active torsions:
REMARK  status: ('A' for Active; 'I' for Inactive)
REMARK    1  A    between atoms: C_1  and  S_2
REMARK    2  A    between atoms: S_2  and  C_3
REMARK    3  A    between atoms: C_5  and  C_6
REMARK    4  A    between atoms: C_11  and  N_12
REMARK    5  A    between atoms: N_12  and  C_13
REMARK    6  A    between atoms: C_13  and  C_14
REMARK    7  A    between atoms: C_18  and  C_19
REMARK                            x       y       z     vdW  Elec       q    Type
REMARK                         _______ _______ _______ _____ _____    ______ ____
ROOT
ATOM      1  N   UNL     1      47.173   7.038  11.672  0.00  0.00    +0.000 N 
ATOM      2  H   UNL     1      47.597   7.603  10.934  0.00  0.00    +0.000 HD
ENDROOT
BRANCH   1   8
ATOM      3  C   UNL     1      48.869   8.227  12.991  0.00  0.00    +0.000 A 
ATOM      4  C   UNL     1      49.616   8.356  14.175  0.00  0.00    +0.000 A 
ATOM      5  C   UNL     1      49.441   7.463  15.241  0.00  0.00    +0.000 A 
ATOM      6  C   UNL     1      48.519   6.427  15.106  0.00  0.00    +0.000 A 
ATOM      7  C   UNL     1      47.777   6.291  13.927  0.00  0.00    +0.000 A 
ATOM      8  C   UNL     1      47.901   7.204  12.868  0.00  0.00    +0.000 A 
BRANCH   5   9
ATOM      9  C   UNL     1      50.258   7.659  16.473  0.00  0.00    +0.000 C 
ATOM     10  N   UNL     1      51.554   7.220  16.483  0.00  0.00    +0.000 N 
ATOM     11  O   UNL     1      49.791   8.201  17.470  0.00  0.00    +0.000 OA
ATOM     12  H   UNL     1      52.023   6.751  15.725  0.00  0.00    +0.000 HD
ATOM     13  H   UNL     1      52.073   7.365  17.339  0.00  0.00    +0.000 HD
ENDBRANCH   5   9
BRANCH   3  15
ATOM     14  C   UNL     1      47.783  10.640  12.154  0.00  0.00    +0.000 C 
ATOM     15  S   UNL     1      49.113   9.483  11.725  0.00  0.00    +0.000 S 
ENDBRANCH   3  15
ENDBRANCH   1   8
BRANCH   1  16
ATOM     16  C   UNL     1      45.729   7.239  11.731  0.00  0.00    +0.000 C 
BRANCH  16  17
ATOM     17  C   UNL     1      45.010   6.044  11.156  0.00  0.00    +0.000 A 
ATOM     18  C   UNL     1      43.738   5.689  11.610  0.00  0.00    +0.000 A 
ATOM     19  C   UNL     1      43.118   4.543  11.121  0.00  0.00    +0.000 A 
ATOM     20  C   UNL     1      43.763   3.747  10.170  0.00  0.00    +0.000 A 
ATOM     21  C   UNL     1      45.034   4.081   9.671  0.00  0.00    +0.000 A 
ATOM     22  C   UNL     1      45.643   5.237  10.192  0.00  0.00    +0.000 A 
BRANCH  21  23
ATOM     23  C   UNL     1      45.697   3.271   8.627  0.00  0.00    +0.000 A 
ATOM     24  C   UNL     1      46.205   3.831   7.444  0.00  0.00    +0.000 A 
ATOM     25  C   UNL     1      46.789   3.025   6.466  0.00  0.00    +0.000 A 
ATOM     26  C   UNL     1      46.866   1.664   6.697  0.00  0.00    +0.000 A 
ATOM     27  N   UNL     1      46.406   1.072   7.815  0.00  0.00    +0.000 NA
ATOM     28  C   UNL     1      45.834   1.885   8.740  0.00  0.00    +0.000 A 
ENDBRANCH  21  23
ENDBRANCH  16  17
ENDBRANCH   1  16
TORSDOF 6
ENDMDL
MODEL 8
REMARK VINA RESULT:    -5.899      3.432      4.945
REMARK INTER + INTRA:          -9.033
REMARK INTER:                  -8.406
REMARK INTRA:                  -0.628
REMARK UNBOUND:                -1.066
REMARK  Name = 
REMARK  7 active torsions:
REMARK  status: ('A' for Active; 'I' for Inactive)
REMARK    1  A    between atoms: C_1  and  S_2
REMARK    2  A    between atoms: S_2  and  C_3
REMARK    3  A    between atoms: C_5  and  C_6
REMARK    4  A    between atoms: C_11  and  N_12
REMARK    5  A    between atoms: N_12  and  C_13
REMARK    6  A    between atoms: C_13  and  C_14
REMARK    7  A    between atoms: C_18  and  C_19
REMARK                            x       y       z     vdW  Elec       q    Type
REMARK                         _______ _______ _______ _____ _____    ______ ____
ROOT
ATOM      1  N   UNL     1      48.026   6.870  15.038  0.00  0.00    +0.000 N 
ATOM      2  H   UNL     1      47.262   6.194  14.994  0.00  0.00    +0.000 HD
ENDROOT
BRANCH   1   8
ATOM      3  C   UNL     1      48.858   5.264  16.699  0.00  0.00    +0.000 A 
ATOM      4  C   UNL     1      49.911   4.768  17.488  0.00  0.00    +0.000 A 
ATOM      5  C   UNL     1      51.189   5.342  17.432  0.00  0.00    +0.000 A 
ATOM      6  C   UNL     1      51.401   6.429  16.586  0.00  0.00    +0.000 A 
ATOM      7  C   UNL     1      50.355   6.928  15.802  0.00  0.00    +0.000 A 
ATOM      8  C   UNL     1      49.082   6.337  15.806  0.00  0.00    +0.000 A 
BRANCH   5   9
ATOM      9  C   UNL     1      52.264   4.765  18.289  0.00  0.00    +0.000 C 
ATOM     10  N   UNL     1      53.506   4.569  17.749  0.00  0.00    +0.000 N 
ATOM     11  O   UNL     1      52.054   4.462  19.460  0.00  0.00    +0.000 OA
ATOM     12  H   UNL     1      53.773   4.769  16.799  0.00  0.00    +0.000 HD
ATOM     13  H   UNL     1      54.205   4.170  18.360  0.00  0.00    +0.000 HD
ENDBRANCH   5   9
BRANCH   3  15
ATOM     14  C   UNL     1      47.824   2.818  17.507  0.00  0.00    +0.000 C 
ATOM     15  S   UNL     1      47.285   4.393  16.787  0.00  0.00    +0.000 S 
ENDBRANCH   3  15
ENDBRANCH   1   8
BRANCH   1  16
ATOM     16  C   UNL     1      48.355   7.388  13.714  0.00  0.00    +0.000 C 
BRANCH  16  17
ATOM     17  C   UNL     1      47.118   7.439  12.851  0.00  0.00    +0.000 A 
ATOM     18  C   UNL     1      46.298   8.570  12.844  0.00  0.00    +0.000 A 
ATOM     19  C   UNL     1      45.125   8.575  12.097  0.00  0.00    +0.000 A 
ATOM     20  C   UNL     1      44.764   7.451  11.347  0.00  0.00    +0.000 A 
ATOM     21  C   UNL     1      45.572   6.301  11.311  0.00  0.00    +0.000 A 
ATOM     22  C   UNL     1      46.747   6.318  12.085  0.00  0.00    +0.000 A 
BRANCH  21  23
ATOM     23  C   UNL     1      45.222   5.130  10.479  0.00  0.00    +0.000 A 
ATOM     24  C   UNL     1      45.710   4.956   9.175  0.00  0.00    +0.000 A 
ATOM     25  C   UNL     1      45.322   3.855   8.408  0.00  0.00    +0.000 A 
ATOM     26  C   UNL     1      44.457   2.935   8.972  0.00  0.00    +0.000 A 
ATOM     27  N   UNL     1      43.965   3.044  10.220  0.00  0.00    +0.000 NA
ATOM     28  C   UNL     1      44.353   4.133  10.932  0.00  0.00    +0.000 A 
ENDBRANCH  21  23
ENDBRANCH  16  17
ENDBRANCH   1  16
TORSDOF 6
ENDMDL
MODEL 9
REMARK VINA RESULT:    -5.861      4.207      6.911
REMARK INTER + INTRA:          -8.983
REMARK INTER:                  -8.016
REMARK INTRA:                  -0.966
REMARK UNBOUND:                -1.066
REMARK  Name = 
REMARK  7 active torsions:
REMARK  status: ('A' for Active; 'I' for Inactive)
REMARK    1  A    between atoms: C_1  and  S_2
REMARK    2  A    between atoms: S_2  and  C_3
REMARK    3  A    between atoms: C_5  and  C_6
REMARK    4  A    between atoms: C_11  and  N_12
REMARK    5  A    between atoms: N_12  and  C_13
REMARK    6  A    between atoms: C_13  and  C_14
REMARK    7  A    between atoms: C_18  and  C_19
REMARK                            x       y       z     vdW  Elec       q    Type
REMARK                         _______ _______ _______ _____ _____    ______ ____
ROOT
ATOM      1  N   UNL     1      49.484   7.030  16.925  0.00  0.00    +0.000 N 
ATOM      2  H   UNL     1      48.488   6.882  16.754  0.00  0.00    +0.000 HD
ENDROOT
BRANCH   1   8
ATOM      3  C   UNL     1      49.364   4.645  17.496  0.00  0.00    +0.000 A 
ATOM      4  C   UNL     1      50.010   3.421  17.742  0.00  0.00    +0.000 A 
ATOM      5  C   UNL     1      51.406   3.313  17.668  0.00  0.00    +0.000 A 
ATOM      6  C   UNL     1      52.153   4.448  17.357  0.00  0.00    +0.000 A 
ATOM      7  C   UNL     1      51.514   5.669  17.116  0.00  0.00    +0.000 A 
ATOM      8  C   UNL     1      50.115   5.787  17.136  0.00  0.00    +0.000 A 
BRANCH   5   9
ATOM      9  C   UNL     1      52.030   1.985  17.932  0.00  0.00    +0.000 C 
ATOM     10  N   UNL     1      51.491   0.873  17.345  0.00  0.00    +0.000 N 
ATOM     11  O   UNL     1      53.009   1.873  18.665  0.00  0.00    +0.000 OA
ATOM     12  H   UNL     1      50.683   0.857  16.744  0.00  0.00    +0.000 HD
ATOM     13  H   UNL     1      51.939  -0.010  17.555  0.00  0.00    +0.000 HD
ENDBRANCH   5   9
BRANCH   3  15
ATOM     14  C   UNL     1      47.238   2.861  17.512  0.00  0.00    +0.000 C 
ATOM     15  S   UNL     1      47.564   4.645  17.532  0.00  0.00    +0.000 S 
ENDBRANCH   3  15
ENDBRANCH   1   8
BRANCH   1  16
ATOM     16  C   UNL     1      50.068   7.919  15.926  0.00  0.00    +0.000 C 
BRANCH  16  17
ATOM     17  C   UNL     1      49.528   7.592  14.556  0.00  0.00    +0.000 A 
ATOM     18  C   UNL     1      50.211   7.993  13.405  0.00  0.00    +0.000 A 
ATOM     19  C   UNL     1      49.664   7.747  12.150  0.00  0.00    +0.000 A 
ATOM     20  C   UNL     1      48.434   7.092  12.035  0.00  0.00    +0.000 A 
ATOM     21  C   UNL     1      47.725   6.654  13.167  0.00  0.00    +0.000 A 
ATOM     22  C   UNL     1      48.294   6.928  14.424  0.00  0.00    +0.000 A 
BRANCH  21  23
ATOM     23  C   UNL     1      46.449   5.917  13.049  0.00  0.00    +0.000 A 
ATOM     24  C   UNL     1      45.336   6.435  12.369  0.00  0.00    +0.000 A 
ATOM     25  C   UNL     1      44.137   5.722  12.316  0.00  0.00    +0.000 A 
ATOM     26  C   UNL     1      44.079   4.488  12.937  0.00  0.00    +0.000 A 
ATOM     27  N   UNL     1      45.116   3.936  13.593  0.00  0.00    +0.000 NA
ATOM     28  C   UNL     1      46.262   4.662  13.636  0.00  0.00    +0.000 A 
ENDBRANCH  21  23
ENDBRANCH  16  17
ENDBRANCH   1  16
TORSDOF 6
ENDMDL
