MODEL 1
REMARK VINA RESULT:    -7.058      0.000      0.000
REMARK INTER + INTRA:         -11.308
REMARK INTER:                  -9.946
REMARK INTRA:                  -1.363
REMARK UNBOUND:                -1.363
REMARK  Name = 
REMARK  7 active torsions:
REMARK  status: ('A' for Active; 'I' for Inactive)
REMARK    1  A    between atoms: C_2  and  C_3
REMARK    2  A    between atoms: C_6  and  C_7
REMARK    3  A    between atoms: N_9  and  C_10
REMARK    4  A    between atoms: C_10  and  C_11
REMARK    5  A    between atoms: C_14  and  C_15
REMARK    6  A    between atoms: C_15  and  N_16
REMARK    7  A    between atoms: C_17  and  C_19
REMARK                            x       y       z     vdW  Elec       q    Type
REMARK                         _______ _______ _______ _____ _____    ______ ____
ROOT
ATOM      1  C   UNL     1      50.284   7.694  14.966  0.00  0.00    +0.000 A 
ATOM      2  C   UNL     1      50.575   8.446  13.820  0.00  0.00    +0.000 A 
ATOM      3  C   UNL     1      49.692   8.464  12.733  0.00  0.00    +0.000 A 
ATOM      4  C   UNL     1      48.488   7.747  12.779  0.00  0.00    +0.000 A 
ATOM      5  C   UNL     1      48.207   6.984  13.921  0.00  0.00    +0.000 A 
ATOM      6  C   UNL     1      49.086   6.972  15.009  0.00  0.00    +0.000 A 
ENDROOT
BRANCH   1   7
ATOM      7  C   UNL     1      51.241   7.661  16.126  0.00  0.00    +0.000 C 
BRANCH   7  10
ATOM      8  C   UNL     1      51.744   5.619  17.358  0.00  0.00    +0.000 C 
ATOM      9  O   UNL     1      52.815   5.492  16.770  0.00  0.00    +0.000 OA
ATOM     10  N   UNL     1      50.885   6.662  17.106  0.00  0.00    +0.000 N 
ATOM     11  H   UNL     1      49.966   6.694  17.528  0.00  0.00    +0.000 HD
BRANCH   8  15
ATOM     12  C   UNL     1      49.324   3.701  17.347  0.00  0.00    +0.000 C 
ATOM     13  C   UNL     1      50.387   2.600  17.337  0.00  0.00    +0.000 C 
ATOM     14  C   UNL     1      51.617   3.178  18.047  0.00  0.00    +0.000 C 
ATOM     15  C   UNL     1      51.263   4.623  18.411  0.00  0.00    +0.000 C 
ATOM     16  C   UNL     1      49.734   4.599  18.512  0.00  0.00    +0.000 C 
BRANCH  12  18
ATOM     17  N   UNL     1      46.771   2.645  17.672  0.00  0.00    +0.000 NA
ATOM     18  C   UNL     1      47.929   3.123  17.524  0.00  0.00    +0.000 C 
ENDBRANCH  12  18
ENDBRANCH   8  15
ENDBRANCH   7  10
ENDBRANCH   1   7
BRANCH   4  19
ATOM     19  C   UNL     1      47.506   7.784  11.632  0.00  0.00    +0.000 C 
BRANCH  19  20
ATOM     20  N   UNL     1      46.814   6.532  11.472  0.00  0.00    +0.000 N 
ATOM     21  C   UNL     1      45.444   6.455  11.527  0.00  0.00    +0.000 C 
ATOM     22  O   UNL     1      44.735   7.447  11.675  0.00  0.00    +0.000 OA
ATOM     23  H   UNL     1      47.356   5.689  11.633  0.00  0.00    +0.000 HD
BRANCH  21  24
ATOM     24  C   UNL     1      44.865   5.118  11.336  0.00  0.00    +0.000 A 
ATOM     25  C   UNL     1      44.128   4.523  12.352  0.00  0.00    +0.000 A 
ATOM     26  S   UNL     1      43.502   2.990  11.931  0.00  0.00    +0.000 S 
ATOM     27  C   UNL     1      44.237   3.053  10.393  0.00  0.00    +0.000 A 
ATOM     28  N   UNL     1      44.116   2.021   9.519  0.00  0.00    +0.000 NA
ATOM     29  C   UNL     1      44.736   2.194   8.400  0.00  0.00    +0.000 A 
ATOM     30  N   UNL     1      45.460   3.312   8.075  0.00  0.00    +0.000 N 
ATOM     31  C   UNL     1      45.589   4.388   8.918  0.00  0.00    +0.000 A 
ATOM     32  O   UNL     1      46.206   5.393   8.578  0.00  0.00    +0.000 OA
ATOM     33  C   UNL     1      44.922   4.234  10.197  0.00  0.00    +0.000 A 
ATOM     34  H   UNL     1      45.909   3.399   7.175  0.00  0.00    +0.000 HD
ENDBRANCH  21  24
ENDBRANCH  19  20
ENDBRANCH   4  19
TORSDOF 7
ENDMDL
MODEL 2
REMARK VINA RESULT:    -6.822      3.525      5.128
REMARK INTER + INTRA:         -10.977
REMARK INTER:                  -9.832
REMARK INTRA:                  -1.145
REMARK UNBOUND:                -1.363
REMARK  Name = 
REMARK  7 active torsions:
REMARK  status: ('A' for Active; 'I' for Inactive)
REMARK    1  A    between atoms: C_2  and  C_3
REMARK    2  A    between atoms: C_6  and  C_7
REMARK    3  A    between atoms: N_9  and  C_10
REMARK    4  A    between atoms: C_10  and  C_11
REMARK    5  A    between atoms: C_14  and  C_15
REMARK    6  A    between atoms: C_15  and  N_16
REMARK    7  A    between atoms: C_17  and  C_19
REMARK                            x       y       z     vdW  Elec       q    Type
REMARK                         _______ _______ _______ _____ _____    ______ ____
ROOT
ATOM      1  C   UNL     1      51.426   4.482  17.748  0.00  0.00    +0.000 A 
ATOM      2  C   UNL     1      50.513   5.493  17.421  0.00  0.00    +0.000 A 
ATOM      3  C   UNL     1      49.203   5.178  17.040  0.00  0.00    +0.000 A 
ATOM      4  C   UNL     1      48.772   3.845  16.999  0.00  0.00    +0.000 A 
ATOM      5  C   UNL     1      49.692   2.835  17.313  0.00  0.00    +0.000 A 
ATOM      6  C   UNL     1      50.998   3.150  17.700  0.00  0.00    +0.000 A 
ENDROOT
BRANCH   1   7
ATOM      7  C   UNL     1      52.838   4.820  18.140  0.00  0.00    +0.000 C 
BRANCH   7  10
ATOM      8  C   UNL     1      54.362   3.009  18.725  0.00  0.00    +0.000 C 
ATOM      9  O   UNL     1      54.124   3.155  19.921  0.00  0.00    +0.000 OA
ATOM     10  N   UNL     1      53.777   3.791  17.758  0.00  0.00    +0.000 N 
ATOM     11  H   UNL     1      54.061   3.721  16.789  0.00  0.00    +0.000 HD
BRANCH   8  15
ATOM     12  C   UNL     1      54.049  -0.049  18.439  0.00  0.00    +0.000 C 
ATOM     13  C   UNL     1      54.141   0.233  16.937  0.00  0.00    +0.000 C 
ATOM     14  C   UNL     1      54.993   1.497  16.785  0.00  0.00    +0.000 C 
ATOM     15  C   UNL     1      55.339   1.957  18.204  0.00  0.00    +0.000 C 
ATOM     16  C   UNL     1      55.267   0.663  19.022  0.00  0.00    +0.000 C 
BRANCH  12  18
ATOM     17  N   UNL     1      54.067  -2.781  18.962  0.00  0.00    +0.000 NA
ATOM     18  C   UNL     1      54.059  -1.542  18.725  0.00  0.00    +0.000 C 
ENDBRANCH  12  18
ENDBRANCH   8  15
ENDBRANCH   7  10
ENDBRANCH   1   7
BRANCH   4  19
ATOM     19  C   UNL     1      47.352   3.488  16.628  0.00  0.00    +0.000 C 
BRANCH  19  20
ATOM     20  N   UNL     1      46.786   4.426  15.694  0.00  0.00    +0.000 N 
ATOM     21  C   UNL     1      46.773   4.178  14.343  0.00  0.00    +0.000 C 
ATOM     22  O   UNL     1      47.204   3.134  13.862  0.00  0.00    +0.000 OA
ATOM     23  H   UNL     1      46.689   5.384  16.015  0.00  0.00    +0.000 HD
BRANCH  21  24
ATOM     24  C   UNL     1      46.154   5.213  13.504  0.00  0.00    +0.000 A 
ATOM     25  C   UNL     1      46.807   6.420  13.285  0.00  0.00    +0.000 A 
ATOM     26  S   UNL     1      45.952   7.478  12.251  0.00  0.00    +0.000 S 
ATOM     27  C   UNL     1      44.660   6.375  12.101  0.00  0.00    +0.000 A 
ATOM     28  N   UNL     1      43.565   6.680  11.358  0.00  0.00    +0.000 NA
ATOM     29  C   UNL     1      42.657   5.761  11.345  0.00  0.00    +0.000 A 
ATOM     30  N   UNL     1      42.751   4.562  12.004  0.00  0.00    +0.000 N 
ATOM     31  C   UNL     1      43.850   4.203  12.746  0.00  0.00    +0.000 A 
ATOM     32  O   UNL     1      43.922   3.103  13.284  0.00  0.00    +0.000 OA
ATOM     33  C   UNL     1      44.891   5.211  12.804  0.00  0.00    +0.000 A 
ATOM     34  H   UNL     1      42.016   3.874  11.941  0.00  0.00    +0.000 HD
ENDBRANCH  21  24
ENDBRANCH  19  20
ENDBRANCH   4  19
TORSDOF 7
ENDMDL
MODEL 3
REMARK VINA RESULT:    -6.751      3.245      9.423
REMARK INTER + INTRA:         -10.876
REMARK INTER:                 -10.285
REMARK INTRA:                  -0.591
REMARK UNBOUND:                -1.363
REMARK  Name = 
REMARK  7 active torsions:
REMARK  status: ('A' for Active; 'I' for Inactive)
REMARK    1  A    between atoms: C_2  and  C_3
REMARK    2  A    between atoms: C_6  and  C_7
REMARK    3  A    between atoms: N_9  and  C_10
REMARK    4  A    between atoms: C_10  and  C_11
REMARK    5  A    between atoms: C_14  and  C_15
REMARK    6  A    between atoms: C_15  and  N_16
REMARK    7  A    between atoms: C_17  and  C_19
REMARK                            x       y       z     vdW  Elec       q    Type
REMARK                         _______ _______ _______ _____ _____    ______ ____
ROOT
ATOM      1  C   UNL     1      45.024   5.907  11.692  0.00  0.00    +0.000 A 
ATOM      2  C   UNL     1      45.261   4.872  12.605  0.00  0.00    +0.000 A 
ATOM      3  C   UNL     1      46.409   4.875  13.409  0.00  0.00    +0.000 A 
ATOM      4  C   UNL     1      47.332   5.926  13.330  0.00  0.00    +0.000 A 
ATOM      5  C   UNL     1      47.099   6.953  12.404  0.00  0.00    +0.000 A 
ATOM      6  C   UNL     1      45.950   6.953  11.608  0.00  0.00    +0.000 A 
ENDROOT
BRANCH   1   7
ATOM      7  C   UNL     1      43.800   5.894  10.818  0.00  0.00    +0.000 C 
BRANCH   7  10
ATOM      8  C   UNL     1      44.663   4.525   8.995  0.00  0.00    +0.000 C 
ATOM      9  O   UNL     1      45.564   5.330   8.777  0.00  0.00    +0.000 OA
ATOM     10  N   UNL     1      43.730   4.715   9.986  0.00  0.00    +0.000 N 
ATOM     11  H   UNL     1      42.940   4.091  10.085  0.00  0.00    +0.000 HD
BRANCH   8  15
ATOM     12  C   UNL     1      46.758   2.739   7.595  0.00  0.00    +0.000 C 
ATOM     13  C   UNL     1      46.332   1.690   8.625  0.00  0.00    +0.000 C 
ATOM     14  C   UNL     1      44.871   1.994   8.975  0.00  0.00    +0.000 C 
ATOM     15  C   UNL     1      44.490   3.246   8.179  0.00  0.00    +0.000 C 
ATOM     16  C   UNL     1      45.441   3.206   6.979  0.00  0.00    +0.000 C 
BRANCH  12  18
ATOM     17  N   UNL     1      48.491   1.661   5.706  0.00  0.00    +0.000 NA
ATOM     18  C   UNL     1      47.705   2.150   6.562  0.00  0.00    +0.000 C 
ENDBRANCH  12  18
ENDBRANCH   8  15
ENDBRANCH   7  10
ENDBRANCH   1   7
BRANCH   4  19
ATOM     19  C   UNL     1      48.556   5.966  14.214  0.00  0.00    +0.000 C 
BRANCH  19  20
ATOM     20  N   UNL     1      48.250   6.440  15.539  0.00  0.00    +0.000 N 
ATOM     21  C   UNL     1      49.116   7.252  16.230  0.00  0.00    +0.000 C 
ATOM     22  O   UNL     1      50.172   7.650  15.746  0.00  0.00    +0.000 OA
ATOM     23  H   UNL     1      47.552   5.918  16.058  0.00  0.00    +0.000 HD
BRANCH  21  24
ATOM     24  C   UNL     1      48.676   7.673  17.567  0.00  0.00    +0.000 A 
ATOM     25  C   UNL     1      48.580   9.023  17.880  0.00  0.00    +0.000 A 
ATOM     26  S   UNL     1      48.013   9.315  19.465  0.00  0.00    +0.000 S 
ATOM     27  C   UNL     1      47.923   7.645  19.799  0.00  0.00    +0.000 A 
ATOM     28  N   UNL     1      47.526   7.198  21.018  0.00  0.00    +0.000 NA
ATOM     29  C   UNL     1      47.520   5.913  21.138  0.00  0.00    +0.000 A 
ATOM     30  N   UNL     1      47.869   5.035  20.145  0.00  0.00    +0.000 N 
ATOM     31  C   UNL     1      48.254   5.443  18.891  0.00  0.00    +0.000 A 
ATOM     32  O   UNL     1      48.515   4.629  18.010  0.00  0.00    +0.000 OA
ATOM     33  C   UNL     1      48.292   6.881  18.712  0.00  0.00    +0.000 A 
ATOM     34  H   UNL     1      47.827   4.037  20.292  0.00  0.00    +0.000 HD
ENDBRANCH  21  24
ENDBRANCH  19  20
ENDBRANCH   4  19
TORSDOF 7
ENDMDL
MODEL 4
REMARK VINA RESULT:    -6.604      4.936      8.407
REMARK INTER + INTRA:         -10.669
REMARK INTER:                  -9.591
REMARK INTRA:                  -1.077
REMARK UNBOUND:                -1.363
REMARK  Name = 
REMARK  7 active torsions:
REMARK  status: ('A' for Active; 'I' for Inactive)
REMARK    1  A    between atoms: C_2  and  C_3
REMARK    2  A    between atoms: C_6  and  C_7
REMARK    3  A    between atoms: N_9  and  C_10
REMARK    4  A    between atoms: C_10  and  C_11
REMARK    5  A    between atoms: C_14  and  C_15
REMARK    6  A    between atoms: C_15  and  N_16
REMARK    7  A    between atoms: C_17  and  C_19
REMARK                            x       y       z     vdW  Elec       q    Type
REMARK                         _______ _______ _______ _____ _____    ______ ____
ROOT
ATOM      1  C   UNL     1      46.991   6.408  12.819  0.00  0.00    +0.000 A 
ATOM      2  C   UNL     1      48.042   6.469  13.743  0.00  0.00    +0.000 A 
ATOM      3  C   UNL     1      49.255   7.084  13.407  0.00  0.00    +0.000 A 
ATOM      4  C   UNL     1      49.434   7.669  12.146  0.00  0.00    +0.000 A 
ATOM      5  C   UNL     1      48.384   7.593  11.219  0.00  0.00    +0.000 A 
ATOM      6  C   UNL     1      47.172   6.985  11.557  0.00  0.00    +0.000 A 
ENDROOT
BRANCH   1   7
ATOM      7  C   UNL     1      45.695   5.732  13.175  0.00  0.00    +0.000 C 
BRANCH   7  10
ATOM      8  C   UNL     1      44.946   4.008  11.622  0.00  0.00    +0.000 C 
ATOM      9  O   UNL     1      45.572   3.145  12.232  0.00  0.00    +0.000 OA
ATOM     10  N   UNL     1      44.947   5.327  12.007  0.00  0.00    +0.000 N 
ATOM     11  H   UNL     1      44.506   6.037  11.437  0.00  0.00    +0.000 HD
BRANCH   8  15
ATOM     12  C   UNL     1      45.839   3.400   8.730  0.00  0.00    +0.000 C 
ATOM     13  C   UNL     1      45.256   2.011   9.000  0.00  0.00    +0.000 C 
ATOM     14  C   UNL     1      44.135   2.205  10.028  0.00  0.00    +0.000 C 
ATOM     15  C   UNL     1      44.122   3.697  10.375  0.00  0.00    +0.000 C 
ATOM     16  C   UNL     1      44.716   4.355   9.125  0.00  0.00    +0.000 C 
BRANCH  12  18
ATOM     17  N   UNL     1      46.584   3.686   6.065  0.00  0.00    +0.000 NA
ATOM     18  C   UNL     1      46.247   3.557   7.273  0.00  0.00    +0.000 C 
ENDBRANCH  12  18
ENDBRANCH   8  15
ENDBRANCH   7  10
ENDBRANCH   1   7
BRANCH   4  19
ATOM     19  C   UNL     1      50.720   8.370  11.779  0.00  0.00    +0.000 C 
BRANCH  19  20
ATOM     20  N   UNL     1      51.737   7.444  11.354  0.00  0.00    +0.000 N 
ATOM     21  C   UNL     1      52.522   7.692  10.253  0.00  0.00    +0.000 C 
ATOM     22  O   UNL     1      52.428   8.727   9.599  0.00  0.00    +0.000 OA
ATOM     23  H   UNL     1      51.649   6.488  11.683  0.00  0.00    +0.000 HD
BRANCH  21  24
ATOM     24  C   UNL     1      53.529   6.671   9.936  0.00  0.00    +0.000 A 
ATOM     25  C   UNL     1      54.520   6.355  10.857  0.00  0.00    +0.000 A 
ATOM     26  S   UNL     1      55.572   5.119  10.328  0.00  0.00    +0.000 S 
ATOM     27  C   UNL     1      54.765   4.998   8.831  0.00  0.00    +0.000 A 
ATOM     28  N   UNL     1      55.186   4.125   7.879  0.00  0.00    +0.000 NA
ATOM     29  C   UNL     1      54.494   4.150   6.789  0.00  0.00    +0.000 A 
ATOM     30  N   UNL     1      53.415   4.967   6.570  0.00  0.00    +0.000 N 
ATOM     31  C   UNL     1      52.941   5.846   7.512  0.00  0.00    +0.000 A 
ATOM     32  O   UNL     1      51.944   6.529   7.300  0.00  0.00    +0.000 OA
ATOM     33  C   UNL     1      53.696   5.866   8.749  0.00  0.00    +0.000 A 
ATOM     34  H   UNL     1      52.901   4.928   5.702  0.00  0.00    +0.000 HD
ENDBRANCH  21  24
ENDBRANCH  19  20
ENDBRANCH   4  19
TORSDOF 7
ENDMDL
MODEL 5
REMARK VINA RESULT:    -6.468      2.851      5.274
REMARK INTER + INTRA:         -10.478
REMARK INTER:                  -9.188
REMARK INTRA:                  -1.290
REMARK UNBOUND:                -1.363
REMARK  Name = 
REMARK  7 active torsions:
REMARK  status: ('A' for Active; 'I' for Inactive)
REMARK    1  A    between atoms: C_2  and  C_3
REMARK    2  A    between atoms: C_6  and  C_7
REMARK    3  A    between atoms: N_9  and  C_10
REMARK    4  A    between atoms: C_10  and  C_11
REMARK    5  A    between atoms: C_14  and  C_15
REMARK    6  A    between atoms: C_15  and  N_16
REMARK    7  A    between atoms: C_17  and  C_19
REMARK                            x       y       z     vdW  Elec       q    Type
REMARK                         _______ _______ _______ _____ _____    ______ ____
ROOT
ATOM      1  C   UNL     1      51.377   4.085  17.666  0.00  0.00    +0.000 A 
ATOM      2  C   UNL     1      50.908   2.782  17.459  0.00  0.00    +0.000 A 
ATOM      3  C   UNL     1      49.558   2.545  17.165  0.00  0.00    +0.000 A 
ATOM      4  C   UNL     1      48.655   3.611  17.052  0.00  0.00    +0.000 A 
ATOM      5  C   UNL     1      49.125   4.913  17.275  0.00  0.00    +0.000 A 
ATOM      6  C   UNL     1      50.473   5.149  17.561  0.00  0.00    +0.000 A 
ENDROOT
BRANCH   1   7
ATOM      7  C   UNL     1      52.822   4.337  17.999  0.00  0.00    +0.000 C 
BRANCH   7  10
ATOM      8  C   UNL     1      53.671   6.569  17.507  0.00  0.00    +0.000 C 
ATOM      9  O   UNL     1      53.363   6.966  18.627  0.00  0.00    +0.000 OA
ATOM     10  N   UNL     1      53.439   5.278  17.094  0.00  0.00    +0.000 N 
ATOM     11  H   UNL     1      53.610   4.998  16.136  0.00  0.00    +0.000 HD
BRANCH   8  15
ATOM     12  C   UNL     1      52.439   8.126  15.142  0.00  0.00    +0.000 C 
ATOM     13  C   UNL     1      52.860   9.366  15.934  0.00  0.00    +0.000 C 
ATOM     14  C   UNL     1      54.087   8.959  16.757  0.00  0.00    +0.000 C 
ATOM     15  C   UNL     1      54.327   7.474  16.467  0.00  0.00    +0.000 C 
ATOM     16  C   UNL     1      53.710   7.282  15.077  0.00  0.00    +0.000 C 
BRANCH  12  18
ATOM     17  N   UNL     1      51.491   8.806  12.617  0.00  0.00    +0.000 NA
ATOM     18  C   UNL     1      51.921   8.498  13.762  0.00  0.00    +0.000 C 
ENDBRANCH  12  18
ENDBRANCH   8  15
ENDBRANCH   7  10
ENDBRANCH   1   7
BRANCH   4  19
ATOM     19  C   UNL     1      47.205   3.378  16.699  0.00  0.00    +0.000 C 
BRANCH  19  20
ATOM     20  N   UNL     1      46.717   4.348  15.753  0.00  0.00    +0.000 N 
ATOM     21  C   UNL     1      46.767   4.120  14.399  0.00  0.00    +0.000 C 
ATOM     22  O   UNL     1      47.189   3.069  13.925  0.00  0.00    +0.000 OA
ATOM     23  H   UNL     1      46.634   5.304  16.084  0.00  0.00    +0.000 HD
BRANCH  21  24
ATOM     24  C   UNL     1      46.225   5.186  13.546  0.00  0.00    +0.000 A 
ATOM     25  C   UNL     1      46.957   6.346  13.324  0.00  0.00    +0.000 A 
ATOM     26  S   UNL     1      46.183   7.449  12.275  0.00  0.00    +0.000 S 
ATOM     27  C   UNL     1      44.823   6.432  12.120  0.00  0.00    +0.000 A 
ATOM     28  N   UNL     1      43.757   6.802  11.364  0.00  0.00    +0.000 NA
ATOM     29  C   UNL     1      42.792   5.945  11.349  0.00  0.00    +0.000 A 
ATOM     30  N   UNL     1      42.801   4.748  12.018  0.00  0.00    +0.000 N 
ATOM     31  C   UNL     1      43.866   4.323  12.773  0.00  0.00    +0.000 A 
ATOM     32  O   UNL     1      43.861   3.225  13.320  0.00  0.00    +0.000 OA
ATOM     33  C   UNL     1      44.971   5.261  12.834  0.00  0.00    +0.000 A 
ATOM     34  H   UNL     1      42.022   4.108  11.953  0.00  0.00    +0.000 HD
ENDBRANCH  21  24
ENDBRANCH  19  20
ENDBRANCH   4  19
TORSDOF 7
ENDMDL
MODEL 6
REMARK VINA RESULT:    -6.383      3.271      5.851
REMARK INTER + INTRA:         -10.358
REMARK INTER:                  -8.355
REMARK INTRA:                  -2.003
REMARK UNBOUND:                -1.363
REMARK  Name = 
REMARK  7 active torsions:
REMARK  status: ('A' for Active; 'I' for Inactive)
REMARK    1  A    between atoms: C_2  and  C_3
REMARK    2  A    between atoms: C_6  and  C_7
REMARK    3  A    between atoms: N_9  and  C_10
REMARK    4  A    between atoms: C_10  and  C_11
REMARK    5  A    between atoms: C_14  and  C_15
REMARK    6  A    between atoms: C_15  and  N_16
REMARK    7  A    between atoms: C_17  and  C_19
REMARK                            x       y       z     vdW  Elec       q    Type
REMARK                         _______ _______ _______ _____ _____    ______ ____
ROOT
ATOM      1  C   UNL     1      51.616   3.407  17.776  0.00  0.00    +0.000 A 
ATOM      2  C   UNL     1      51.007   2.232  17.317  0.00  0.00    +0.000 A 
ATOM      3  C   UNL     1      49.626   2.185  17.086  0.00  0.00    +0.000 A 
ATOM      4  C   UNL     1      48.830   3.321  17.289  0.00  0.00    +0.000 A 
ATOM      5  C   UNL     1      49.441   4.491  17.763  0.00  0.00    +0.000 A 
ATOM      6  C   UNL     1      50.820   4.538  17.987  0.00  0.00    +0.000 A 
ENDROOT
BRANCH   1   7
ATOM      7  C   UNL     1      53.096   3.451  18.041  0.00  0.00    +0.000 C 
BRANCH   7  10
ATOM      8  C   UNL     1      54.207   5.616  17.895  0.00  0.00    +0.000 C 
ATOM      9  O   UNL     1      54.051   5.811  19.097  0.00  0.00    +0.000 OA
ATOM     10  N   UNL     1      53.764   4.475  17.270  0.00  0.00    +0.000 N 
ATOM     11  H   UNL     1      53.814   4.377  16.265  0.00  0.00    +0.000 HD
BRANCH   8  15
ATOM     12  C   UNL     1      53.031   7.540  15.786  0.00  0.00    +0.000 C 
ATOM     13  C   UNL     1      53.512   8.638  16.737  0.00  0.00    +0.000 C 
ATOM     14  C   UNL     1      54.726   8.067  17.479  0.00  0.00    +0.000 C 
ATOM     15  C   UNL     1      54.896   6.628  16.982  0.00  0.00    +0.000 C 
ATOM     16  C   UNL     1      54.261   6.658  15.588  0.00  0.00    +0.000 C 
BRANCH  12  18
ATOM     17  N   UNL     1      52.095   8.607  13.393  0.00  0.00    +0.000 NA
ATOM     18  C   UNL     1      52.520   8.124  14.478  0.00  0.00    +0.000 C 
ENDBRANCH  12  18
ENDBRANCH   8  15
ENDBRANCH   7  10
ENDBRANCH   1   7
BRANCH   4  19
ATOM     19  C   UNL     1      47.346   3.301  17.009  0.00  0.00    +0.000 C 
BRANCH  19  20
ATOM     20  N   UNL     1      46.958   4.327  16.077  0.00  0.00    +0.000 N 
ATOM     21  C   UNL     1      47.020   4.126  14.719  0.00  0.00    +0.000 C 
ATOM     22  O   UNL     1      47.368   3.055  14.228  0.00  0.00    +0.000 OA
ATOM     23  H   UNL     1      46.944   5.279  16.428  0.00  0.00    +0.000 HD
BRANCH  21  24
ATOM     24  C   UNL     1      46.584   5.250  13.880  0.00  0.00    +0.000 A 
ATOM     25  C   UNL     1      45.351   5.210  13.241  0.00  0.00    +0.000 A 
ATOM     26  S   UNL     1      45.002   6.623  12.346  0.00  0.00    +0.000 S 
ATOM     27  C   UNL     1      46.508   7.315  12.747  0.00  0.00    +0.000 A 
ATOM     28  N   UNL     1      46.864   8.536  12.272  0.00  0.00    +0.000 NA
ATOM     29  C   UNL     1      48.037   8.930  12.641  0.00  0.00    +0.000 A 
ATOM     30  N   UNL     1      48.882   8.214  13.449  0.00  0.00    +0.000 N 
ATOM     31  C   UNL     1      48.554   6.987  13.971  0.00  0.00    +0.000 A 
ATOM     32  O   UNL     1      49.315   6.394  14.728  0.00  0.00    +0.000 OA
ATOM     33  C   UNL     1      47.250   6.493  13.571  0.00  0.00    +0.000 A 
ATOM     34  H   UNL     1      49.782   8.583  13.719  0.00  0.00    +0.000 HD
ENDBRANCH  21  24
ENDBRANCH  19  20
ENDBRANCH   4  19
TORSDOF 7
ENDMDL
MODEL 7
REMARK VINA RESULT:    -6.371      4.974      8.148
REMARK INTER + INTRA:         -10.340
REMARK INTER:                  -9.068
REMARK INTRA:                  -1.273
REMARK UNBOUND:                -1.363
REMARK  Name = 
REMARK  7 active torsions:
REMARK  status: ('A' for Active; 'I' for Inactive)
REMARK    1  A    between atoms: C_2  and  C_3
REMARK    2  A    between atoms: C_6  and  C_7
REMARK    3  A    between atoms: N_9  and  C_10
REMARK    4  A    between atoms: C_10  and  C_11
REMARK    5  A    between atoms: C_14  and  C_15
REMARK    6  A    between atoms: C_15  and  N_16
REMARK    7  A    between atoms: C_17  and  C_19
REMARK                            x       y       z     vdW  Elec       q    Type
REMARK                         _______ _______ _______ _____ _____    ______ ____
ROOT
ATOM      1  C   UNL     1      47.099   8.332  12.537  0.00  0.00    +0.000 A 
ATOM      2  C   UNL     1      47.785   7.125  12.723  0.00  0.00    +0.000 A 
ATOM      3  C   UNL     1      49.166   7.045  12.499  0.00  0.00    +0.000 A 
ATOM      4  C   UNL     1      49.892   8.178  12.105  0.00  0.00    +0.000 A 
ATOM      5  C   UNL     1      49.199   9.381  11.906  0.00  0.00    +0.000 A 
ATOM      6  C   UNL     1      47.822   9.461  12.136  0.00  0.00    +0.000 A 
ENDROOT
BRANCH   1   7
ATOM      7  C   UNL     1      45.613   8.413  12.760  0.00  0.00    +0.000 C 
BRANCH   7  10
ATOM      8  C   UNL     1      44.078   6.693  11.968  0.00  0.00    +0.000 C 
ATOM      9  O   UNL     1      43.732   7.396  11.022  0.00  0.00    +0.000 OA
ATOM     10  N   UNL     1      45.005   7.109  12.894  0.00  0.00    +0.000 N 
ATOM     11  H   UNL     1      45.203   6.557  13.718  0.00  0.00    +0.000 HD
BRANCH   8  15
ATOM     12  C   UNL     1      44.796   3.975  10.691  0.00  0.00    +0.000 C 
ATOM     13  C   UNL     1      45.274   3.609  12.098  0.00  0.00    +0.000 C 
ATOM     14  C   UNL     1      44.423   4.432  13.072  0.00  0.00    +0.000 C 
ATOM     15  C   UNL     1      43.501   5.300  12.210  0.00  0.00    +0.000 C 
ATOM     16  C   UNL     1      43.380   4.502  10.908  0.00  0.00    +0.000 C 
BRANCH  12  18
ATOM     17  N   UNL     1      44.859   1.772   8.993  0.00  0.00    +0.000 NA
ATOM     18  C   UNL     1      44.830   2.771   9.762  0.00  0.00    +0.000 C 
ENDBRANCH  12  18
ENDBRANCH   8  15
ENDBRANCH   7  10
ENDBRANCH   1   7
BRANCH   4  19
ATOM     19  C   UNL     1      51.386   8.121  11.895  0.00  0.00    +0.000 C 
BRANCH  19  20
ATOM     20  N   UNL     1      51.729   7.811  10.532  0.00  0.00    +0.000 N 
ATOM     21  C   UNL     1      52.676   8.533   9.847  0.00  0.00    +0.000 C 
ATOM     22  O   UNL     1      53.307   9.450  10.367  0.00  0.00    +0.000 OA
ATOM     23  H   UNL     1      51.051   7.273  10.003  0.00  0.00    +0.000 HD
BRANCH  21  24
ATOM     24  C   UNL     1      52.939   8.105   8.467  0.00  0.00    +0.000 A 
ATOM     25  C   UNL     1      52.816   9.008   7.418  0.00  0.00    +0.000 A 
ATOM     26  S   UNL     1      53.201   8.338   5.894  0.00  0.00    +0.000 S 
ATOM     27  C   UNL     1      53.500   6.807   6.582  0.00  0.00    +0.000 A 
ATOM     28  N   UNL     1      53.855   5.751   5.806  0.00  0.00    +0.000 NA
ATOM     29  C   UNL     1      54.034   4.649   6.456  0.00  0.00    +0.000 A 
ATOM     30  N   UNL     1      53.897   4.513   7.813  0.00  0.00    +0.000 N 
ATOM     31  C   UNL     1      53.564   5.559   8.638  0.00  0.00    +0.000 A 
ATOM     32  O   UNL     1      53.495   5.413   9.854  0.00  0.00    +0.000 OA
ATOM     33  C   UNL     1      53.336   6.816   7.952  0.00  0.00    +0.000 A 
ATOM     34  H   UNL     1      54.069   3.628   8.268  0.00  0.00    +0.000 HD
ENDBRANCH  21  24
ENDBRANCH  19  20
ENDBRANCH   4  19
TORSDOF 7
ENDMDL
MODEL 8
REMARK VINA RESULT:    -6.235      3.223      9.281
REMARK INTER + INTRA:         -10.149
REMARK INTER:                  -9.477
REMARK INTRA:                  -0.672
REMARK UNBOUND:                -1.363
REMARK  Name = 
REMARK  7 active torsions:
REMARK  status: ('A' for Active; 'I' for Inactive)
REMARK    1  A    between atoms: C_2  and  C_3
REMARK    2  A    between atoms: C_6  and  C_7
REMARK    3  A    between atoms: N_9  and  C_10
REMARK    4  A    between atoms: C_10  and  C_11
REMARK    5  A    between atoms: C_14  and  C_15
REMARK    6  A    between atoms: C_15  and  N_16
REMARK    7  A    between atoms: C_17  and  C_19
REMARK                            x       y       z     vdW  Elec       q    Type
REMARK                         _______ _______ _______ _____ _____    ______ ____
ROOT
ATOM      1  C   UNL     1      46.278   5.343  13.312  0.00  0.00    +0.000 A 
ATOM      2  C   UNL     1      46.791   4.716  14.455  0.00  0.00    +0.000 A 
ATOM      3  C   UNL     1      47.794   5.330  15.218  0.00  0.00    +0.000 A 
ATOM      4  C   UNL     1      48.288   6.592  14.863  0.00  0.00    +0.000 A 
ATOM      5  C   UNL     1      47.783   7.210  13.710  0.00  0.00    +0.000 A 
ATOM      6  C   UNL     1      46.777   6.600  12.953  0.00  0.00    +0.000 A 
ENDROOT
BRANCH   1   7
ATOM      7  C   UNL     1      45.214   4.676  12.484  0.00  0.00    +0.000 C 
BRANCH   7  10
ATOM      8  C   UNL     1      44.981   4.026  10.146  0.00  0.00    +0.000 C 
ATOM      9  O   UNL     1      44.548   2.922  10.465  0.00  0.00    +0.000 OA
ATOM     10  N   UNL     1      45.347   4.970  11.075  0.00  0.00    +0.000 N 
ATOM     11  H   UNL     1      45.793   5.833  10.794  0.00  0.00    +0.000 HD
BRANCH   8  15
ATOM     12  C   UNL     1      46.472   2.629   7.830  0.00  0.00    +0.000 C 
ATOM     13  C   UNL     1      45.077   2.485   7.217  0.00  0.00    +0.000 C 
ATOM     14  C   UNL     1      44.250   3.665   7.740  0.00  0.00    +0.000 C 
ATOM     15  C   UNL     1      45.166   4.445   8.689  0.00  0.00    +0.000 C 
ATOM     16  C   UNL     1      46.572   4.112   8.177  0.00  0.00    +0.000 C 
BRANCH  12  18
ATOM     17  N   UNL     1      48.452   1.822   6.051  0.00  0.00    +0.000 NA
ATOM     18  C   UNL     1      47.554   2.187   6.857  0.00  0.00    +0.000 C 
ENDBRANCH  12  18
ENDBRANCH   8  15
ENDBRANCH   7  10
ENDBRANCH   1   7
BRANCH   4  19
ATOM     19  C   UNL     1      49.342   7.286  15.694  0.00  0.00    +0.000 C 
BRANCH  19  20
ATOM     20  N   UNL     1      50.323   6.363  16.202  0.00  0.00    +0.000 N 
ATOM     21  C   UNL     1      50.284   5.914  17.500  0.00  0.00    +0.000 C 
ATOM     22  O   UNL     1      49.394   6.240  18.282  0.00  0.00    +0.000 OA
ATOM     23  H   UNL     1      51.198   6.304  15.693  0.00  0.00    +0.000 HD
BRANCH  21  24
ATOM     24  C   UNL     1      51.338   4.967  17.887  0.00  0.00    +0.000 A 
ATOM     25  C   UNL     1      52.506   5.424  18.484  0.00  0.00    +0.000 A 
ATOM     26  S   UNL     1      53.593   4.173  18.898  0.00  0.00    +0.000 S 
ATOM     27  C   UNL     1      52.557   2.984  18.250  0.00  0.00    +0.000 A 
ATOM     28  N   UNL     1      52.908   1.672  18.259  0.00  0.00    +0.000 NA
ATOM     29  C   UNL     1      52.038   0.884  17.722  0.00  0.00    +0.000 A 
ATOM     30  N   UNL     1      50.845   1.291  17.183  0.00  0.00    +0.000 N 
ATOM     31  C   UNL     1      50.439   2.603  17.174  0.00  0.00    +0.000 A 
ATOM     32  O   UNL     1      49.344   2.927  16.726  0.00  0.00    +0.000 OA
ATOM     33  C   UNL     1      51.392   3.530  17.753  0.00  0.00    +0.000 A 
ATOM     34  H   UNL     1      50.195   0.624  16.793  0.00  0.00    +0.000 HD
ENDBRANCH  21  24
ENDBRANCH  19  20
ENDBRANCH   4  19
TORSDOF 7
ENDMDL
MODEL 9
REMARK VINA RESULT:    -5.981      5.302      8.792
REMARK INTER + INTRA:          -9.791
REMARK INTER:                  -8.822
REMARK INTRA:                  -0.968
REMARK UNBOUND:                -1.363
REMARK  Name = 
REMARK  7 active torsions:
REMARK  status: ('A' for Active; 'I' for Inactive)
REMARK    1  A    between atoms: C_2  and  C_3
REMARK    2  A    between atoms: C_6  and  C_7
REMARK    3  A    between atoms: N_9  and  C_10
REMARK    4  A    between atoms: C_10  and  C_11
REMARK    5  A    between atoms: C_14  and  C_15
REMARK    6  A    between atoms: C_15  and  N_16
REMARK    7  A    between atoms: C_17  and  C_19
REMARK                            x       y       z     vdW  Elec       q    Type
REMARK                         _______ _______ _______ _____ _____    ______ ____
ROOT
ATOM      1  C   UNL     1      45.921   7.009  11.965  0.00  0.00    +0.000 A 
ATOM      2  C   UNL     1      45.384   8.291  12.142  0.00  0.00    +0.000 A 
ATOM      3  C   UNL     1      46.214   9.420  12.140  0.00  0.00    +0.000 A 
ATOM      4  C   UNL     1      47.595   9.291  11.940  0.00  0.00    +0.000 A 
ATOM      5  C   UNL     1      48.130   8.005  11.778  0.00  0.00    +0.000 A 
ATOM      6  C   UNL     1      47.301   6.879  11.773  0.00  0.00    +0.000 A 
ENDROOT
BRANCH   1   7
ATOM      7  C   UNL     1      45.032   5.796  11.984  0.00  0.00    +0.000 C 
BRANCH   7  10
ATOM      8  C   UNL     1      44.896   3.975  10.369  0.00  0.00    +0.000 C 
ATOM      9  O   UNL     1      45.296   3.166  11.203  0.00  0.00    +0.000 OA
ATOM     10  N   UNL     1      44.735   5.309  10.657  0.00  0.00    +0.000 N 
ATOM     11  H   UNL     1      44.499   5.975   9.932  0.00  0.00    +0.000 HD
BRANCH   8  15
ATOM     12  C   UNL     1      46.583   2.509   8.238  0.00  0.00    +0.000 C 
ATOM     13  C   UNL     1      45.543   1.397   8.396  0.00  0.00    +0.000 C 
ATOM     14  C   UNL     1      44.236   2.082   8.811  0.00  0.00    +0.000 C 
ATOM     15  C   UNL     1      44.553   3.575   8.936  0.00  0.00    +0.000 C 
ATOM     16  C   UNL     1      45.747   3.763   7.994  0.00  0.00    +0.000 C 
BRANCH  12  18
ATOM     17  N   UNL     1      48.330   1.975   6.141  0.00  0.00    +0.000 NA
ATOM     18  C   UNL     1      47.538   2.218   7.092  0.00  0.00    +0.000 C 
ENDBRANCH  12  18
ENDBRANCH   8  15
ENDBRANCH   7  10
ENDBRANCH   1   7
BRANCH   4  19
ATOM     19  C   UNL     1      48.500  10.499  11.897  0.00  0.00    +0.000 C 
BRANCH  19  20
ATOM     20  N   UNL     1      49.613  10.310  11.004  0.00  0.00    +0.000 N 
ATOM     21  C   UNL     1      50.903  10.581  11.394  0.00  0.00    +0.000 C 
ATOM     22  O   UNL     1      51.180  10.959  12.529  0.00  0.00    +0.000 OA
ATOM     23  H   UNL     1      49.401  10.278  10.013  0.00  0.00    +0.000 HD
BRANCH  21  24
ATOM     24  C   UNL     1      51.945  10.333  10.390  0.00  0.00    +0.000 A 
ATOM     25  C   UNL     1      52.616  11.396   9.798  0.00  0.00    +0.000 A 
ATOM     26  S   UNL     1      53.819  10.909   8.688  0.00  0.00    +0.000 S 
ATOM     27  C   UNL     1      53.451   9.262   8.928  0.00  0.00    +0.000 A 
ATOM     28  N   UNL     1      54.112   8.292   8.245  0.00  0.00    +0.000 NA
ATOM     29  C   UNL     1      53.720   7.091   8.512  0.00  0.00    +0.000 A 
ATOM     30  N   UNL     1      52.731   6.773   9.406  0.00  0.00    +0.000 N 
ATOM     31  C   UNL     1      52.054   7.720  10.136  0.00  0.00    +0.000 A 
ATOM     32  O   UNL     1      51.206   7.398  10.962  0.00  0.00    +0.000 OA
ATOM     33  C   UNL     1      52.447   9.087   9.859  0.00  0.00    +0.000 A 
ATOM     34  H   UNL     1      52.481   5.812   9.587  0.00  0.00    +0.000 HD
ENDBRANCH  21  24
ENDBRANCH  19  20
ENDBRANCH   4  19
TORSDOF 7
ENDMDL
