MODEL 1
REMARK VINA RESULT:    -7.800      0.000      0.000
REMARK INTER + INTRA:         -11.405
REMARK INTER:                 -10.536
REMARK INTRA:                  -0.869
REMARK UNBOUND:                -0.869
REMARK  Name = 
REMARK  6 active torsions:
REMARK  status: ('A' for Active; 'I' for Inactive)
REMARK    1  A    between atoms: C_2  and  C_25
REMARK    2  A    between atoms: N_3  and  C_4
REMARK    3  A    between atoms: C_4  and  C_5
REMARK    4  A    between atoms: C_8  and  C_9
REMARK    5  A    between atoms: C_9  and  N_10
REMARK    6  A    between atoms: C_11  and  C_13
REMARK                            x       y       z     vdW  Elec       q    Type
REMARK                         _______ _______ _______ _____ _____    ______ ____
ROOT
ATOM      1  C   UNL     1      44.853   6.011  11.030  0.00  0.00    +0.000 A 
ATOM      2  C   UNL     1      44.414   7.289  11.401  0.00  0.00    +0.000 A 
ATOM      3  C   UNL     1      45.175   8.081  12.266  0.00  0.00    +0.000 A 
ATOM      4  C   UNL     1      46.401   7.620  12.762  0.00  0.00    +0.000 A 
ATOM      5  C   UNL     1      46.833   6.336  12.401  0.00  0.00    +0.000 A 
ATOM      6  C   UNL     1      46.073   5.545  11.536  0.00  0.00    +0.000 A 
ENDROOT
BRANCH   1   7
ATOM      7  C   UNL     1      44.032   5.157  10.100  0.00  0.00    +0.000 C 
BRANCH   7  10
ATOM      8  O   UNL     1      44.356   2.378  10.175  0.00  0.00    +0.000 OA
ATOM      9  C   UNL     1      44.942   3.025   9.312  0.00  0.00    +0.000 C 
ATOM     10  N   UNL     1      44.850   4.392   9.197  0.00  0.00    +0.000 N 
ATOM     11  H   UNL     1      45.348   4.835   8.431  0.00  0.00    +0.000 HD
BRANCH   9  12
ATOM     12  C   UNL     1      45.808   2.404   8.306  0.00  0.00    +0.000 A 
ATOM     13  C   UNL     1      46.376   3.096   7.250  0.00  0.00    +0.000 A 
ATOM     14  S   UNL     1      47.310   2.044   6.276  0.00  0.00    +0.000 S 
ATOM     15  C   UNL     1      46.899   0.746   7.319  0.00  0.00    +0.000 A 
ATOM     16  N   UNL     1      46.123   1.040   8.340  0.00  0.00    +0.000 NA
ENDBRANCH   9  12
ENDBRANCH   7  10
ENDBRANCH   1   7
BRANCH   4  17
ATOM     17  C   UNL     1      47.222   8.461  13.708  0.00  0.00    +0.000 C 
BRANCH  17  18
ATOM     18  N   UNL     1      47.673   7.676  14.827  0.00  0.00    +0.000 N 
ATOM     19  C   UNL     1      48.936   7.145  14.876  0.00  0.00    +0.000 C 
ATOM     20  O   UNL     1      49.768   7.353  13.997  0.00  0.00    +0.000 OA
ATOM     21  H   UNL     1      46.953   7.295  15.430  0.00  0.00    +0.000 HD
BRANCH  19  22
ATOM     22  C   UNL     1      49.263   6.366  16.079  0.00  0.00    +0.000 A 
ATOM     23  C   UNL     1      50.325   6.756  16.886  0.00  0.00    +0.000 A 
ATOM     24  S   UNL     1      50.508   5.793  18.282  0.00  0.00    +0.000 S 
ATOM     25  C   UNL     1      49.214   4.787  17.826  0.00  0.00    +0.000 A 
ATOM     26  N   UNL     1      48.840   3.732  18.598  0.00  0.00    +0.000 NA
ATOM     27  C   UNL     1      47.862   3.038  18.119  0.00  0.00    +0.000 A 
ATOM     28  N   UNL     1      47.224   3.303  16.935  0.00  0.00    +0.000 N 
ATOM     29  C   UNL     1      47.556   4.364  16.131  0.00  0.00    +0.000 A 
ATOM     30  O   UNL     1      46.952   4.585  15.087  0.00  0.00    +0.000 OA
ATOM     31  C   UNL     1      48.646   5.184  16.628  0.00  0.00    +0.000 A 
ATOM     32  H   UNL     1      46.468   2.719  16.611  0.00  0.00    +0.000 HD
ENDBRANCH  19  22
ENDBRANCH  17  18
ENDBRANCH   4  17
TORSDOF 6
ENDMDL
MODEL 2
REMARK VINA RESULT:    -7.478      1.901      2.247
REMARK INTER + INTRA:         -10.970
REMARK INTER:                  -9.983
REMARK INTRA:                  -0.987
REMARK UNBOUND:                -0.869
REMARK  Name = 
REMARK  6 active torsions:
REMARK  status: ('A' for Active; 'I' for Inactive)
REMARK    1  A    between atoms: C_2  and  C_25
REMARK    2  A    between atoms: N_3  and  C_4
REMARK    3  A    between atoms: C_4  and  C_5
REMARK    4  A    between atoms: C_8  and  C_9
REMARK    5  A    between atoms: C_9  and  N_10
REMARK    6  A    between atoms: C_11  and  C_13
REMARK                            x       y       z     vdW  Elec       q    Type
REMARK                         _______ _______ _______ _____ _____    ______ ____
ROOT
ATOM      1  C   UNL     1      44.873   4.919  11.846  0.00  0.00    +0.000 A 
ATOM      2  C   UNL     1      44.397   6.155  11.389  0.00  0.00    +0.000 A 
ATOM      3  C   UNL     1      44.981   7.350  11.824  0.00  0.00    +0.000 A 
ATOM      4  C   UNL     1      46.067   7.332  12.708  0.00  0.00    +0.000 A 
ATOM      5  C   UNL     1      46.534   6.095  13.176  0.00  0.00    +0.000 A 
ATOM      6  C   UNL     1      45.951   4.902  12.741  0.00  0.00    +0.000 A 
ENDROOT
BRANCH   1   7
ATOM      7  C   UNL     1      44.243   3.634  11.381  0.00  0.00    +0.000 C 
BRANCH   7  10
ATOM      8  O   UNL     1      44.252   4.113   8.623  0.00  0.00    +0.000 OA
ATOM      9  C   UNL     1      44.996   3.251   9.082  0.00  0.00    +0.000 C 
ATOM     10  N   UNL     1      45.060   2.941  10.420  0.00  0.00    +0.000 N 
ATOM     11  H   UNL     1      45.730   2.235  10.709  0.00  0.00    +0.000 HD
BRANCH   9  12
ATOM     12  C   UNL     1      45.902   2.458   8.248  0.00  0.00    +0.000 A 
ATOM     13  C   UNL     1      46.732   3.003   7.284  0.00  0.00    +0.000 A 
ATOM     14  S   UNL     1      47.633   1.775   6.503  0.00  0.00    +0.000 S 
ATOM     15  C   UNL     1      46.863   0.608   7.496  0.00  0.00    +0.000 A 
ATOM     16  N   UNL     1      45.992   1.066   8.367  0.00  0.00    +0.000 NA
ENDBRANCH   9  12
ENDBRANCH   7  10
ENDBRANCH   1   7
BRANCH   4  17
ATOM     17  C   UNL     1      46.694   8.614  13.194  0.00  0.00    +0.000 C 
BRANCH  17  18
ATOM     18  N   UNL     1      47.132   8.483  14.559  0.00  0.00    +0.000 N 
ATOM     19  C   UNL     1      48.148   9.249  15.070  0.00  0.00    +0.000 C 
ATOM     20  O   UNL     1      48.702  10.124  14.411  0.00  0.00    +0.000 OA
ATOM     21  H   UNL     1      46.870   7.627  15.037  0.00  0.00    +0.000 HD
BRANCH  19  22
ATOM     22  C   UNL     1      48.491   9.009  16.479  0.00  0.00    +0.000 A 
ATOM     23  C   UNL     1      48.379  10.042  17.402  0.00  0.00    +0.000 A 
ATOM     24  S   UNL     1      48.734   9.568  19.001  0.00  0.00    +0.000 S 
ATOM     25  C   UNL     1      49.107   7.982  18.508  0.00  0.00    +0.000 A 
ATOM     26  N   UNL     1      49.502   7.042  19.408  0.00  0.00    +0.000 NA
ATOM     27  C   UNL     1      49.779   5.892  18.892  0.00  0.00    +0.000 A 
ATOM     28  N   UNL     1      49.699   5.595  17.556  0.00  0.00    +0.000 N 
ATOM     29  C   UNL     1      49.290   6.506  16.614  0.00  0.00    +0.000 A 
ATOM     30  O   UNL     1      49.209   6.203  15.429  0.00  0.00    +0.000 OA
ATOM     31  C   UNL     1      48.957   7.816  17.142  0.00  0.00    +0.000 A 
ATOM     32  H   UNL     1      49.935   4.676  17.213  0.00  0.00    +0.000 HD
ENDBRANCH  19  22
ENDBRANCH  17  18
ENDBRANCH   4  17
TORSDOF 6
ENDMDL
MODEL 3
REMARK VINA RESULT:    -7.215      4.759      9.176
REMARK INTER + INTRA:         -10.616
REMARK INTER:                  -9.802
REMARK INTRA:                  -0.813
REMARK UNBOUND:                -0.869
REMARK  Name = 
REMARK  6 active torsions:
REMARK  status: ('A' for Active; 'I' for Inactive)
REMARK    1  A    between atoms: C_2  and  C_25
REMARK    2  A    between atoms: N_3  and  C_4
REMARK    3  A    between atoms: C_4  and  C_5
REMARK    4  A    between atoms: C_8  and  C_9
REMARK    5  A    between atoms: C_9  and  N_10
REMARK    6  A    between atoms: C_11  and  C_13
REMARK                            x       y       z     vdW  Elec       q    Type
REMARK                         _______ _______ _______ _____ _____    ______ ____
ROOT
ATOM      1  C   UNL     1      51.443   3.226  17.717  0.00  0.00    +0.000 A 
ATOM      2  C   UNL     1      50.720   4.397  17.980  0.00  0.00    +0.000 A 
ATOM      3  C   UNL     1      49.342   4.453  17.746  0.00  0.00    +0.000 A 
ATOM      4  C   UNL     1      48.655   3.331  17.264  0.00  0.00    +0.000 A 
ATOM      5  C   UNL     1      49.382   2.165  16.988  0.00  0.00    +0.000 A 
ATOM      6  C   UNL     1      50.758   2.109  17.222  0.00  0.00    +0.000 A 
ENDROOT
BRANCH   1   7
ATOM      7  C   UNL     1      52.926   3.167  17.965  0.00  0.00    +0.000 C 
BRANCH   7  10
ATOM      8  O   UNL     1      54.258   1.349  19.626  0.00  0.00    +0.000 OA
ATOM      9  C   UNL     1      54.136   1.089  18.432  0.00  0.00    +0.000 C 
ATOM     10  N   UNL     1      53.503   1.920  17.537  0.00  0.00    +0.000 N 
ATOM     11  H   UNL     1      53.424   1.604  16.575  0.00  0.00    +0.000 HD
BRANCH   9  12
ATOM     12  C   UNL     1      54.654  -0.142  17.830  0.00  0.00    +0.000 A 
ATOM     13  C   UNL     1      55.228  -1.169  18.558  0.00  0.00    +0.000 A 
ATOM     14  S   UNL     1      55.728  -2.435  17.519  0.00  0.00    +0.000 S 
ATOM     15  C   UNL     1      55.149  -1.535  16.179  0.00  0.00    +0.000 A 
ATOM     16  N   UNL     1      54.608  -0.368  16.448  0.00  0.00    +0.000 NA
ENDBRANCH   9  12
ENDBRANCH   7  10
ENDBRANCH   1   7
BRANCH   4  17
ATOM     17  C   UNL     1      47.173   3.386  16.994  0.00  0.00    +0.000 C 
BRANCH  17  18
ATOM     18  N   UNL     1      46.870   4.391  16.008  0.00  0.00    +0.000 N 
ATOM     19  C   UNL     1      46.987   4.144  14.665  0.00  0.00    +0.000 C 
ATOM     20  O   UNL     1      47.302   3.041  14.227  0.00  0.00    +0.000 OA
ATOM     21  H   UNL     1      46.847   5.350  16.335  0.00  0.00    +0.000 HD
BRANCH  19  22
ATOM     22  C   UNL     1      46.644   5.260  13.771  0.00  0.00    +0.000 A 
ATOM     23  C   UNL     1      47.566   6.276  13.552  0.00  0.00    +0.000 A 
ATOM     24  S   UNL     1      47.038   7.443  12.425  0.00  0.00    +0.000 S 
ATOM     25  C   UNL     1      45.538   6.663  12.236  0.00  0.00    +0.000 A 
ATOM     26  N   UNL     1      44.589   7.160  11.398  0.00  0.00    +0.000 NA
ATOM     27  C   UNL     1      43.490   6.484  11.373  0.00  0.00    +0.000 A 
ATOM     28  N   UNL     1      43.251   5.354  12.112  0.00  0.00    +0.000 N 
ATOM     29  C   UNL     1      44.183   4.807  12.959  0.00  0.00    +0.000 A 
ATOM     30  O   UNL     1      43.945   3.784  13.591  0.00  0.00    +0.000 OA
ATOM     31  C   UNL     1      45.443   5.525  13.018  0.00  0.00    +0.000 A 
ATOM     32  H   UNL     1      42.367   4.872  12.053  0.00  0.00    +0.000 HD
ENDBRANCH  19  22
ENDBRANCH  17  18
ENDBRANCH   4  17
TORSDOF 6
ENDMDL
MODEL 4
REMARK VINA RESULT:    -7.072      3.714      4.973
REMARK INTER + INTRA:         -10.422
REMARK INTER:                  -9.389
REMARK INTRA:                  -1.033
REMARK UNBOUND:                -0.869
REMARK  Name = 
REMARK  6 active torsions:
REMARK  status: ('A' for Active; 'I' for Inactive)
REMARK    1  A    between atoms: C_2  and  C_25
REMARK    2  A    between atoms: N_3  and  C_4
REMARK    3  A    between atoms: C_4  and  C_5
REMARK    4  A    between atoms: C_8  and  C_9
REMARK    5  A    between atoms: C_9  and  N_10
REMARK    6  A    between atoms: C_11  and  C_13
REMARK                            x       y       z     vdW  Elec       q    Type
REMARK                         _______ _______ _______ _____ _____    ______ ____
ROOT
ATOM      1  C   UNL     1      44.860   4.844  11.889  0.00  0.00    +0.000 A 
ATOM      2  C   UNL     1      44.300   6.059  11.474  0.00  0.00    +0.000 A 
ATOM      3  C   UNL     1      44.786   7.274  11.969  0.00  0.00    +0.000 A 
ATOM      4  C   UNL     1      45.855   7.299  12.874  0.00  0.00    +0.000 A 
ATOM      5  C   UNL     1      46.405   6.082  13.299  0.00  0.00    +0.000 A 
ATOM      6  C   UNL     1      45.920   4.868  12.804  0.00  0.00    +0.000 A 
ENDROOT
BRANCH   1   7
ATOM      7  C   UNL     1      44.335   3.536  11.359  0.00  0.00    +0.000 C 
BRANCH   7  10
ATOM      8  O   UNL     1      44.204   4.087   8.618  0.00  0.00    +0.000 OA
ATOM      9  C   UNL     1      45.056   3.305   9.030  0.00  0.00    +0.000 C 
ATOM     10  N   UNL     1      45.196   2.969  10.356  0.00  0.00    +0.000 N 
ATOM     11  H   UNL     1      45.952   2.337  10.604  0.00  0.00    +0.000 HD
BRANCH   9  12
ATOM     12  C   UNL     1      46.021   2.645   8.147  0.00  0.00    +0.000 A 
ATOM     13  C   UNL     1      46.746   3.307   7.172  0.00  0.00    +0.000 A 
ATOM     14  S   UNL     1      47.760   2.213   6.331  0.00  0.00    +0.000 S 
ATOM     15  C   UNL     1      47.169   0.941   7.317  0.00  0.00    +0.000 A 
ATOM     16  N   UNL     1      46.279   1.271   8.228  0.00  0.00    +0.000 NA
ENDBRANCH   9  12
ENDBRANCH   7  10
ENDBRANCH   1   7
BRANCH   4  17
ATOM     17  C   UNL     1      46.376   8.602  13.425  0.00  0.00    +0.000 C 
BRANCH  17  18
ATOM     18  N   UNL     1      47.670   8.909  12.873  0.00  0.00    +0.000 N 
ATOM     19  C   UNL     1      47.837   9.870  11.910  0.00  0.00    +0.000 C 
ATOM     20  O   UNL     1      46.906  10.559  11.505  0.00  0.00    +0.000 OA
ATOM     21  H   UNL     1      48.393   8.210  13.005  0.00  0.00    +0.000 HD
BRANCH  19  22
ATOM     22  C   UNL     1      49.214  10.079  11.439  0.00  0.00    +0.000 A 
ATOM     23  C   UNL     1      49.644  11.358  11.110  0.00  0.00    +0.000 A 
ATOM     24  S   UNL     1      51.290  11.430  10.665  0.00  0.00    +0.000 S 
ATOM     25  C   UNL     1      51.468   9.747  10.839  0.00  0.00    +0.000 A 
ATOM     26  N   UNL     1      52.660   9.139  10.596  0.00  0.00    +0.000 NA
ATOM     27  C   UNL     1      52.645   7.856  10.740  0.00  0.00    +0.000 A 
ATOM     28  N   UNL     1      51.545   7.124  11.105  0.00  0.00    +0.000 N 
ATOM     29  C   UNL     1      50.326   7.695  11.376  0.00  0.00    +0.000 A 
ATOM     30  O   UNL     1      49.366   7.014  11.720  0.00  0.00    +0.000 OA
ATOM     31  C   UNL     1      50.290   9.139  11.237  0.00  0.00    +0.000 A 
ATOM     32  H   UNL     1      51.595   6.120  11.197  0.00  0.00    +0.000 HD
ENDBRANCH  19  22
ENDBRANCH  17  18
ENDBRANCH   4  17
TORSDOF 6
ENDMDL
MODEL 5
REMARK VINA RESULT:    -6.876      3.564      8.373
REMARK INTER + INTRA:         -10.157
REMARK INTER:                  -9.084
REMARK INTRA:                  -1.074
REMARK UNBOUND:                -0.869
REMARK  Name = 
REMARK  6 active torsions:
REMARK  status: ('A' for Active; 'I' for Inactive)
REMARK    1  A    between atoms: C_2  and  C_25
REMARK    2  A    between atoms: N_3  and  C_4
REMARK    3  A    between atoms: C_4  and  C_5
REMARK    4  A    between atoms: C_8  and  C_9
REMARK    5  A    between atoms: C_9  and  N_10
REMARK    6  A    between atoms: C_11  and  C_13
REMARK                            x       y       z     vdW  Elec       q    Type
REMARK                         _______ _______ _______ _____ _____    ______ ____
ROOT
ATOM      1  C   UNL     1      49.621   4.502  17.581  0.00  0.00    +0.000 A 
ATOM      2  C   UNL     1      50.422   5.581  17.185  0.00  0.00    +0.000 A 
ATOM      3  C   UNL     1      49.992   6.460  16.186  0.00  0.00    +0.000 A 
ATOM      4  C   UNL     1      48.741   6.290  15.577  0.00  0.00    +0.000 A 
ATOM      5  C   UNL     1      47.947   5.202  15.963  0.00  0.00    +0.000 A 
ATOM      6  C   UNL     1      48.377   4.323  16.962  0.00  0.00    +0.000 A 
ENDROOT
BRANCH   1   7
ATOM      7  C   UNL     1      50.086   3.554  18.654  0.00  0.00    +0.000 C 
BRANCH   7  10
ATOM      8  O   UNL     1      50.823   1.335  17.114  0.00  0.00    +0.000 OA
ATOM      9  C   UNL     1      51.698   2.001  17.660  0.00  0.00    +0.000 C 
ATOM     10  N   UNL     1      51.435   3.104  18.439  0.00  0.00    +0.000 N 
ATOM     11  H   UNL     1      52.228   3.609  18.823  0.00  0.00    +0.000 HD
BRANCH   9  12
ATOM     12  C   UNL     1      53.125   1.691  17.538  0.00  0.00    +0.000 A 
ATOM     13  C   UNL     1      53.619   0.410  17.364  0.00  0.00    +0.000 A 
ATOM     14  S   UNL     1      55.328   0.432  17.276  0.00  0.00    +0.000 S 
ATOM     15  C   UNL     1      55.295   2.135  17.473  0.00  0.00    +0.000 A 
ATOM     16  N   UNL     1      54.107   2.687  17.593  0.00  0.00    +0.000 NA
ENDBRANCH   9  12
ENDBRANCH   7  10
ENDBRANCH   1   7
BRANCH   4  17
ATOM     17  C   UNL     1      48.275   7.223  14.488  0.00  0.00    +0.000 C 
BRANCH  17  18
ATOM     18  N   UNL     1      47.033   6.765  13.921  0.00  0.00    +0.000 N 
ATOM     19  C   UNL     1      46.826   6.732  12.566  0.00  0.00    +0.000 C 
ATOM     20  O   UNL     1      47.701   7.038  11.762  0.00  0.00    +0.000 OA
ATOM     21  H   UNL     1      46.234   6.742  14.544  0.00  0.00    +0.000 HD
BRANCH  19  22
ATOM     22  C   UNL     1      45.512   6.241  12.127  0.00  0.00    +0.000 A 
ATOM     23  C   UNL     1      44.594   7.126  11.573  0.00  0.00    +0.000 A 
ATOM     24  S   UNL     1      43.158   6.373  11.041  0.00  0.00    +0.000 S 
ATOM     25  C   UNL     1      43.689   4.850  11.585  0.00  0.00    +0.000 A 
ATOM     26  N   UNL     1      42.912   3.744  11.440  0.00  0.00    +0.000 NA
ATOM     27  C   UNL     1      43.426   2.662  11.921  0.00  0.00    +0.000 A 
ATOM     28  N   UNL     1      44.649   2.586  12.537  0.00  0.00    +0.000 N 
ATOM     29  C   UNL     1      45.474   3.672  12.692  0.00  0.00    +0.000 A 
ATOM     30  O   UNL     1      46.571   3.566  13.230  0.00  0.00    +0.000 OA
ATOM     31  C   UNL     1      44.946   4.914  12.159  0.00  0.00    +0.000 A 
ATOM     32  H   UNL     1      44.994   1.709  12.898  0.00  0.00    +0.000 HD
ENDBRANCH  19  22
ENDBRANCH  17  18
ENDBRANCH   4  17
TORSDOF 6
ENDMDL
MODEL 6
REMARK VINA RESULT:    -6.754      1.806      2.563
REMARK INTER + INTRA:          -9.992
REMARK INTER:                  -9.278
REMARK INTRA:                  -0.714
REMARK UNBOUND:                -0.869
REMARK  Name = 
REMARK  6 active torsions:
REMARK  status: ('A' for Active; 'I' for Inactive)
REMARK    1  A    between atoms: C_2  and  C_25
REMARK    2  A    between atoms: N_3  and  C_4
REMARK    3  A    between atoms: C_4  and  C_5
REMARK    4  A    between atoms: C_8  and  C_9
REMARK    5  A    between atoms: C_9  and  N_10
REMARK    6  A    between atoms: C_11  and  C_13
REMARK                            x       y       z     vdW  Elec       q    Type
REMARK                         _______ _______ _______ _____ _____    ______ ____
ROOT
ATOM      1  C   UNL     1      45.097   6.219  11.488  0.00  0.00    +0.000 A 
ATOM      2  C   UNL     1      44.910   7.593  11.691  0.00  0.00    +0.000 A 
ATOM      3  C   UNL     1      45.760   8.312  12.537  0.00  0.00    +0.000 A 
ATOM      4  C   UNL     1      46.829   7.675  13.182  0.00  0.00    +0.000 A 
ATOM      5  C   UNL     1      47.007   6.298  12.990  0.00  0.00    +0.000 A 
ATOM      6  C   UNL     1      46.157   5.580  12.144  0.00  0.00    +0.000 A 
ENDROOT
BRANCH   1   7
ATOM      7  C   UNL     1      44.180   5.445  10.580  0.00  0.00    +0.000 C 
BRANCH   7  10
ATOM      8  O   UNL     1      44.446   2.677  10.253  0.00  0.00    +0.000 OA
ATOM      9  C   UNL     1      44.962   3.429   9.430  0.00  0.00    +0.000 C 
ATOM     10  N   UNL     1      44.890   4.800   9.508  0.00  0.00    +0.000 N 
ATOM     11  H   UNL     1      45.322   5.337   8.762  0.00  0.00    +0.000 HD
BRANCH   9  12
ATOM     12  C   UNL     1      45.713   2.941   8.271  0.00  0.00    +0.000 A 
ATOM     13  C   UNL     1      46.252   1.669   8.186  0.00  0.00    +0.000 A 
ATOM     14  S   UNL     1      47.069   1.462   6.696  0.00  0.00    +0.000 S 
ATOM     15  C   UNL     1      46.651   3.068   6.267  0.00  0.00    +0.000 A 
ATOM     16  N   UNL     1      45.945   3.744   7.147  0.00  0.00    +0.000 NA
ENDBRANCH   9  12
ENDBRANCH   7  10
ENDBRANCH   1   7
BRANCH   4  17
ATOM     17  C   UNL     1      47.742   8.438  14.108  0.00  0.00    +0.000 C 
BRANCH  17  18
ATOM     18  N   UNL     1      47.937   7.719  15.340  0.00  0.00    +0.000 N 
ATOM     19  C   UNL     1      49.070   6.985  15.578  0.00  0.00    +0.000 C 
ATOM     20  O   UNL     1      50.002   6.943  14.780  0.00  0.00    +0.000 OA
ATOM     21  H   UNL     1      47.106   7.541  15.894  0.00  0.00    +0.000 HD
BRANCH  19  22
ATOM     22  C   UNL     1      49.135   6.303  16.879  0.00  0.00    +0.000 A 
ATOM     23  C   UNL     1      48.672   4.998  16.998  0.00  0.00    +0.000 A 
ATOM     24  S   UNL     1      48.902   4.333  18.552  0.00  0.00    +0.000 S 
ATOM     25  C   UNL     1      49.574   5.784  19.134  0.00  0.00    +0.000 A 
ATOM     26  N   UNL     1      49.986   5.898  20.425  0.00  0.00    +0.000 NA
ATOM     27  C   UNL     1      50.449   7.061  20.738  0.00  0.00    +0.000 A 
ATOM     28  N   UNL     1      50.537   8.124  19.877  0.00  0.00    +0.000 N 
ATOM     29  C   UNL     1      50.148   8.052  18.563  0.00  0.00    +0.000 A 
ATOM     30  O   UNL     1      50.258   9.016  17.813  0.00  0.00    +0.000 OA
ATOM     31  C   UNL     1      49.627   6.760  18.155  0.00  0.00    +0.000 A 
ATOM     32  H   UNL     1      50.905   9.013  20.184  0.00  0.00    +0.000 HD
ENDBRANCH  19  22
ENDBRANCH  17  18
ENDBRANCH   4  17
TORSDOF 6
ENDMDL
MODEL 7
REMARK VINA RESULT:    -6.674      2.850      8.061
REMARK INTER + INTRA:          -9.884
REMARK INTER:                  -9.008
REMARK INTRA:                  -0.876
REMARK UNBOUND:                -0.869
REMARK  Name = 
REMARK  6 active torsions:
REMARK  status: ('A' for Active; 'I' for Inactive)
REMARK    1  A    between atoms: C_2  and  C_25
REMARK    2  A    between atoms: N_3  and  C_4
REMARK    3  A    between atoms: C_4  and  C_5
REMARK    4  A    between atoms: C_8  and  C_9
REMARK    5  A    between atoms: C_9  and  N_10
REMARK    6  A    between atoms: C_11  and  C_13
REMARK                            x       y       z     vdW  Elec       q    Type
REMARK                         _______ _______ _______ _____ _____    ______ ____
ROOT
ATOM      1  C   UNL     1      49.707   6.870  16.126  0.00  0.00    +0.000 A 
ATOM      2  C   UNL     1      48.578   6.258  15.565  0.00  0.00    +0.000 A 
ATOM      3  C   UNL     1      48.152   6.593  14.276  0.00  0.00    +0.000 A 
ATOM      4  C   UNL     1      48.859   7.532  13.513  0.00  0.00    +0.000 A 
ATOM      5  C   UNL     1      49.979   8.154  14.080  0.00  0.00    +0.000 A 
ATOM      6  C   UNL     1      50.406   7.818  15.368  0.00  0.00    +0.000 A 
ENDROOT
BRANCH   1   7
ATOM      7  C   UNL     1      50.164   6.511  17.514  0.00  0.00    +0.000 C 
BRANCH   7  10
ATOM      8  O   UNL     1      49.299   3.913  18.094  0.00  0.00    +0.000 OA
ATOM      9  C   UNL     1      50.482   4.102  17.822  0.00  0.00    +0.000 C 
ATOM     10  N   UNL     1      51.001   5.341  17.529  0.00  0.00    +0.000 N 
ATOM     11  H   UNL     1      51.986   5.393  17.286  0.00  0.00    +0.000 HD
BRANCH   9  12
ATOM     12  C   UNL     1      51.470   3.022  17.781  0.00  0.00    +0.000 A 
ATOM     13  C   UNL     1      52.806   3.191  18.099  0.00  0.00    +0.000 A 
ATOM     14  S   UNL     1      53.657   1.717  17.924  0.00  0.00    +0.000 S 
ATOM     15  C   UNL     1      52.198   0.956  17.442  0.00  0.00    +0.000 A 
ATOM     16  N   UNL     1      51.126   1.717  17.407  0.00  0.00    +0.000 NA
ENDBRANCH   9  12
ENDBRANCH   7  10
ENDBRANCH   1   7
BRANCH   4  17
ATOM     17  C   UNL     1      48.398   7.911  12.128  0.00  0.00    +0.000 C 
BRANCH  17  18
ATOM     18  N   UNL     1      47.639   6.843  11.532  0.00  0.00    +0.000 N 
ATOM     19  C   UNL     1      46.276   6.908  11.404  0.00  0.00    +0.000 C 
ATOM     20  O   UNL     1      45.634   7.899  11.738  0.00  0.00    +0.000 OA
ATOM     21  H   UNL     1      48.098   5.940  11.475  0.00  0.00    +0.000 HD
BRANCH  19  22
ATOM     22  C   UNL     1      45.630   5.746  10.776  0.00  0.00    +0.000 A 
ATOM     23  C   UNL     1      45.761   5.539   9.408  0.00  0.00    +0.000 A 
ATOM     24  S   UNL     1      45.022   4.101   8.863  0.00  0.00    +0.000 S 
ATOM     25  C   UNL     1      44.453   3.736  10.424  0.00  0.00    +0.000 A 
ATOM     26  N   UNL     1      43.720   2.614  10.659  0.00  0.00    +0.000 NA
ATOM     27  C   UNL     1      43.331   2.476  11.882  0.00  0.00    +0.000 A 
ATOM     28  N   UNL     1      43.606   3.360  12.894  0.00  0.00    +0.000 N 
ATOM     29  C   UNL     1      44.355   4.495  12.708  0.00  0.00    +0.000 A 
ATOM     30  O   UNL     1      44.600   5.255  13.638  0.00  0.00    +0.000 OA
ATOM     31  C   UNL     1      44.826   4.695  11.350  0.00  0.00    +0.000 A 
ATOM     32  H   UNL     1      43.268   3.198  13.831  0.00  0.00    +0.000 HD
ENDBRANCH  19  22
ENDBRANCH  17  18
ENDBRANCH   4  17
TORSDOF 6
ENDMDL
MODEL 8
REMARK VINA RESULT:    -6.565      4.834      7.573
REMARK INTER + INTRA:          -9.737
REMARK INTER:                  -8.783
REMARK INTRA:                  -0.953
REMARK UNBOUND:                -0.869
REMARK  Name = 
REMARK  6 active torsions:
REMARK  status: ('A' for Active; 'I' for Inactive)
REMARK    1  A    between atoms: C_2  and  C_25
REMARK    2  A    between atoms: N_3  and  C_4
REMARK    3  A    between atoms: C_4  and  C_5
REMARK    4  A    between atoms: C_8  and  C_9
REMARK    5  A    between atoms: C_9  and  N_10
REMARK    6  A    between atoms: C_11  and  C_13
REMARK                            x       y       z     vdW  Elec       q    Type
REMARK                         _______ _______ _______ _____ _____    ______ ____
ROOT
ATOM      1  C   UNL     1      50.755   8.681  11.485  0.00  0.00    +0.000 A 
ATOM      2  C   UNL     1      49.938   9.819  11.470  0.00  0.00    +0.000 A 
ATOM      3  C   UNL     1      48.560   9.711  11.681  0.00  0.00    +0.000 A 
ATOM      4  C   UNL     1      47.973   8.463  11.932  0.00  0.00    +0.000 A 
ATOM      5  C   UNL     1      48.789   7.324  11.933  0.00  0.00    +0.000 A 
ATOM      6  C   UNL     1      50.167   7.432  11.723  0.00  0.00    +0.000 A 
ENDROOT
BRANCH   1   7
ATOM      7  C   UNL     1      52.238   8.797  11.255  0.00  0.00    +0.000 C 
BRANCH   7  10
ATOM      8  O   UNL     1      52.754   9.030   8.513  0.00  0.00    +0.000 OA
ATOM      9  C   UNL     1      52.970   7.959   9.073  0.00  0.00    +0.000 C 
ATOM     10  N   UNL     1      52.745   7.746  10.413  0.00  0.00    +0.000 N 
ATOM     11  H   UNL     1      52.984   6.835  10.792  0.00  0.00    +0.000 HD
BRANCH   9  12
ATOM     12  C   UNL     1      53.496   6.786   8.369  0.00  0.00    +0.000 A 
ATOM     13  C   UNL     1      52.808   6.118   7.372  0.00  0.00    +0.000 A 
ATOM     14  S   UNL     1      53.726   4.794   6.793  0.00  0.00    +0.000 S 
ATOM     15  C   UNL     1      54.970   5.199   7.901  0.00  0.00    +0.000 A 
ATOM     16  N   UNL     1      54.755   6.248   8.664  0.00  0.00    +0.000 NA
ENDBRANCH   9  12
ENDBRANCH   7  10
ENDBRANCH   1   7
BRANCH   4  17
ATOM     17  C   UNL     1      46.486   8.334  12.146  0.00  0.00    +0.000 C 
BRANCH  17  18
ATOM     18  N   UNL     1      46.054   6.979  11.922  0.00  0.00    +0.000 N 
ATOM     19  C   UNL     1      44.765   6.680  11.564  0.00  0.00    +0.000 C 
ATOM     20  O   UNL     1      43.924   7.551  11.362  0.00  0.00    +0.000 OA
ATOM     21  H   UNL     1      46.642   6.249  12.309  0.00  0.00    +0.000 HD
BRANCH  19  22
ATOM     22  C   UNL     1      44.464   5.255  11.367  0.00  0.00    +0.000 A 
ATOM     23  C   UNL     1      43.732   4.566  12.325  0.00  0.00    +0.000 A 
ATOM     24  S   UNL     1      43.402   2.948  11.896  0.00  0.00    +0.000 S 
ATOM     25  C   UNL     1      44.275   3.096  10.444  0.00  0.00    +0.000 A 
ATOM     26  N   UNL     1      44.397   2.046   9.588  0.00  0.00    +0.000 NA
ATOM     27  C   UNL     1      45.109   2.290   8.539  0.00  0.00    +0.000 A 
ATOM     28  N   UNL     1      45.713   3.491   8.268  0.00  0.00    +0.000 N 
ATOM     29  C   UNL     1      45.605   4.582   9.094  0.00  0.00    +0.000 A 
ATOM     30  O   UNL     1      46.142   5.648   8.812  0.00  0.00    +0.000 OA
ATOM     31  C   UNL     1      44.807   4.363  10.286  0.00  0.00    +0.000 A 
ATOM     32  H   UNL     1      46.263   3.618   7.431  0.00  0.00    +0.000 HD
ENDBRANCH  19  22
ENDBRANCH  17  18
ENDBRANCH   4  17
TORSDOF 6
ENDMDL
MODEL 9
REMARK VINA RESULT:    -6.506      3.723      9.292
REMARK INTER + INTRA:          -9.658
REMARK INTER:                  -8.834
REMARK INTRA:                  -0.824
REMARK UNBOUND:                -0.869
REMARK  Name = 
REMARK  6 active torsions:
REMARK  status: ('A' for Active; 'I' for Inactive)
REMARK    1  A    between atoms: C_2  and  C_25
REMARK    2  A    between atoms: N_3  and  C_4
REMARK    3  A    between atoms: C_4  and  C_5
REMARK    4  A    between atoms: C_8  and  C_9
REMARK    5  A    between atoms: C_9  and  N_10
REMARK    6  A    between atoms: C_11  and  C_13
REMARK                            x       y       z     vdW  Elec       q    Type
REMARK                         _______ _______ _______ _____ _____    ______ ____
ROOT
ATOM      1  C   UNL     1      51.438   3.910  17.679  0.00  0.00    +0.000 A 
ATOM      2  C   UNL     1      50.575   5.014  17.633  0.00  0.00    +0.000 A 
ATOM      3  C   UNL     1      49.217   4.846  17.342  0.00  0.00    +0.000 A 
ATOM      4  C   UNL     1      48.690   3.569  17.112  0.00  0.00    +0.000 A 
ATOM      5  C   UNL     1      49.556   2.467  17.144  0.00  0.00    +0.000 A 
ATOM      6  C   UNL     1      50.913   2.634  17.435  0.00  0.00    +0.000 A 
ENDROOT
BRANCH   1   7
ATOM      7  C   UNL     1      52.899   4.091  17.989  0.00  0.00    +0.000 C 
BRANCH   7  10
ATOM      8  O   UNL     1      55.066   4.869  16.397  0.00  0.00    +0.000 OA
ATOM      9  C   UNL     1      54.414   5.730  16.981  0.00  0.00    +0.000 C 
ATOM     10  N   UNL     1      53.337   5.447  17.788  0.00  0.00    +0.000 N 
ATOM     11  H   UNL     1      52.841   6.229  18.204  0.00  0.00    +0.000 HD
BRANCH   9  12
ATOM     12  C   UNL     1      54.715   7.160  16.879  0.00  0.00    +0.000 A 
ATOM     13  C   UNL     1      55.432   7.864  17.832  0.00  0.00    +0.000 A 
ATOM     14  S   UNL     1      55.574   9.509  17.383  0.00  0.00    +0.000 S 
ATOM     15  C   UNL     1      54.679   9.176  15.959  0.00  0.00    +0.000 A 
ATOM     16  N   UNL     1      54.288   7.932  15.791  0.00  0.00    +0.000 NA
ENDBRANCH   9  12
ENDBRANCH   7  10
ENDBRANCH   1   7
BRANCH   4  17
ATOM     17  C   UNL     1      47.230   3.380  16.782  0.00  0.00    +0.000 C 
BRANCH  17  18
ATOM     18  N   UNL     1      46.792   4.361  15.825  0.00  0.00    +0.000 N 
ATOM     19  C   UNL     1      46.845   4.129  14.475  0.00  0.00    +0.000 C 
ATOM     20  O   UNL     1      47.216   3.056  14.009  0.00  0.00    +0.000 OA
ATOM     21  H   UNL     1      46.716   5.315  16.160  0.00  0.00    +0.000 HD
BRANCH  19  22
ATOM     22  C   UNL     1      46.364   5.219  13.613  0.00  0.00    +0.000 A 
ATOM     23  C   UNL     1      47.176   6.322  13.377  0.00  0.00    +0.000 A 
ATOM     24  S   UNL     1      46.496   7.447  12.290  0.00  0.00    +0.000 S 
ATOM     25  C   UNL     1      45.071   6.530  12.143  0.00  0.00    +0.000 A 
ATOM     26  N   UNL     1      44.048   6.945  11.350  0.00  0.00    +0.000 NA
ATOM     27  C   UNL     1      43.018   6.167  11.354  0.00  0.00    +0.000 A 
ATOM     28  N   UNL     1      42.916   5.010  12.083  0.00  0.00    +0.000 N 
ATOM     29  C   UNL     1      43.927   4.544  12.885  0.00  0.00    +0.000 A 
ATOM     30  O   UNL     1      43.812   3.495  13.509  0.00  0.00    +0.000 OA
ATOM     31  C   UNL     1      45.115   5.378  12.909  0.00  0.00    +0.000 A 
ATOM     32  H   UNL     1      42.079   4.446  12.049  0.00  0.00    +0.000 HD
ENDBRANCH  19  22
ENDBRANCH  17  18
ENDBRANCH   4  17
TORSDOF 6
ENDMDL
