MODEL 1
REMARK VINA RESULT:    -7.698      0.000      0.000
REMARK INTER + INTRA:         -11.150
REMARK INTER:                 -10.398
REMARK INTRA:                  -0.752
REMARK UNBOUND:                -0.752
REMARK  Name = 
REMARK  6 active torsions:
REMARK  status: ('A' for Active; 'I' for Inactive)
REMARK    1  A    between atoms: C_2  and  C_18
REMARK    2  A    between atoms: N_3  and  C_4
REMARK    3  A    between atoms: C_4  and  C_5
REMARK    4  A    between atoms: C_8  and  C_9
REMARK    5  A    between atoms: C_9  and  N_10
REMARK    6  A    between atoms: N_10  and  C_11
REMARK                            x       y       z     vdW  Elec       q    Type
REMARK                         _______ _______ _______ _____ _____    ______ ____
ROOT
ATOM      1  O   UNL     1      49.042   6.720  13.324  0.00  0.00    +0.000 OA
ATOM      2  C   UNL     1      48.169   6.526  14.167  0.00  0.00    +0.000 C 
ATOM      3  N   UNL     1      46.833   6.590  13.873  0.00  0.00    +0.000 N 
ATOM      4  H   UNL     1      46.161   6.595  14.633  0.00  0.00    +0.000 HD
ENDROOT
BRANCH   2   5
ATOM      5  C   UNL     1      48.504   6.171  15.549  0.00  0.00    +0.000 A 
ATOM      6  C   UNL     1      49.174   7.082  16.356  0.00  0.00    +0.000 A 
ATOM      7  S   UNL     1      49.447   6.511  17.939  0.00  0.00    +0.000 S 
ATOM      8  C   UNL     1      48.650   5.045  17.609  0.00  0.00    +0.000 A 
ATOM      9  N   UNL     1      48.485   4.104  18.575  0.00  0.00    +0.000 NA
ATOM     10  C   UNL     1      47.821   3.059  18.195  0.00  0.00    +0.000 A 
ATOM     11  N   UNL     1      47.329   2.865  16.934  0.00  0.00    +0.000 N 
ATOM     12  C   UNL     1      47.556   3.745  15.902  0.00  0.00    +0.000 A 
ATOM     13  O   UNL     1      47.257   3.461  14.747  0.00  0.00    +0.000 OA
ATOM     14  C   UNL     1      48.225   4.971  16.296  0.00  0.00    +0.000 A 
ATOM     15  H   UNL     1      46.857   2.005  16.687  0.00  0.00    +0.000 HD
ENDBRANCH   2   5
BRANCH   3  16
ATOM     16  C   UNL     1      46.343   7.018  12.590  0.00  0.00    +0.000 C 
BRANCH  16  17
ATOM     17  C   UNL     1      45.818   5.866  11.787  0.00  0.00    +0.000 A 
ATOM     18  C   UNL     1      45.730   5.932  10.396  0.00  0.00    +0.000 A 
ATOM     19  C   UNL     1      45.278   4.828   9.678  0.00  0.00    +0.000 A 
ATOM     20  C   UNL     1      44.915   3.672  10.369  0.00  0.00    +0.000 A 
ATOM     21  N   UNL     1      44.958   3.600  11.723  0.00  0.00    +0.000 NA
ATOM     22  C   UNL     1      45.389   4.693  12.394  0.00  0.00    +0.000 A 
BRANCH  20  23
ATOM     23  C   UNL     1      44.530   2.416   9.603  0.00  0.00    +0.000 C 
BRANCH  23  24
ATOM     24  N   UNL     1      45.055   2.376   8.234  0.00  0.00    +0.000 NA
ATOM     25  H   UNL     1      44.749   3.189   7.705  0.00  0.00    +0.000 HD
BRANCH  24  26
ATOM     26  C   UNL     1      46.510   2.194   8.174  0.00  0.00    +0.000 C 
ATOM     27  C   UNL     1      47.217   3.027   7.119  0.00  0.00    +0.000 C 
ATOM     28  C   UNL     1      47.085   2.202   5.857  0.00  0.00    +0.000 C 
ATOM     29  O   UNL     1      46.963   0.832   6.254  0.00  0.00    +0.000 OA
ATOM     30  C   UNL     1      46.860   0.782   7.687  0.00  0.00    +0.000 C 
ENDBRANCH  24  26
ENDBRANCH  23  24
ENDBRANCH  20  23
ENDBRANCH  16  17
ENDBRANCH   3  16
TORSDOF 6
ENDMDL
MODEL 2
REMARK VINA RESULT:    -7.093      4.183      8.907
REMARK INTER + INTRA:         -10.333
REMARK INTER:                  -9.592
REMARK INTRA:                  -0.741
REMARK UNBOUND:                -0.752
REMARK  Name = 
REMARK  6 active torsions:
REMARK  status: ('A' for Active; 'I' for Inactive)
REMARK    1  A    between atoms: C_2  and  C_18
REMARK    2  A    between atoms: N_3  and  C_4
REMARK    3  A    between atoms: C_4  and  C_5
REMARK    4  A    between atoms: C_8  and  C_9
REMARK    5  A    between atoms: C_9  and  N_10
REMARK    6  A    between atoms: N_10  and  C_11
REMARK                            x       y       z     vdW  Elec       q    Type
REMARK                         _______ _______ _______ _____ _____    ______ ____
ROOT
ATOM      1  O   UNL     1      47.417   3.256  13.955  0.00  0.00    +0.000 OA
ATOM      2  C   UNL     1      46.876   4.246  14.446  0.00  0.00    +0.000 C 
ATOM      3  N   UNL     1      46.756   4.425  15.798  0.00  0.00    +0.000 N 
ATOM      4  H   UNL     1      46.153   5.163  16.146  0.00  0.00    +0.000 HD
ENDROOT
BRANCH   2   5
ATOM      5  C   UNL     1      46.351   5.327  13.608  0.00  0.00    +0.000 A 
ATOM      6  C   UNL     1      47.132   6.447  13.350  0.00  0.00    +0.000 A 
ATOM      7  S   UNL     1      46.372   7.583  12.330  0.00  0.00    +0.000 S 
ATOM      8  C   UNL     1      44.991   6.601  12.172  0.00  0.00    +0.000 A 
ATOM      9  N   UNL     1      43.955   6.974  11.376  0.00  0.00    +0.000 NA
ATOM     10  C   UNL     1      42.992   6.109  11.315  0.00  0.00    +0.000 A 
ATOM     11  N   UNL     1      42.966   4.922  11.994  0.00  0.00    +0.000 N 
ATOM     12  C   UNL     1      43.946   4.551  12.883  0.00  0.00    +0.000 A 
ATOM     13  O   UNL     1      43.811   3.570  13.606  0.00  0.00    +0.000 OA
ATOM     14  C   UNL     1      45.087   5.447  12.926  0.00  0.00    +0.000 A 
ATOM     15  H   UNL     1      42.162   4.311  11.939  0.00  0.00    +0.000 HD
ENDBRANCH   2   5
BRANCH   3  16
ATOM     16  C   UNL     1      47.134   3.415  16.749  0.00  0.00    +0.000 C 
BRANCH  16  17
ATOM     17  C   UNL     1      48.600   3.468  17.060  0.00  0.00    +0.000 A 
ATOM     18  C   UNL     1      49.223   4.663  17.420  0.00  0.00    +0.000 A 
ATOM     19  C   UNL     1      50.577   4.667  17.744  0.00  0.00    +0.000 A 
ATOM     20  C   UNL     1      51.290   3.469  17.696  0.00  0.00    +0.000 A 
ATOM     21  N   UNL     1      50.711   2.303  17.313  0.00  0.00    +0.000 NA
ATOM     22  C   UNL     1      49.398   2.332  16.992  0.00  0.00    +0.000 A 
BRANCH  20  23
ATOM     23  C   UNL     1      52.739   3.426  18.156  0.00  0.00    +0.000 C 
BRANCH  23  24
ATOM     24  N   UNL     1      53.103   2.182  18.841  0.00  0.00    +0.000 NA
ATOM     25  H   UNL     1      52.318   1.534  18.858  0.00  0.00    +0.000 HD
BRANCH  24  26
ATOM     26  C   UNL     1      54.321   1.559  18.308  0.00  0.00    +0.000 C 
ATOM     27  C   UNL     1      54.087   0.340  17.433  0.00  0.00    +0.000 C 
ATOM     28  C   UNL     1      53.965  -0.798  18.422  0.00  0.00    +0.000 C 
ATOM     29  O   UNL     1      54.704  -0.429  19.591  0.00  0.00    +0.000 OA
ATOM     30  C   UNL     1      55.146   0.930  19.438  0.00  0.00    +0.000 C 
ENDBRANCH  24  26
ENDBRANCH  23  24
ENDBRANCH  20  23
ENDBRANCH  16  17
ENDBRANCH   3  16
TORSDOF 6
ENDMDL
MODEL 3
REMARK VINA RESULT:    -6.949      3.105      3.882
REMARK INTER + INTRA:         -10.139
REMARK INTER:                  -8.751
REMARK INTRA:                  -1.388
REMARK UNBOUND:                -0.752
REMARK  Name = 
REMARK  6 active torsions:
REMARK  status: ('A' for Active; 'I' for Inactive)
REMARK    1  A    between atoms: C_2  and  C_18
REMARK    2  A    between atoms: N_3  and  C_4
REMARK    3  A    between atoms: C_4  and  C_5
REMARK    4  A    between atoms: C_8  and  C_9
REMARK    5  A    between atoms: C_9  and  N_10
REMARK    6  A    between atoms: N_10  and  C_11
REMARK                            x       y       z     vdW  Elec       q    Type
REMARK                         _______ _______ _______ _____ _____    ______ ____
ROOT
ATOM      1  O   UNL     1      48.624   8.632  16.047  0.00  0.00    +0.000 OA
ATOM      2  C   UNL     1      49.022   7.516  15.719  0.00  0.00    +0.000 C 
ATOM      3  N   UNL     1      49.320   7.191  14.423  0.00  0.00    +0.000 N 
ATOM      4  H   UNL     1      49.474   6.219  14.180  0.00  0.00    +0.000 HD
ENDROOT
BRANCH   2   5
ATOM      5  C   UNL     1      49.240   6.458  16.710  0.00  0.00    +0.000 A 
ATOM      6  C   UNL     1      50.174   6.639  17.723  0.00  0.00    +0.000 A 
ATOM      7  S   UNL     1      50.267   5.320  18.800  0.00  0.00    +0.000 S 
ATOM      8  C   UNL     1      49.042   4.481  17.969  0.00  0.00    +0.000 A 
ATOM      9  N   UNL     1      48.597   3.276  18.409  0.00  0.00    +0.000 NA
ATOM     10  C   UNL     1      47.631   2.774  17.706  0.00  0.00    +0.000 A 
ATOM     11  N   UNL     1      47.090   3.362  16.596  0.00  0.00    +0.000 N 
ATOM     12  C   UNL     1      47.574   4.531  16.061  0.00  0.00    +0.000 A 
ATOM     13  O   UNL     1      47.189   4.939  14.970  0.00  0.00    +0.000 OA
ATOM     14  C   UNL     1      48.602   5.174  16.858  0.00  0.00    +0.000 A 
ATOM     15  H   UNL     1      46.367   2.896  16.063  0.00  0.00    +0.000 HD
ENDBRANCH   2   5
BRANCH   3  16
ATOM     16  C   UNL     1      49.069   8.086  13.324  0.00  0.00    +0.000 C 
BRANCH  16  17
ATOM     17  C   UNL     1      47.725   7.839  12.706  0.00  0.00    +0.000 A 
ATOM     18  C   UNL     1      47.495   6.735  11.886  0.00  0.00    +0.000 A 
ATOM     19  C   UNL     1      46.222   6.513  11.364  0.00  0.00    +0.000 A 
ATOM     20  C   UNL     1      45.198   7.410  11.669  0.00  0.00    +0.000 A 
ATOM     21  N   UNL     1      45.411   8.509  12.435  0.00  0.00    +0.000 NA
ATOM     22  C   UNL     1      46.659   8.705  12.918  0.00  0.00    +0.000 A 
BRANCH  20  23
ATOM     23  C   UNL     1      43.777   7.127  11.209  0.00  0.00    +0.000 C 
BRANCH  23  24
ATOM     24  N   UNL     1      43.606   5.805  10.599  0.00  0.00    +0.000 NA
ATOM     25  H   UNL     1      44.507   5.399  10.355  0.00  0.00    +0.000 HD
BRANCH  24  26
ATOM     26  C   UNL     1      42.790   4.892  11.407  0.00  0.00    +0.000 C 
ATOM     27  C   UNL     1      42.916   5.078  12.910  0.00  0.00    +0.000 C 
ATOM     28  C   UNL     1      44.141   4.268  13.273  0.00  0.00    +0.000 C 
ATOM     29  O   UNL     1      44.273   3.231  12.294  0.00  0.00    +0.000 OA
ATOM     30  C   UNL     1      43.291   3.449  11.267  0.00  0.00    +0.000 C 
ENDBRANCH  24  26
ENDBRANCH  23  24
ENDBRANCH  20  23
ENDBRANCH  16  17
ENDBRANCH   3  16
TORSDOF 6
ENDMDL
MODEL 4
REMARK VINA RESULT:    -6.892      4.040      9.126
REMARK INTER + INTRA:         -10.062
REMARK INTER:                  -9.210
REMARK INTRA:                  -0.852
REMARK UNBOUND:                -0.752
REMARK  Name = 
REMARK  6 active torsions:
REMARK  status: ('A' for Active; 'I' for Inactive)
REMARK    1  A    between atoms: C_2  and  C_18
REMARK    2  A    between atoms: N_3  and  C_4
REMARK    3  A    between atoms: C_4  and  C_5
REMARK    4  A    between atoms: C_8  and  C_9
REMARK    5  A    between atoms: C_9  and  N_10
REMARK    6  A    between atoms: N_10  and  C_11
REMARK                            x       y       z     vdW  Elec       q    Type
REMARK                         _______ _______ _______ _____ _____    ______ ____
ROOT
ATOM      1  O   UNL     1      47.055   2.997  14.129  0.00  0.00    +0.000 OA
ATOM      2  C   UNL     1      46.828   4.123  14.568  0.00  0.00    +0.000 C 
ATOM      3  N   UNL     1      46.927   4.429  15.899  0.00  0.00    +0.000 N 
ATOM      4  H   UNL     1      46.565   5.316  16.230  0.00  0.00    +0.000 HD
ENDROOT
BRANCH   2   5
ATOM      5  C   UNL     1      46.469   5.233  13.682  0.00  0.00    +0.000 A 
ATOM      6  C   UNL     1      47.402   6.221  13.395  0.00  0.00    +0.000 A 
ATOM      7  S   UNL     1      46.820   7.412  12.321  0.00  0.00    +0.000 S 
ATOM      8  C   UNL     1      45.316   6.628  12.179  0.00  0.00    +0.000 A 
ATOM      9  N   UNL     1      44.351   7.110  11.354  0.00  0.00    +0.000 NA
ATOM     10  C   UNL     1      43.276   6.388  11.310  0.00  0.00    +0.000 A 
ATOM     11  N   UNL     1      43.077   5.243  12.032  0.00  0.00    +0.000 N 
ATOM     12  C   UNL     1      43.986   4.774  12.949  0.00  0.00    +0.000 A 
ATOM     13  O   UNL     1      43.707   3.851  13.707  0.00  0.00    +0.000 OA
ATOM     14  C   UNL     1      45.241   5.502  12.976  0.00  0.00    +0.000 A 
ATOM     15  H   UNL     1      42.196   4.749  11.988  0.00  0.00    +0.000 HD
ENDBRANCH   2   5
BRANCH   3  16
ATOM     16  C   UNL     1      47.176   3.431  16.906  0.00  0.00    +0.000 C 
BRANCH  16  17
ATOM     17  C   UNL     1      48.644   3.182  17.087  0.00  0.00    +0.000 A 
ATOM     18  C   UNL     1      49.448   4.071  17.800  0.00  0.00    +0.000 A 
ATOM     19  C   UNL     1      50.799   3.786  17.987  0.00  0.00    +0.000 A 
ATOM     20  C   UNL     1      51.325   2.613  17.447  0.00  0.00    +0.000 A 
ATOM     21  N   UNL     1      50.568   1.754  16.719  0.00  0.00    +0.000 NA
ATOM     22  C   UNL     1      49.263   2.062  16.545  0.00  0.00    +0.000 A 
BRANCH  20  23
ATOM     23  C   UNL     1      52.766   2.222  17.735  0.00  0.00    +0.000 C 
BRANCH  23  24
ATOM     24  N   UNL     1      53.124   2.291  19.155  0.00  0.00    +0.000 NA
ATOM     25  H   UNL     1      53.157   1.360  19.566  0.00  0.00    +0.000 HD
BRANCH  24  26
ATOM     26  C   UNL     1      54.354   3.051  19.410  0.00  0.00    +0.000 C 
ATOM     27  C   UNL     1      54.325   3.916  20.658  0.00  0.00    +0.000 C 
ATOM     28  C   UNL     1      53.659   5.194  20.196  0.00  0.00    +0.000 C 
ATOM     29  O   UNL     1      53.909   5.324  18.793  0.00  0.00    +0.000 OA
ATOM     30  C   UNL     1      54.559   4.126  18.335  0.00  0.00    +0.000 C 
ENDBRANCH  24  26
ENDBRANCH  23  24
ENDBRANCH  20  23
ENDBRANCH  16  17
ENDBRANCH   3  16
TORSDOF 6
ENDMDL
MODEL 5
REMARK VINA RESULT:    -6.884      3.544      7.973
REMARK INTER + INTRA:         -10.051
REMARK INTER:                  -8.993
REMARK INTRA:                  -1.058
REMARK UNBOUND:                -0.752
REMARK  Name = 
REMARK  6 active torsions:
REMARK  status: ('A' for Active; 'I' for Inactive)
REMARK    1  A    between atoms: C_2  and  C_18
REMARK    2  A    between atoms: N_3  and  C_4
REMARK    3  A    between atoms: C_4  and  C_5
REMARK    4  A    between atoms: C_8  and  C_9
REMARK    5  A    between atoms: C_9  and  N_10
REMARK    6  A    between atoms: N_10  and  C_11
REMARK                            x       y       z     vdW  Elec       q    Type
REMARK                         _______ _______ _______ _____ _____    ______ ____
ROOT
ATOM      1  O   UNL     1      45.352   7.780  12.051  0.00  0.00    +0.000 OA
ATOM      2  C   UNL     1      46.084   6.922  11.560  0.00  0.00    +0.000 C 
ATOM      3  N   UNL     1      47.448   6.968  11.668  0.00  0.00    +0.000 N 
ATOM      4  H   UNL     1      48.009   6.340  11.103  0.00  0.00    +0.000 HD
ENDROOT
BRANCH   2   5
ATOM      5  C   UNL     1      45.537   5.763  10.851  0.00  0.00    +0.000 A 
ATOM      6  C   UNL     1      45.823   5.575   9.504  0.00  0.00    +0.000 A 
ATOM      7  S   UNL     1      45.131   4.157   8.857  0.00  0.00    +0.000 S 
ATOM      8  C   UNL     1      44.457   3.731  10.360  0.00  0.00    +0.000 A 
ATOM      9  N   UNL     1      43.762   2.574  10.513  0.00  0.00    +0.000 NA
ATOM     10  C   UNL     1      43.346   2.357  11.721  0.00  0.00    +0.000 A 
ATOM     11  N   UNL     1      43.545   3.203  12.777  0.00  0.00    +0.000 N 
ATOM     12  C   UNL     1      44.157   4.427  12.646  0.00  0.00    +0.000 A 
ATOM     13  O   UNL     1      44.163   5.237  13.567  0.00  0.00    +0.000 OA
ATOM     14  C   UNL     1      44.713   4.681  11.330  0.00  0.00    +0.000 A 
ATOM     15  H   UNL     1      43.154   2.998  13.687  0.00  0.00    +0.000 HD
ENDBRANCH   2   5
BRANCH   3  16
ATOM     16  C   UNL     1      48.141   8.087  12.249  0.00  0.00    +0.000 C 
BRANCH  16  17
ATOM     17  C   UNL     1      48.442   7.858  13.700  0.00  0.00    +0.000 A 
ATOM     18  C   UNL     1      48.467   8.914  14.612  0.00  0.00    +0.000 A 
ATOM     19  C   UNL     1      48.707   8.659  15.960  0.00  0.00    +0.000 A 
ATOM     20  C   UNL     1      48.925   7.345  16.374  0.00  0.00    +0.000 A 
ATOM     21  N   UNL     1      48.940   6.309  15.498  0.00  0.00    +0.000 NA
ATOM     22  C   UNL     1      48.717   6.588  14.193  0.00  0.00    +0.000 A 
BRANCH  20  23
ATOM     23  C   UNL     1      49.073   7.027  17.854  0.00  0.00    +0.000 C 
BRANCH  23  24
ATOM     24  N   UNL     1      49.570   5.674  18.119  0.00  0.00    +0.000 NA
ATOM     25  H   UNL     1      50.505   5.703  18.520  0.00  0.00    +0.000 HD
BRANCH  24  26
ATOM     26  C   UNL     1      48.649   4.863  18.924  0.00  0.00    +0.000 C 
ATOM     27  C   UNL     1      48.596   3.391  18.550  0.00  0.00    +0.000 C 
ATOM     28  C   UNL     1      47.604   3.344  17.408  0.00  0.00    +0.000 C 
ATOM     29  O   UNL     1      46.714   4.454  17.569  0.00  0.00    +0.000 OA
ATOM     30  C   UNL     1      47.194   5.266  18.653  0.00  0.00    +0.000 C 
ENDBRANCH  24  26
ENDBRANCH  23  24
ENDBRANCH  20  23
ENDBRANCH  16  17
ENDBRANCH   3  16
TORSDOF 6
ENDMDL
MODEL 6
REMARK VINA RESULT:    -6.580      1.541      2.116
REMARK INTER + INTRA:          -9.640
REMARK INTER:                  -9.050
REMARK INTRA:                  -0.591
REMARK UNBOUND:                -0.752
REMARK  Name = 
REMARK  6 active torsions:
REMARK  status: ('A' for Active; 'I' for Inactive)
REMARK    1  A    between atoms: C_2  and  C_18
REMARK    2  A    between atoms: N_3  and  C_4
REMARK    3  A    between atoms: C_4  and  C_5
REMARK    4  A    between atoms: C_8  and  C_9
REMARK    5  A    between atoms: C_9  and  N_10
REMARK    6  A    between atoms: N_10  and  C_11
REMARK                            x       y       z     vdW  Elec       q    Type
REMARK                         _______ _______ _______ _____ _____    ______ ____
ROOT
ATOM      1  O   UNL     1      47.957   6.676  13.842  0.00  0.00    +0.000 OA
ATOM      2  C   UNL     1      47.235   5.828  14.363  0.00  0.00    +0.000 C 
ATOM      3  N   UNL     1      45.940   5.619  13.969  0.00  0.00    +0.000 N 
ATOM      4  H   UNL     1      45.338   5.036  14.540  0.00  0.00    +0.000 HD
ENDROOT
BRANCH   2   5
ATOM      5  C   UNL     1      47.729   4.949  15.427  0.00  0.00    +0.000 A 
ATOM      6  C   UNL     1      47.515   3.579  15.351  0.00  0.00    +0.000 A 
ATOM      7  S   UNL     1      48.188   2.714  16.657  0.00  0.00    +0.000 S 
ATOM      8  C   UNL     1      48.816   4.137  17.349  0.00  0.00    +0.000 A 
ATOM      9  N   UNL     1      49.560   4.094  18.484  0.00  0.00    +0.000 NA
ATOM     10  C   UNL     1      50.011   5.245  18.871  0.00  0.00    +0.000 A 
ATOM     11  N   UNL     1      49.765   6.431  18.235  0.00  0.00    +0.000 N 
ATOM     12  C   UNL     1      48.939   6.533  17.141  0.00  0.00    +0.000 A 
ATOM     13  O   UNL     1      48.596   7.625  16.702  0.00  0.00    +0.000 OA
ATOM     14  C   UNL     1      48.475   5.260  16.621  0.00  0.00    +0.000 A 
ATOM     15  H   UNL     1      50.108   7.304  18.614  0.00  0.00    +0.000 HD
ENDBRANCH   2   5
BRANCH   3  16
ATOM     16  C   UNL     1      45.280   6.460  13.006  0.00  0.00    +0.000 C 
BRANCH  16  17
ATOM     17  C   UNL     1      45.087   5.755  11.697  0.00  0.00    +0.000 A 
ATOM     18  C   UNL     1      45.902   6.029  10.598  0.00  0.00    +0.000 A 
ATOM     19  C   UNL     1      45.723   5.325   9.410  0.00  0.00    +0.000 A 
ATOM     20  C   UNL     1      44.721   4.357   9.340  0.00  0.00    +0.000 A 
ATOM     21  N   UNL     1      43.895   4.101  10.386  0.00  0.00    +0.000 NA
ATOM     22  C   UNL     1      44.084   4.809  11.522  0.00  0.00    +0.000 A 
BRANCH  20  23
ATOM     23  C   UNL     1      44.581   3.494   8.096  0.00  0.00    +0.000 C 
BRANCH  23  24
ATOM     24  N   UNL     1      45.134   2.145   8.249  0.00  0.00    +0.000 NA
ATOM     25  H   UNL     1      44.667   1.489   7.626  0.00  0.00    +0.000 HD
BRANCH  24  26
ATOM     26  C   UNL     1      46.594   2.094   8.110  0.00  0.00    +0.000 C 
ATOM     27  C   UNL     1      47.173   3.042   7.073  0.00  0.00    +0.000 C 
ATOM     28  C   UNL     1      47.046   2.278   5.773  0.00  0.00    +0.000 C 
ATOM     29  O   UNL     1      47.061   0.883   6.095  0.00  0.00    +0.000 OA
ATOM     30  C   UNL     1      47.037   0.747   7.526  0.00  0.00    +0.000 C 
ENDBRANCH  24  26
ENDBRANCH  23  24
ENDBRANCH  20  23
ENDBRANCH  16  17
ENDBRANCH   3  16
TORSDOF 6
ENDMDL
MODEL 7
REMARK VINA RESULT:    -6.336      4.458      7.368
REMARK INTER + INTRA:          -9.310
REMARK INTER:                  -8.484
REMARK INTRA:                  -0.826
REMARK UNBOUND:                -0.752
REMARK  Name = 
REMARK  6 active torsions:
REMARK  status: ('A' for Active; 'I' for Inactive)
REMARK    1  A    between atoms: C_2  and  C_18
REMARK    2  A    between atoms: N_3  and  C_4
REMARK    3  A    between atoms: C_4  and  C_5
REMARK    4  A    between atoms: C_8  and  C_9
REMARK    5  A    between atoms: C_9  and  N_10
REMARK    6  A    between atoms: N_10  and  C_11
REMARK                            x       y       z     vdW  Elec       q    Type
REMARK                         _______ _______ _______ _____ _____    ______ ____
ROOT
ATOM      1  O   UNL     1      44.170   7.581  11.162  0.00  0.00    +0.000 OA
ATOM      2  C   UNL     1      44.807   6.684  11.712  0.00  0.00    +0.000 C 
ATOM      3  N   UNL     1      45.819   6.935  12.598  0.00  0.00    +0.000 N 
ATOM      4  H   UNL     1      46.424   6.174  12.887  0.00  0.00    +0.000 HD
ENDROOT
BRANCH   2   5
ATOM      5  C   UNL     1      44.497   5.271  11.479  0.00  0.00    +0.000 A 
ATOM      6  C   UNL     1      43.757   4.560  12.415  0.00  0.00    +0.000 A 
ATOM      7  S   UNL     1      43.465   2.942  11.960  0.00  0.00    +0.000 S 
ATOM      8  C   UNL     1      44.288   3.149  10.485  0.00  0.00    +0.000 A 
ATOM      9  N   UNL     1      44.367   2.138   9.580  0.00  0.00    +0.000 NA
ATOM     10  C   UNL     1      44.983   2.451   8.483  0.00  0.00    +0.000 A 
ATOM     11  N   UNL     1      45.540   3.673   8.225  0.00  0.00    +0.000 N 
ATOM     12  C   UNL     1      45.567   4.691   9.148  0.00  0.00    +0.000 A 
ATOM     13  O   UNL     1      46.226   5.707   8.956  0.00  0.00    +0.000 OA
ATOM     14  C   UNL     1      44.820   4.418  10.362  0.00  0.00    +0.000 A 
ATOM     15  H   UNL     1      46.048   3.840   7.366  0.00  0.00    +0.000 HD
ENDBRANCH   2   5
BRANCH   3  16
ATOM     16  C   UNL     1      46.306   8.264  12.860  0.00  0.00    +0.000 C 
BRANCH  16  17
ATOM     17  C   UNL     1      47.708   8.448  12.360  0.00  0.00    +0.000 A 
ATOM     18  C   UNL     1      48.205   9.712  12.043  0.00  0.00    +0.000 A 
ATOM     19  C   UNL     1      49.526   9.851  11.623  0.00  0.00    +0.000 A 
ATOM     20  C   UNL     1      50.329   8.715  11.521  0.00  0.00    +0.000 A 
ATOM     21  N   UNL     1      49.853   7.472  11.789  0.00  0.00    +0.000 NA
ATOM     22  C   UNL     1      48.563   7.367  12.183  0.00  0.00    +0.000 A 
BRANCH  20  23
ATOM     23  C   UNL     1      51.804   8.852  11.178  0.00  0.00    +0.000 C 
BRANCH  23  24
ATOM     24  N   UNL     1      52.561   7.605  11.318  0.00  0.00    +0.000 NA
ATOM     25  H   UNL     1      51.945   6.797  11.247  0.00  0.00    +0.000 HD
BRANCH  24  26
ATOM     26  C   UNL     1      53.704   7.510  10.402  0.00  0.00    +0.000 C 
ATOM     27  C   UNL     1      53.454   8.057   9.007  0.00  0.00    +0.000 C 
ATOM     28  C   UNL     1      52.803   6.903   8.277  0.00  0.00    +0.000 C 
ATOM     29  O   UNL     1      53.248   5.696   8.904  0.00  0.00    +0.000 OA
ATOM     30  C   UNL     1      54.012   6.045  10.070  0.00  0.00    +0.000 C 
ENDBRANCH  24  26
ENDBRANCH  23  24
ENDBRANCH  20  23
ENDBRANCH  16  17
ENDBRANCH   3  16
TORSDOF 6
ENDMDL
MODEL 8
REMARK VINA RESULT:    -6.240      3.060      4.032
REMARK INTER + INTRA:          -9.180
REMARK INTER:                  -8.277
REMARK INTRA:                  -0.903
REMARK UNBOUND:                -0.752
REMARK  Name = 
REMARK  6 active torsions:
REMARK  status: ('A' for Active; 'I' for Inactive)
REMARK    1  A    between atoms: C_2  and  C_18
REMARK    2  A    between atoms: N_3  and  C_4
REMARK    3  A    between atoms: C_4  and  C_5
REMARK    4  A    between atoms: C_8  and  C_9
REMARK    5  A    between atoms: C_9  and  N_10
REMARK    6  A    between atoms: N_10  and  C_11
REMARK                            x       y       z     vdW  Elec       q    Type
REMARK                         _______ _______ _______ _____ _____    ______ ____
ROOT
ATOM      1  O   UNL     1      45.867   8.626  13.267  0.00  0.00    +0.000 OA
ATOM      2  C   UNL     1      46.800   7.872  13.537  0.00  0.00    +0.000 C 
ATOM      3  N   UNL     1      46.683   6.509  13.491  0.00  0.00    +0.000 N 
ATOM      4  H   UNL     1      47.420   5.936  13.888  0.00  0.00    +0.000 HD
ENDROOT
BRANCH   2   5
ATOM      5  C   UNL     1      48.124   8.389  13.896  0.00  0.00    +0.000 A 
ATOM      6  C   UNL     1      48.315   9.016  15.121  0.00  0.00    +0.000 A 
ATOM      7  S   UNL     1      49.924   9.520  15.379  0.00  0.00    +0.000 S 
ATOM      8  C   UNL     1      50.422   8.888  13.880  0.00  0.00    +0.000 A 
ATOM      9  N   UNL     1      51.724   8.945  13.494  0.00  0.00    +0.000 NA
ATOM     10  C   UNL     1      51.967   8.384  12.351  0.00  0.00    +0.000 A 
ATOM     11  N   UNL     1      51.022   7.795  11.557  0.00  0.00    +0.000 N 
ATOM     12  C   UNL     1      49.683   7.801  11.862  0.00  0.00    +0.000 A 
ATOM     13  O   UNL     1      48.843   7.425  11.051  0.00  0.00    +0.000 OA
ATOM     14  C   UNL     1      49.368   8.345  13.171  0.00  0.00    +0.000 A 
ATOM     15  H   UNL     1      51.269   7.415  10.652  0.00  0.00    +0.000 HD
ENDBRANCH   2   5
BRANCH   3  16
ATOM     16  C   UNL     1      45.428   5.848  13.250  0.00  0.00    +0.000 C 
BRANCH  16  17
ATOM     17  C   UNL     1      45.374   5.249  11.876  0.00  0.00    +0.000 A 
ATOM     18  C   UNL     1      44.911   3.949  11.670  0.00  0.00    +0.000 A 
ATOM     19  C   UNL     1      44.832   3.440  10.375  0.00  0.00    +0.000 A 
ATOM     20  C   UNL     1      45.227   4.243   9.305  0.00  0.00    +0.000 A 
ATOM     21  N   UNL     1      45.713   5.496   9.489  0.00  0.00    +0.000 NA
ATOM     22  C   UNL     1      45.790   5.959  10.757  0.00  0.00    +0.000 A 
BRANCH  20  23
ATOM     23  C   UNL     1      45.042   3.754   7.877  0.00  0.00    +0.000 C 
BRANCH  23  24
ATOM     24  N   UNL     1      46.252   3.859   7.057  0.00  0.00    +0.000 NA
ATOM     25  H   UNL     1      47.072   4.017   7.638  0.00  0.00    +0.000 HD
BRANCH  24  26
ATOM     26  C   UNL     1      46.435   2.727   6.141  0.00  0.00    +0.000 C 
ATOM     27  C   UNL     1      46.237   1.357   6.767  0.00  0.00    +0.000 C 
ATOM     28  C   UNL     1      47.583   1.045   7.386  0.00  0.00    +0.000 C 
ATOM     29  O   UNL     1      48.572   1.764   6.642  0.00  0.00    +0.000 OA
ATOM     30  C   UNL     1      47.900   2.618   5.701  0.00  0.00    +0.000 C 
ENDBRANCH  24  26
ENDBRANCH  23  24
ENDBRANCH  20  23
ENDBRANCH  16  17
ENDBRANCH   3  16
TORSDOF 6
ENDMDL
MODEL 9
REMARK VINA RESULT:    -6.181      5.521      7.536
REMARK INTER + INTRA:          -9.101
REMARK INTER:                  -8.284
REMARK INTRA:                  -0.817
REMARK UNBOUND:                -0.752
REMARK  Name = 
REMARK  6 active torsions:
REMARK  status: ('A' for Active; 'I' for Inactive)
REMARK    1  A    between atoms: C_2  and  C_18
REMARK    2  A    between atoms: N_3  and  C_4
REMARK    3  A    between atoms: C_4  and  C_5
REMARK    4  A    between atoms: C_8  and  C_9
REMARK    5  A    between atoms: C_9  and  N_10
REMARK    6  A    between atoms: N_10  and  C_11
REMARK                            x       y       z     vdW  Elec       q    Type
REMARK                         _______ _______ _______ _____ _____    ______ ____
ROOT
ATOM      1  O   UNL     1      52.435   8.835   9.548  0.00  0.00    +0.000 OA
ATOM      2  C   UNL     1      52.459   7.749  10.125  0.00  0.00    +0.000 C 
ATOM      3  N   UNL     1      51.506   7.377  11.035  0.00  0.00    +0.000 N 
ATOM      4  H   UNL     1      51.664   6.554  11.607  0.00  0.00    +0.000 HD
ENDROOT
BRANCH   2   5
ATOM      5  C   UNL     1      53.499   6.756   9.846  0.00  0.00    +0.000 A 
ATOM      6  C   UNL     1      54.485   6.499  10.792  0.00  0.00    +0.000 A 
ATOM      7  S   UNL     1      55.588   5.292  10.309  0.00  0.00    +0.000 S 
ATOM      8  C   UNL     1      54.767   5.049   8.839  0.00  0.00    +0.000 A 
ATOM      9  N   UNL     1      55.173   4.097   7.959  0.00  0.00    +0.000 NA
ATOM     10  C   UNL     1      54.428   3.992   6.904  0.00  0.00    +0.000 A 
ATOM     11  N   UNL     1      53.331   4.767   6.645  0.00  0.00    +0.000 N 
ATOM     12  C   UNL     1      52.942   5.804   7.460  0.00  0.00    +0.000 A 
ATOM     13  O   UNL     1      52.067   6.590   7.115  0.00  0.00    +0.000 OA
ATOM     14  C   UNL     1      53.696   5.910   8.695  0.00  0.00    +0.000 A 
ATOM     15  H   UNL     1      52.817   4.667   5.780  0.00  0.00    +0.000 HD
ENDBRANCH   2   5
BRANCH   3  16
ATOM     16  C   UNL     1      50.476   8.273  11.487  0.00  0.00    +0.000 C 
BRANCH  16  17
ATOM     17  C   UNL     1      49.295   7.528  12.034  0.00  0.00    +0.000 A 
ATOM     18  C   UNL     1      48.119   7.391  11.296  0.00  0.00    +0.000 A 
ATOM     19  C   UNL     1      47.057   6.655  11.816  0.00  0.00    +0.000 A 
ATOM     20  C   UNL     1      47.189   6.072  13.076  0.00  0.00    +0.000 A 
ATOM     21  N   UNL     1      48.311   6.224  13.825  0.00  0.00    +0.000 NA
ATOM     22  C   UNL     1      49.321   6.954  13.298  0.00  0.00    +0.000 A 
BRANCH  20  23
ATOM     23  C   UNL     1      46.091   5.168  13.616  0.00  0.00    +0.000 C 
BRANCH  23  24
ATOM     24  N   UNL     1      44.772   5.430  13.033  0.00  0.00    +0.000 NA
ATOM     25  H   UNL     1      44.815   6.203  12.372  0.00  0.00    +0.000 HD
BRANCH  24  26
ATOM     26  C   UNL     1      44.147   4.238  12.449  0.00  0.00    +0.000 C 
ATOM     27  C   UNL     1      44.955   3.561  11.355  0.00  0.00    +0.000 C 
ATOM     28  C   UNL     1      44.593   4.335  10.106  0.00  0.00    +0.000 C 
ATOM     29  O   UNL     1      43.285   4.882  10.306  0.00  0.00    +0.000 OA
ATOM     30  C   UNL     1      42.886   4.618  11.662  0.00  0.00    +0.000 C 
ENDBRANCH  24  26
ENDBRANCH  23  24
ENDBRANCH  20  23
ENDBRANCH  16  17
ENDBRANCH   3  16
TORSDOF 6
ENDMDL
