MODEL 1
REMARK VINA RESULT:    -8.622      0.000      0.000
REMARK INTER + INTRA:         -13.210
REMARK INTER:                 -12.150
REMARK INTRA:                  -1.060
REMARK UNBOUND:                -1.060
REMARK  Name = 
REMARK  8 active torsions:
REMARK  status: ('A' for Active; 'I' for Inactive)
REMARK    1  A    between atoms: C_1  and  C_2
REMARK    2  A    between atoms: C_5  and  C_6
REMARK    3  A    between atoms: C_6  and  O_7
REMARK    4  A    between atoms: O_7  and  C_8
REMARK    5  A    between atoms: C_8  and  C_9
REMARK    6  A    between atoms: C_12  and  C_13
REMARK    7  A    between atoms: C_13  and  N_14
REMARK    8  A    between atoms: C_15  and  C_17
REMARK                            x       y       z     vdW  Elec       q    Type
REMARK                         _______ _______ _______ _____ _____    ______ ____
ROOT
ATOM      1  C   UNL     1      44.548   4.678  11.885  0.00  0.00    +0.000 A 
ATOM      2  C   UNL     1      45.167   4.278  13.079  0.00  0.00    +0.000 A 
ATOM      3  C   UNL     1      46.264   4.983  13.587  0.00  0.00    +0.000 A 
ATOM      4  C   UNL     1      46.757   6.109  12.916  0.00  0.00    +0.000 A 
ATOM      5  C   UNL     1      46.160   6.488  11.706  0.00  0.00    +0.000 A 
ATOM      6  C   UNL     1      45.064   5.783  11.198  0.00  0.00    +0.000 A 
ENDROOT
BRANCH   1   7
ATOM      7  C   UNL     1      43.351   3.926  11.362  0.00  0.00    +0.000 C 
BRANCH   7   8
ATOM      8  O   UNL     1      43.628   3.532  10.022  0.00  0.00    +0.000 OA
BRANCH   8   9
ATOM      9  C   UNL     1      44.442   2.361   9.963  0.00  0.00    +0.000 C 
BRANCH   9  14
ATOM     10  C   UNL     1      47.999   2.380   5.421  0.00  0.00    +0.000 C 
ATOM     11  C   UNL     1      47.075   2.430   6.595  0.00  0.00    +0.000 A 
ATOM     12  C   UNL     1      46.405   3.597   6.953  0.00  0.00    +0.000 A 
ATOM     13  C   UNL     1      45.546   3.590   8.048  0.00  0.00    +0.000 A 
ATOM     14  C   UNL     1      45.361   2.406   8.761  0.00  0.00    +0.000 A 
ATOM     15  N   UNL     1      46.023   1.264   8.445  0.00  0.00    +0.000 NA
ATOM     16  C   UNL     1      46.852   1.302   7.376  0.00  0.00    +0.000 A 
ENDBRANCH   9  14
ENDBRANCH   8   9
ENDBRANCH   7   8
ENDBRANCH   1   7
BRANCH   4  17
ATOM     17  C   UNL     1      47.930   6.881  13.461  0.00  0.00    +0.000 C 
BRANCH  17  18
ATOM     18  N   UNL     1      47.880   6.954  14.897  0.00  0.00    +0.000 N 
ATOM     19  C   UNL     1      49.011   6.818  15.661  0.00  0.00    +0.000 C 
ATOM     20  O   UNL     1      50.121   6.664  15.159  0.00  0.00    +0.000 OA
ATOM     21  H   UNL     1      46.968   6.850  15.330  0.00  0.00    +0.000 HD
BRANCH  19  22
ATOM     22  C   UNL     1      48.834   6.927  17.114  0.00  0.00    +0.000 A 
ATOM     23  C   UNL     1      48.593   8.168  17.687  0.00  0.00    +0.000 A 
ATOM     24  S   UNL     1      48.360   8.109  19.376  0.00  0.00    +0.000 S 
ATOM     25  C   UNL     1      48.630   6.428  19.404  0.00  0.00    +0.000 A 
ATOM     26  N   UNL     1      48.596   5.738  20.576  0.00  0.00    +0.000 NA
ATOM     27  C   UNL     1      48.847   4.476  20.462  0.00  0.00    +0.000 A 
ATOM     28  N   UNL     1      49.117   3.842  19.275  0.00  0.00    +0.000 N 
ATOM     29  C   UNL     1      49.128   4.492  18.066  0.00  0.00    +0.000 A 
ATOM     30  O   UNL     1      49.331   3.884  17.020  0.00  0.00    +0.000 OA
ATOM     31  C   UNL     1      48.868   5.917  18.144  0.00  0.00    +0.000 A 
ATOM     32  H   UNL     1      49.296   2.847  19.249  0.00  0.00    +0.000 HD
ENDBRANCH  19  22
ENDBRANCH  17  18
ENDBRANCH   4  17
TORSDOF 7
ENDMDL
MODEL 2
REMARK VINA RESULT:    -8.073      1.473      2.227
REMARK INTER + INTRA:         -12.437
REMARK INTER:                 -11.422
REMARK INTRA:                  -1.015
REMARK UNBOUND:                -1.060
REMARK  Name = 
REMARK  8 active torsions:
REMARK  status: ('A' for Active; 'I' for Inactive)
REMARK    1  A    between atoms: C_1  and  C_2
REMARK    2  A    between atoms: C_5  and  C_6
REMARK    3  A    between atoms: C_6  and  O_7
REMARK    4  A    between atoms: O_7  and  C_8
REMARK    5  A    between atoms: C_8  and  C_9
REMARK    6  A    between atoms: C_12  and  C_13
REMARK    7  A    between atoms: C_13  and  N_14
REMARK    8  A    between atoms: C_15  and  C_17
REMARK                            x       y       z     vdW  Elec       q    Type
REMARK                         _______ _______ _______ _____ _____    ______ ____
ROOT
ATOM      1  C   UNL     1      44.628   5.140  11.756  0.00  0.00    +0.000 A 
ATOM      2  C   UNL     1      44.926   4.691  13.050  0.00  0.00    +0.000 A 
ATOM      3  C   UNL     1      46.052   5.167  13.731  0.00  0.00    +0.000 A 
ATOM      4  C   UNL     1      46.896   6.112  13.135  0.00  0.00    +0.000 A 
ATOM      5  C   UNL     1      46.617   6.535  11.829  0.00  0.00    +0.000 A 
ATOM      6  C   UNL     1      45.491   6.059  11.148  0.00  0.00    +0.000 A 
ENDROOT
BRANCH   1   7
ATOM      7  C   UNL     1      43.398   4.639  11.043  0.00  0.00    +0.000 C 
BRANCH   7   8
ATOM      8  O   UNL     1      43.791   4.181   9.754  0.00  0.00    +0.000 OA
BRANCH   8   9
ATOM      9  C   UNL     1      44.407   2.893   9.805  0.00  0.00    +0.000 C 
BRANCH   9  14
ATOM     10  C   UNL     1      48.023   2.354   5.343  0.00  0.00    +0.000 C 
ATOM     11  C   UNL     1      47.087   2.439   6.505  0.00  0.00    +0.000 A 
ATOM     12  C   UNL     1      46.838   1.344   7.329  0.00  0.00    +0.000 A 
ATOM     13  C   UNL     1      45.967   1.477   8.407  0.00  0.00    +0.000 A 
ATOM     14  C   UNL     1      45.367   2.712   8.649  0.00  0.00    +0.000 A 
ATOM     15  N   UNL     1      45.577   3.785   7.845  0.00  0.00    +0.000 NA
ATOM     16  C   UNL     1      46.428   3.625   6.805  0.00  0.00    +0.000 A 
ENDBRANCH   9  14
ENDBRANCH   8   9
ENDBRANCH   7   8
ENDBRANCH   1   7
BRANCH   4  17
ATOM     17  C   UNL     1      48.104   6.639  13.864  0.00  0.00    +0.000 C 
BRANCH  17  18
ATOM     18  N   UNL     1      47.969   6.461  15.286  0.00  0.00    +0.000 N 
ATOM     19  C   UNL     1      49.066   6.312  16.095  0.00  0.00    +0.000 C 
ATOM     20  O   UNL     1      50.212   6.361  15.656  0.00  0.00    +0.000 OA
ATOM     21  H   UNL     1      47.053   6.191  15.629  0.00  0.00    +0.000 HD
BRANCH  19  22
ATOM     22  C   UNL     1      48.800   6.153  17.531  0.00  0.00    +0.000 A 
ATOM     23  C   UNL     1      49.022   4.926  18.139  0.00  0.00    +0.000 A 
ATOM     24  S   UNL     1      48.714   4.929  19.817  0.00  0.00    +0.000 S 
ATOM     25  C   UNL     1      48.217   6.556  19.774  0.00  0.00    +0.000 A 
ATOM     26  N   UNL     1      47.793   7.184  20.903  0.00  0.00    +0.000 NA
ATOM     27  C   UNL     1      47.416   8.407  20.727  0.00  0.00    +0.000 A 
ATOM     28  N   UNL     1      47.439   9.061  19.521  0.00  0.00    +0.000 N 
ATOM     29  C   UNL     1      47.891   8.477  18.364  0.00  0.00    +0.000 A 
ATOM     30  O   UNL     1      47.938   9.106  17.311  0.00  0.00    +0.000 OA
ATOM     31  C   UNL     1      48.310   7.096  18.507  0.00  0.00    +0.000 A 
ATOM     32  H   UNL     1      47.140  10.024  19.448  0.00  0.00    +0.000 HD
ENDBRANCH  19  22
ENDBRANCH  17  18
ENDBRANCH   4  17
TORSDOF 7
ENDMDL
MODEL 3
REMARK VINA RESULT:    -8.029      2.423      3.209
REMARK INTER + INTRA:         -12.374
REMARK INTER:                 -11.521
REMARK INTRA:                  -0.853
REMARK UNBOUND:                -1.060
REMARK  Name = 
REMARK  8 active torsions:
REMARK  status: ('A' for Active; 'I' for Inactive)
REMARK    1  A    between atoms: C_1  and  C_2
REMARK    2  A    between atoms: C_5  and  C_6
REMARK    3  A    between atoms: C_6  and  O_7
REMARK    4  A    between atoms: O_7  and  C_8
REMARK    5  A    between atoms: C_8  and  C_9
REMARK    6  A    between atoms: C_12  and  C_13
REMARK    7  A    between atoms: C_13  and  N_14
REMARK    8  A    between atoms: C_15  and  C_17
REMARK                            x       y       z     vdW  Elec       q    Type
REMARK                         _______ _______ _______ _____ _____    ______ ____
ROOT
ATOM      1  C   UNL     1      46.183   4.745  12.977  0.00  0.00    +0.000 A 
ATOM      2  C   UNL     1      46.736   5.943  12.500  0.00  0.00    +0.000 A 
ATOM      3  C   UNL     1      47.605   6.697  13.295  0.00  0.00    +0.000 A 
ATOM      4  C   UNL     1      47.947   6.262  14.582  0.00  0.00    +0.000 A 
ATOM      5  C   UNL     1      47.368   5.084  15.071  0.00  0.00    +0.000 A 
ATOM      6  C   UNL     1      46.500   4.330  14.276  0.00  0.00    +0.000 A 
ENDROOT
BRANCH   1   7
ATOM      7  C   UNL     1      45.269   3.929  12.100  0.00  0.00    +0.000 C 
BRANCH   7   8
ATOM      8  O   UNL     1      44.783   4.772  11.062  0.00  0.00    +0.000 OA
BRANCH   8   9
ATOM      9  C   UNL     1      44.109   4.036  10.041  0.00  0.00    +0.000 C 
BRANCH   9  14
ATOM     10  C   UNL     1      47.882   2.091   6.134  0.00  0.00    +0.000 C 
ATOM     11  C   UNL     1      46.889   2.543   7.157  0.00  0.00    +0.000 A 
ATOM     12  C   UNL     1      46.268   1.646   8.023  0.00  0.00    +0.000 A 
ATOM     13  C   UNL     1      45.359   2.118   8.967  0.00  0.00    +0.000 A 
ATOM     14  C   UNL     1      45.097   3.485   9.035  0.00  0.00    +0.000 A 
ATOM     15  N   UNL     1      45.672   4.373   8.184  0.00  0.00    +0.000 NA
ATOM     16  C   UNL     1      46.550   3.885   7.278  0.00  0.00    +0.000 A 
ENDBRANCH   9  14
ENDBRANCH   8   9
ENDBRANCH   7   8
ENDBRANCH   1   7
BRANCH   4  17
ATOM     17  C   UNL     1      48.891   7.061  15.442  0.00  0.00    +0.000 C 
BRANCH  17  18
ATOM     18  N   UNL     1      49.940   6.230  15.971  0.00  0.00    +0.000 N 
ATOM     19  C   UNL     1      49.926   5.802  17.274  0.00  0.00    +0.000 C 
ATOM     20  O   UNL     1      49.004   6.074  18.039  0.00  0.00    +0.000 OA
ATOM     21  H   UNL     1      50.803   6.187  15.440  0.00  0.00    +0.000 HD
BRANCH  19  22
ATOM     22  C   UNL     1      51.043   4.946  17.691  0.00  0.00    +0.000 A 
ATOM     23  C   UNL     1      52.180   5.519  18.244  0.00  0.00    +0.000 A 
ATOM     24  S   UNL     1      53.358   4.381  18.721  0.00  0.00    +0.000 S 
ATOM     25  C   UNL     1      52.410   3.086  18.152  0.00  0.00    +0.000 A 
ATOM     26  N   UNL     1      52.858   1.806  18.238  0.00  0.00    +0.000 NA
ATOM     27  C   UNL     1      52.055   0.922  17.743  0.00  0.00    +0.000 A 
ATOM     28  N   UNL     1      50.837   1.209  17.179  0.00  0.00    +0.000 N 
ATOM     29  C   UNL     1      50.332   2.483  17.101  0.00  0.00    +0.000 A 
ATOM     30  O   UNL     1      49.219   2.697  16.630  0.00  0.00    +0.000 OA
ATOM     31  C   UNL     1      51.204   3.513  17.630  0.00  0.00    +0.000 A 
ATOM     32  H   UNL     1      50.249   0.471  16.816  0.00  0.00    +0.000 HD
ENDBRANCH  19  22
ENDBRANCH  17  18
ENDBRANCH   4  17
TORSDOF 7
ENDMDL
MODEL 4
REMARK VINA RESULT:    -7.897      1.345      1.779
REMARK INTER + INTRA:         -12.189
REMARK INTER:                 -11.089
REMARK INTRA:                  -1.100
REMARK UNBOUND:                -1.060
REMARK  Name = 
REMARK  8 active torsions:
REMARK  status: ('A' for Active; 'I' for Inactive)
REMARK    1  A    between atoms: C_1  and  C_2
REMARK    2  A    between atoms: C_5  and  C_6
REMARK    3  A    between atoms: C_6  and  O_7
REMARK    4  A    between atoms: O_7  and  C_8
REMARK    5  A    between atoms: C_8  and  C_9
REMARK    6  A    between atoms: C_12  and  C_13
REMARK    7  A    between atoms: C_13  and  N_14
REMARK    8  A    between atoms: C_15  and  C_17
REMARK                            x       y       z     vdW  Elec       q    Type
REMARK                         _______ _______ _______ _____ _____    ______ ____
ROOT
ATOM      1  C   UNL     1      44.551   5.270  12.722  0.00  0.00    +0.000 A 
ATOM      2  C   UNL     1      44.808   6.647  12.664  0.00  0.00    +0.000 A 
ATOM      3  C   UNL     1      46.094   7.145  12.901  0.00  0.00    +0.000 A 
ATOM      4  C   UNL     1      47.151   6.274  13.190  0.00  0.00    +0.000 A 
ATOM      5  C   UNL     1      46.887   4.901  13.281  0.00  0.00    +0.000 A 
ATOM      6  C   UNL     1      45.601   4.403  13.044  0.00  0.00    +0.000 A 
ENDROOT
BRANCH   1   7
ATOM      7  C   UNL     1      43.167   4.744  12.439  0.00  0.00    +0.000 C 
BRANCH   7   8
ATOM      8  O   UNL     1      43.228   3.954  11.256  0.00  0.00    +0.000 OA
BRANCH   8   9
ATOM      9  C   UNL     1      43.710   4.698  10.137  0.00  0.00    +0.000 C 
BRANCH   9  14
ATOM     10  C   UNL     1      47.300   1.622   6.831  0.00  0.00    +0.000 C 
ATOM     11  C   UNL     1      46.349   2.372   7.708  0.00  0.00    +0.000 A 
ATOM     12  C   UNL     1      45.618   1.738   8.709  0.00  0.00    +0.000 A 
ATOM     13  C   UNL     1      44.753   2.483   9.507  0.00  0.00    +0.000 A 
ATOM     14  C   UNL     1      44.645   3.856   9.296  0.00  0.00    +0.000 A 
ATOM     15  N   UNL     1      45.330   4.490   8.310  0.00  0.00    +0.000 NA
ATOM     16  C   UNL     1      46.162   3.740   7.550  0.00  0.00    +0.000 A 
ENDBRANCH   9  14
ENDBRANCH   8   9
ENDBRANCH   7   8
ENDBRANCH   1   7
BRANCH   4  17
ATOM     17  C   UNL     1      48.542   6.799  13.435  0.00  0.00    +0.000 C 
BRANCH  17  18
ATOM     18  N   UNL     1      48.911   6.661  14.819  0.00  0.00    +0.000 N 
ATOM     19  C   UNL     1      48.696   7.670  15.722  0.00  0.00    +0.000 C 
ATOM     20  O   UNL     1      48.146   8.722  15.404  0.00  0.00    +0.000 OA
ATOM     21  H   UNL     1      49.560   5.915  15.048  0.00  0.00    +0.000 HD
BRANCH  19  22
ATOM     22  C   UNL     1      49.102   7.404  17.107  0.00  0.00    +0.000 A 
ATOM     23  C   UNL     1      49.907   8.316  17.775  0.00  0.00    +0.000 A 
ATOM     24  S   UNL     1      50.241   7.879  19.390  0.00  0.00    +0.000 S 
ATOM     25  C   UNL     1      49.365   6.427  19.231  0.00  0.00    +0.000 A 
ATOM     26  N   UNL     1      49.272   5.555  20.270  0.00  0.00    +0.000 NA
ATOM     27  C   UNL     1      48.606   4.479  20.008  0.00  0.00    +0.000 A 
ATOM     28  N   UNL     1      48.014   4.207  18.800  0.00  0.00    +0.000 N 
ATOM     29  C   UNL     1      48.055   5.074  17.736  0.00  0.00    +0.000 A 
ATOM     30  O   UNL     1      47.477   4.817  16.685  0.00  0.00    +0.000 OA
ATOM     31  C   UNL     1      48.807   6.290  17.976  0.00  0.00    +0.000 A 
ATOM     32  H   UNL     1      47.497   3.350  18.658  0.00  0.00    +0.000 HD
ENDBRANCH  19  22
ENDBRANCH  17  18
ENDBRANCH   4  17
TORSDOF 7
ENDMDL
MODEL 5
REMARK VINA RESULT:    -7.803      1.741      1.981
REMARK INTER + INTRA:         -12.056
REMARK INTER:                 -11.047
REMARK INTRA:                  -1.010
REMARK UNBOUND:                -1.060
REMARK  Name = 
REMARK  8 active torsions:
REMARK  status: ('A' for Active; 'I' for Inactive)
REMARK    1  A    between atoms: C_1  and  C_2
REMARK    2  A    between atoms: C_5  and  C_6
REMARK    3  A    between atoms: C_6  and  O_7
REMARK    4  A    between atoms: O_7  and  C_8
REMARK    5  A    between atoms: C_8  and  C_9
REMARK    6  A    between atoms: C_12  and  C_13
REMARK    7  A    between atoms: C_13  and  N_14
REMARK    8  A    between atoms: C_15  and  C_17
REMARK                            x       y       z     vdW  Elec       q    Type
REMARK                         _______ _______ _______ _____ _____    ______ ____
ROOT
ATOM      1  C   UNL     1      44.237   5.284  11.999  0.00  0.00    +0.000 A 
ATOM      2  C   UNL     1      44.465   6.520  11.377  0.00  0.00    +0.000 A 
ATOM      3  C   UNL     1      45.614   7.265  11.664  0.00  0.00    +0.000 A 
ATOM      4  C   UNL     1      46.563   6.784  12.574  0.00  0.00    +0.000 A 
ATOM      5  C   UNL     1      46.319   5.566  13.221  0.00  0.00    +0.000 A 
ATOM      6  C   UNL     1      45.171   4.820  12.934  0.00  0.00    +0.000 A 
ENDROOT
BRANCH   1   7
ATOM      7  C   UNL     1      43.009   4.478  11.662  0.00  0.00    +0.000 C 
BRANCH   7   8
ATOM      8  O   UNL     1      43.236   3.830  10.415  0.00  0.00    +0.000 OA
BRANCH   8   9
ATOM      9  C   UNL     1      44.218   2.798  10.516  0.00  0.00    +0.000 C 
BRANCH   9  14
ATOM     10  C   UNL     1      47.582   2.513   5.838  0.00  0.00    +0.000 C 
ATOM     11  C   UNL     1      46.713   2.642   7.047  0.00  0.00    +0.000 A 
ATOM     12  C   UNL     1      46.166   3.864   7.431  0.00  0.00    +0.000 A 
ATOM     13  C   UNL     1      45.352   3.930   8.559  0.00  0.00    +0.000 A 
ATOM     14  C   UNL     1      45.090   2.765   9.279  0.00  0.00    +0.000 A 
ATOM     15  N   UNL     1      45.632   1.569   8.936  0.00  0.00    +0.000 NA
ATOM     16  C   UNL     1      46.419   1.536   7.836  0.00  0.00    +0.000 A 
ENDBRANCH   9  14
ENDBRANCH   8   9
ENDBRANCH   7   8
ENDBRANCH   1   7
BRANCH   4  17
ATOM     17  C   UNL     1      47.809   7.574  12.882  0.00  0.00    +0.000 C 
BRANCH  17  18
ATOM     18  N   UNL     1      48.634   6.887  13.841  0.00  0.00    +0.000 N 
ATOM     19  C   UNL     1      48.886   7.419  15.079  0.00  0.00    +0.000 C 
ATOM     20  O   UNL     1      48.393   8.483  15.444  0.00  0.00    +0.000 OA
ATOM     21  H   UNL     1      49.224   6.141  13.487  0.00  0.00    +0.000 HD
BRANCH  19  22
ATOM     22  C   UNL     1      49.729   6.617  15.974  0.00  0.00    +0.000 A 
ATOM     23  C   UNL     1      51.029   7.023  16.242  0.00  0.00    +0.000 A 
ATOM     24  S   UNL     1      51.851   6.008  17.340  0.00  0.00    +0.000 S 
ATOM     25  C   UNL     1      50.514   4.959  17.448  0.00  0.00    +0.000 A 
ATOM     26  N   UNL     1      50.566   3.845  18.225  0.00  0.00    +0.000 NA
ATOM     27  C   UNL     1      49.497   3.120  18.195  0.00  0.00    +0.000 A 
ATOM     28  N   UNL     1      48.375   3.420  17.463  0.00  0.00    +0.000 N 
ATOM     29  C   UNL     1      48.267   4.551  16.692  0.00  0.00    +0.000 A 
ATOM     30  O   UNL     1      47.233   4.809  16.085  0.00  0.00    +0.000 OA
ATOM     31  C   UNL     1      49.450   5.389  16.680  0.00  0.00    +0.000 A 
ATOM     32  H   UNL     1      47.565   2.817  17.488  0.00  0.00    +0.000 HD
ENDBRANCH  19  22
ENDBRANCH  17  18
ENDBRANCH   4  17
TORSDOF 7
ENDMDL
MODEL 6
REMARK VINA RESULT:    -7.194      5.153      9.585
REMARK INTER + INTRA:         -11.198
REMARK INTER:                 -10.217
REMARK INTRA:                  -0.981
REMARK UNBOUND:                -1.060
REMARK  Name = 
REMARK  8 active torsions:
REMARK  status: ('A' for Active; 'I' for Inactive)
REMARK    1  A    between atoms: C_1  and  C_2
REMARK    2  A    between atoms: C_5  and  C_6
REMARK    3  A    between atoms: C_6  and  O_7
REMARK    4  A    between atoms: O_7  and  C_8
REMARK    5  A    between atoms: C_8  and  C_9
REMARK    6  A    between atoms: C_12  and  C_13
REMARK    7  A    between atoms: C_13  and  N_14
REMARK    8  A    between atoms: C_15  and  C_17
REMARK                            x       y       z     vdW  Elec       q    Type
REMARK                         _______ _______ _______ _____ _____    ______ ____
ROOT
ATOM      1  C   UNL     1      51.045   2.293  17.399  0.00  0.00    +0.000 A 
ATOM      2  C   UNL     1      49.653   2.261  17.234  0.00  0.00    +0.000 A 
ATOM      3  C   UNL     1      48.915   3.447  17.146  0.00  0.00    +0.000 A 
ATOM      4  C   UNL     1      49.557   4.689  17.210  0.00  0.00    +0.000 A 
ATOM      5  C   UNL     1      50.944   4.722  17.409  0.00  0.00    +0.000 A 
ATOM      6  C   UNL     1      51.681   3.536  17.498  0.00  0.00    +0.000 A 
ENDROOT
BRANCH   1   7
ATOM      7  C   UNL     1      51.832   1.009  17.467  0.00  0.00    +0.000 C 
BRANCH   7   8
ATOM      8  O   UNL     1      52.833   1.157  18.468  0.00  0.00    +0.000 OA
BRANCH   8   9
ATOM      9  C   UNL     1      54.121   0.752  18.005  0.00  0.00    +0.000 C 
BRANCH   9  14
ATOM     10  C   UNL     1      54.694  -4.956  18.613  0.00  0.00    +0.000 C 
ATOM     11  C   UNL     1      54.580  -3.479  18.412  0.00  0.00    +0.000 A 
ATOM     12  C   UNL     1      55.057  -2.856  17.262  0.00  0.00    +0.000 A 
ATOM     13  C   UNL     1      54.916  -1.479  17.116  0.00  0.00    +0.000 A 
ATOM     14  C   UNL     1      54.286  -0.748  18.122  0.00  0.00    +0.000 A 
ATOM     15  N   UNL     1      53.835  -1.332  19.262  0.00  0.00    +0.000 NA
ATOM     16  C   UNL     1      53.987  -2.672  19.376  0.00  0.00    +0.000 A 
ENDBRANCH   9  14
ENDBRANCH   8   9
ENDBRANCH   7   8
ENDBRANCH   1   7
BRANCH   4  17
ATOM     17  C   UNL     1      48.773   5.971  17.105  0.00  0.00    +0.000 C 
BRANCH  17  18
ATOM     18  N   UNL     1      47.858   5.929  15.995  0.00  0.00    +0.000 N 
ATOM     19  C   UNL     1      48.239   6.316  14.737  0.00  0.00    +0.000 C 
ATOM     20  O   UNL     1      49.385   6.681  14.487  0.00  0.00    +0.000 OA
ATOM     21  H   UNL     1      46.870   5.855  16.218  0.00  0.00    +0.000 HD
BRANCH  19  22
ATOM     22  C   UNL     1      47.220   6.213  13.685  0.00  0.00    +0.000 A 
ATOM     23  C   UNL     1      46.771   7.361  13.047  0.00  0.00    +0.000 A 
ATOM     24  S   UNL     1      45.628   7.057  11.818  0.00  0.00    +0.000 S 
ATOM     25  C   UNL     1      45.654   5.385  12.137  0.00  0.00    +0.000 A 
ATOM     26  N   UNL     1      44.864   4.531  11.432  0.00  0.00    +0.000 NA
ATOM     27  C   UNL     1      44.957   3.294  11.794  0.00  0.00    +0.000 A 
ATOM     28  N   UNL     1      45.782   2.836  12.792  0.00  0.00    +0.000 N 
ATOM     29  C   UNL     1      46.619   3.658  13.504  0.00  0.00    +0.000 A 
ATOM     30  O   UNL     1      47.374   3.207  14.360  0.00  0.00    +0.000 OA
ATOM     31  C   UNL     1      46.538   5.061  13.146  0.00  0.00    +0.000 A 
ATOM     32  H   UNL     1      45.817   1.853  13.023  0.00  0.00    +0.000 HD
ENDBRANCH  19  22
ENDBRANCH  17  18
ENDBRANCH   4  17
TORSDOF 7
ENDMDL
MODEL 7
REMARK VINA RESULT:    -7.011      3.899      5.681
REMARK INTER + INTRA:         -10.941
REMARK INTER:                  -9.773
REMARK INTRA:                  -1.167
REMARK UNBOUND:                -1.060
REMARK  Name = 
REMARK  8 active torsions:
REMARK  status: ('A' for Active; 'I' for Inactive)
REMARK    1  A    between atoms: C_1  and  C_2
REMARK    2  A    between atoms: C_5  and  C_6
REMARK    3  A    between atoms: C_6  and  O_7
REMARK    4  A    between atoms: O_7  and  C_8
REMARK    5  A    between atoms: C_8  and  C_9
REMARK    6  A    between atoms: C_12  and  C_13
REMARK    7  A    between atoms: C_13  and  N_14
REMARK    8  A    between atoms: C_15  and  C_17
REMARK                            x       y       z     vdW  Elec       q    Type
REMARK                         _______ _______ _______ _____ _____    ______ ____
ROOT
ATOM      1  C   UNL     1      46.226   4.999  12.822  0.00  0.00    +0.000 A 
ATOM      2  C   UNL     1      46.725   6.199  12.295  0.00  0.00    +0.000 A 
ATOM      3  C   UNL     1      47.688   6.940  12.988  0.00  0.00    +0.000 A 
ATOM      4  C   UNL     1      48.179   6.490  14.220  0.00  0.00    +0.000 A 
ATOM      5  C   UNL     1      47.656   5.309  14.763  0.00  0.00    +0.000 A 
ATOM      6  C   UNL     1      46.694   4.568  14.069  0.00  0.00    +0.000 A 
ENDROOT
BRANCH   1   7
ATOM      7  C   UNL     1      45.208   4.196  12.053  0.00  0.00    +0.000 C 
BRANCH   7   8
ATOM      8  O   UNL     1      44.827   4.950  10.907  0.00  0.00    +0.000 OA
BRANCH   8   9
ATOM      9  C   UNL     1      44.162   4.146   9.932  0.00  0.00    +0.000 C 
BRANCH   9  14
ATOM     10  C   UNL     1      47.979   1.992   6.179  0.00  0.00    +0.000 C 
ATOM     11  C   UNL     1      46.971   2.499   7.161  0.00  0.00    +0.000 A 
ATOM     12  C   UNL     1      46.267   1.639   8.001  0.00  0.00    +0.000 A 
ATOM     13  C   UNL     1      45.348   2.161   8.907  0.00  0.00    +0.000 A 
ATOM     14  C   UNL     1      45.159   3.541   8.966  0.00  0.00    +0.000 A 
ATOM     15  N   UNL     1      45.816   4.395   8.141  0.00  0.00    +0.000 NA
ATOM     16  C   UNL     1      46.702   3.858   7.270  0.00  0.00    +0.000 A 
ENDBRANCH   9  14
ENDBRANCH   8   9
ENDBRANCH   7   8
ENDBRANCH   1   7
BRANCH   4  17
ATOM     17  C   UNL     1      49.224   7.274  14.969  0.00  0.00    +0.000 C 
BRANCH  17  18
ATOM     18  N   UNL     1      50.415   7.440  14.177  0.00  0.00    +0.000 N 
ATOM     19  C   UNL     1      50.881   8.684  13.837  0.00  0.00    +0.000 C 
ATOM     20  O   UNL     1      50.331   9.713  14.220  0.00  0.00    +0.000 OA
ATOM     21  H   UNL     1      50.744   6.626  13.669  0.00  0.00    +0.000 HD
BRANCH  19  22
ATOM     22  C   UNL     1      52.113   8.723  13.039  0.00  0.00    +0.000 A 
ATOM     23  C   UNL     1      53.262   9.285  13.576  0.00  0.00    +0.000 A 
ATOM     24  S   UNL     1      54.614   9.202  12.538  0.00  0.00    +0.000 S 
ATOM     25  C   UNL     1      53.690   8.463  11.313  0.00  0.00    +0.000 A 
ATOM     26  N   UNL     1      54.253   8.139  10.119  0.00  0.00    +0.000 NA
ATOM     27  C   UNL     1      53.436   7.613   9.267  0.00  0.00    +0.000 A 
ATOM     28  N   UNL     1      52.107   7.371   9.513  0.00  0.00    +0.000 N 
ATOM     29  C   UNL     1      51.507   7.651  10.715  0.00  0.00    +0.000 A 
ATOM     30  O   UNL     1      50.326   7.381  10.913  0.00  0.00    +0.000 OA
ATOM     31  C   UNL     1      52.380   8.260  11.699  0.00  0.00    +0.000 A 
ATOM     32  H   UNL     1      51.520   6.946   8.808  0.00  0.00    +0.000 HD
ENDBRANCH  19  22
ENDBRANCH  17  18
ENDBRANCH   4  17
TORSDOF 7
ENDMDL
MODEL 8
REMARK VINA RESULT:    -7.001      4.403      9.591
REMARK INTER + INTRA:         -10.925
REMARK INTER:                  -9.873
REMARK INTRA:                  -1.052
REMARK UNBOUND:                -1.060
REMARK  Name = 
REMARK  8 active torsions:
REMARK  status: ('A' for Active; 'I' for Inactive)
REMARK    1  A    between atoms: C_1  and  C_2
REMARK    2  A    between atoms: C_5  and  C_6
REMARK    3  A    between atoms: C_6  and  O_7
REMARK    4  A    between atoms: O_7  and  C_8
REMARK    5  A    between atoms: C_8  and  C_9
REMARK    6  A    between atoms: C_12  and  C_13
REMARK    7  A    between atoms: C_13  and  N_14
REMARK    8  A    between atoms: C_15  and  C_17
REMARK                            x       y       z     vdW  Elec       q    Type
REMARK                         _______ _______ _______ _____ _____    ______ ____
ROOT
ATOM      1  C   UNL     1      51.278   4.209  18.166  0.00  0.00    +0.000 A 
ATOM      2  C   UNL     1      50.962   2.972  17.586  0.00  0.00    +0.000 A 
ATOM      3  C   UNL     1      49.660   2.694  17.155  0.00  0.00    +0.000 A 
ATOM      4  C   UNL     1      48.649   3.655  17.285  0.00  0.00    +0.000 A 
ATOM      5  C   UNL     1      48.957   4.878  17.894  0.00  0.00    +0.000 A 
ATOM      6  C   UNL     1      50.258   5.156  18.325  0.00  0.00    +0.000 A 
ENDROOT
BRANCH   1   7
ATOM      7  C   UNL     1      52.689   4.505  18.602  0.00  0.00    +0.000 C 
BRANCH   7   8
ATOM      8  O   UNL     1      53.006   3.641  19.688  0.00  0.00    +0.000 OA
BRANCH   8   9
ATOM      9  C   UNL     1      54.361   3.191  19.640  0.00  0.00    +0.000 C 
BRANCH   9  14
ATOM     10  C   UNL     1      54.848  -1.290  16.039  0.00  0.00    +0.000 C 
ATOM     11  C   UNL     1      54.763  -0.104  16.946  0.00  0.00    +0.000 A 
ATOM     12  C   UNL     1      55.443   1.080  16.671  0.00  0.00    +0.000 A 
ATOM     13  C   UNL     1      55.323   2.161  17.540  0.00  0.00    +0.000 A 
ATOM     14  C   UNL     1      54.511   2.041  18.667  0.00  0.00    +0.000 A 
ATOM     15  N   UNL     1      53.858   0.889  18.966  0.00  0.00    +0.000 NA
ATOM     16  C   UNL     1      53.995  -0.144  18.103  0.00  0.00    +0.000 A 
ENDBRANCH   9  14
ENDBRANCH   8   9
ENDBRANCH   7   8
ENDBRANCH   1   7
BRANCH   4  17
ATOM     17  C   UNL     1      47.247   3.370  16.813  0.00  0.00    +0.000 C 
BRANCH  17  18
ATOM     18  N   UNL     1      46.804   4.368  15.875  0.00  0.00    +0.000 N 
ATOM     19  C   UNL     1      46.888   4.166  14.522  0.00  0.00    +0.000 C 
ATOM     20  O   UNL     1      47.309   3.115  14.045  0.00  0.00    +0.000 OA
ATOM     21  H   UNL     1      46.674   5.308  16.234  0.00  0.00    +0.000 HD
BRANCH  19  22
ATOM     22  C   UNL     1      46.389   5.251  13.668  0.00  0.00    +0.000 A 
ATOM     23  C   UNL     1      47.147   6.402  13.506  0.00  0.00    +0.000 A 
ATOM     24  S   UNL     1      46.447   7.537  12.441  0.00  0.00    +0.000 S 
ATOM     25  C   UNL     1      45.079   6.550  12.208  0.00  0.00    +0.000 A 
ATOM     26  N   UNL     1      44.059   6.954  11.405  0.00  0.00    +0.000 NA
ATOM     27  C   UNL     1      43.070   6.126  11.338  0.00  0.00    +0.000 A 
ATOM     28  N   UNL     1      43.018   4.923  11.995  0.00  0.00    +0.000 N 
ATOM     29  C   UNL     1      44.039   4.461  12.788  0.00  0.00    +0.000 A 
ATOM     30  O   UNL     1      43.977   3.359  13.326  0.00  0.00    +0.000 OA
ATOM     31  C   UNL     1      45.167   5.364  12.909  0.00  0.00    +0.000 A 
ATOM     32  H   UNL     1      42.219   4.312  11.895  0.00  0.00    +0.000 HD
ENDBRANCH  19  22
ENDBRANCH  17  18
ENDBRANCH   4  17
TORSDOF 7
ENDMDL
MODEL 9
REMARK VINA RESULT:    -6.782      3.482      4.955
REMARK INTER + INTRA:         -10.617
REMARK INTER:                  -9.660
REMARK INTRA:                  -0.957
REMARK UNBOUND:                -1.060
REMARK  Name = 
REMARK  8 active torsions:
REMARK  status: ('A' for Active; 'I' for Inactive)
REMARK    1  A    between atoms: C_1  and  C_2
REMARK    2  A    between atoms: C_5  and  C_6
REMARK    3  A    between atoms: C_6  and  O_7
REMARK    4  A    between atoms: O_7  and  C_8
REMARK    5  A    between atoms: C_8  and  C_9
REMARK    6  A    between atoms: C_12  and  C_13
REMARK    7  A    between atoms: C_13  and  N_14
REMARK    8  A    between atoms: C_15  and  C_17
REMARK                            x       y       z     vdW  Elec       q    Type
REMARK                         _______ _______ _______ _____ _____    ______ ____
ROOT
ATOM      1  C   UNL     1      47.340   4.760  14.927  0.00  0.00    +0.000 A 
ATOM      2  C   UNL     1      47.146   3.672  15.791  0.00  0.00    +0.000 A 
ATOM      3  C   UNL     1      47.682   3.679  17.083  0.00  0.00    +0.000 A 
ATOM      4  C   UNL     1      48.415   4.781  17.542  0.00  0.00    +0.000 A 
ATOM      5  C   UNL     1      48.637   5.853  16.668  0.00  0.00    +0.000 A 
ATOM      6  C   UNL     1      48.101   5.846  15.376  0.00  0.00    +0.000 A 
ENDROOT
BRANCH   1   7
ATOM      7  C   UNL     1      46.735   4.751  13.547  0.00  0.00    +0.000 C 
BRANCH   7   8
ATOM      8  O   UNL     1      45.497   4.053  13.612  0.00  0.00    +0.000 OA
BRANCH   8   9
ATOM      9  C   UNL     1      44.514   4.617  12.742  0.00  0.00    +0.000 C 
BRANCH   9  14
ATOM     10  C   UNL     1      45.671   3.197   7.271  0.00  0.00    +0.000 C 
ATOM     11  C   UNL     1      45.397   3.613   8.681  0.00  0.00    +0.000 A 
ATOM     12  C   UNL     1      45.600   4.922   9.113  0.00  0.00    +0.000 A 
ATOM     13  C   UNL     1      45.318   5.263  10.433  0.00  0.00    +0.000 A 
ATOM     14  C   UNL     1      44.824   4.287  11.298  0.00  0.00    +0.000 A 
ATOM     15  N   UNL     1      44.642   3.001  10.904  0.00  0.00    +0.000 NA
ATOM     16  C   UNL     1      44.925   2.699   9.616  0.00  0.00    +0.000 A 
ENDBRANCH   9  14
ENDBRANCH   8   9
ENDBRANCH   7   8
ENDBRANCH   1   7
BRANCH   4  17
ATOM     17  C   UNL     1      48.987   4.804  18.935  0.00  0.00    +0.000 C 
BRANCH  17  18
ATOM     18  N   UNL     1      50.194   4.024  19.012  0.00  0.00    +0.000 N 
ATOM     19  C   UNL     1      51.426   4.591  18.813  0.00  0.00    +0.000 C 
ATOM     20  O   UNL     1      51.564   5.792  18.597  0.00  0.00    +0.000 OA
ATOM     21  H   UNL     1      50.092   3.015  18.960  0.00  0.00    +0.000 HD
BRANCH  19  22
ATOM     22  C   UNL     1      52.583   3.695  18.933  0.00  0.00    +0.000 A 
ATOM     23  C   UNL     1      53.688   4.093  19.673  0.00  0.00    +0.000 A 
ATOM     24  S   UNL     1      54.919   2.915  19.753  0.00  0.00    +0.000 S 
ATOM     25  C   UNL     1      54.039   1.855  18.752  0.00  0.00    +0.000 A 
ATOM     26  N   UNL     1      54.550   0.645  18.401  0.00  0.00    +0.000 NA
ATOM     27  C   UNL     1      53.795  -0.048  17.615  0.00  0.00    +0.000 A 
ATOM     28  N   UNL     1      52.566   0.360  17.160  0.00  0.00    +0.000 N 
ATOM     29  C   UNL     1      51.998   1.557  17.516  0.00  0.00    +0.000 A 
ATOM     30  O   UNL     1      50.878   1.870  17.124  0.00  0.00    +0.000 OA
ATOM     31  C   UNL     1      52.816   2.380  18.385  0.00  0.00    +0.000 A 
ATOM     32  H   UNL     1      52.017  -0.233  16.553  0.00  0.00    +0.000 HD
ENDBRANCH  19  22
ENDBRANCH  17  18
ENDBRANCH   4  17
TORSDOF 7
ENDMDL
