MODEL 1
REMARK VINA RESULT:    -7.841      0.000      0.000
REMARK INTER + INTRA:         -12.113
REMARK INTER:                 -11.050
REMARK INTRA:                  -1.063
REMARK UNBOUND:                -1.063
REMARK  Name = 
REMARK  9 active torsions:
REMARK  status: ('A' for Active; 'I' for Inactive)
REMARK    1  A    between atoms: C_1  and  O_2
REMARK    2  A    between atoms: O_2  and  C_3
REMARK    3  A    between atoms: C_10  and  C_11
REMARK    4  A    between atoms: N_13  and  C_14
REMARK    5  A    between atoms: C_14  and  C_15
REMARK    6  A    between atoms: C_18  and  O_19
REMARK    7  A    between atoms: O_19  and  C_20
REMARK    8  A    between atoms: C_20  and  C_21
REMARK    9  A    between atoms: C_25  and  C_26
REMARK                            x       y       z     vdW  Elec       q    Type
REMARK                         _______ _______ _______ _____ _____    ______ ____
ROOT
ATOM      1  C   UNL     1      48.466   7.404  15.202  0.00  0.00    +0.000 C 
ENDROOT
BRANCH   1   2
ATOM      2  C   UNL     1      47.682   6.718  14.114  0.00  0.00    +0.000 A 
ATOM      3  C   UNL     1      47.306   5.374  14.233  0.00  0.00    +0.000 A 
ATOM      4  C   UNL     1      46.520   4.759  13.246  0.00  0.00    +0.000 A 
ATOM      5  C   UNL     1      46.102   5.476  12.125  0.00  0.00    +0.000 A 
ATOM      6  C   UNL     1      46.508   6.804  11.986  0.00  0.00    +0.000 A 
ATOM      7  C   UNL     1      47.298   7.419  12.963  0.00  0.00    +0.000 A 
BRANCH   5   8
ATOM      8  O   UNL     1      45.303   5.008  11.115  0.00  0.00    +0.000 OA
BRANCH   8   9
ATOM      9  C   UNL     1      45.694   5.349   9.786  0.00  0.00    +0.000 C 
BRANCH   9  10
ATOM     10  C   UNL     1      44.941   4.467   8.784  0.00  0.00    +0.000 C 
ATOM     11  C   UNL     1      44.295   3.267   9.486  0.00  0.00    +0.000 C 
ATOM     12  C   UNL     1      45.385   2.209   9.453  0.00  0.00    +0.000 C 
ATOM     13  N   UNL     1      46.032   2.437   8.177  0.00  0.00    +0.000 N 
ATOM     14  C   UNL     1      46.647   1.407   7.504  0.00  0.00    +0.000 C 
ATOM     15  C   UNL     1      47.209   1.688   6.133  0.00  0.00    +0.000 C 
ATOM     16  O   UNL     1      46.724   0.271   7.976  0.00  0.00    +0.000 OA
ATOM     17  C   UNL     1      45.851   3.815   7.733  0.00  0.00    +0.000 C 
ENDBRANCH   9  10
ENDBRANCH   8   9
ENDBRANCH   5   8
ENDBRANCH   1   2
BRANCH   1  20
ATOM     18  C   UNL     1      49.530   6.058  16.965  0.00  0.00    +0.000 C 
ATOM     19  O   UNL     1      48.599   6.280  17.738  0.00  0.00    +0.000 OA
ATOM     20  N   UNL     1      49.546   6.590  15.705  0.00  0.00    +0.000 N 
ATOM     21  H   UNL     1      50.324   6.403  15.087  0.00  0.00    +0.000 HD
BRANCH  18  29
ATOM     22  C   UNL     1      50.047   2.639  16.983  0.00  0.00    +0.000 A 
ATOM     23  N   UNL     1      50.504   1.378  17.137  0.00  0.00    +0.000 NA
ATOM     24  C   UNL     1      51.727   1.207  17.647  0.00  0.00    +0.000 A 
ATOM     25  N   UNL     1      52.571   2.158  18.031  0.00  0.00    +0.000 NA
ATOM     26  C   UNL     1      52.076   3.397  17.873  0.00  0.00    +0.000 A 
ATOM     27  S   UNL     1      53.024   4.732  18.314  0.00  0.00    +0.000 S 
ATOM     28  C   UNL     1      51.798   5.813  17.862  0.00  0.00    +0.000 A 
ATOM     29  C   UNL     1      50.653   5.197  17.365  0.00  0.00    +0.000 A 
ATOM     30  C   UNL     1      50.825   3.746  17.367  0.00  0.00    +0.000 A 
BRANCH  22  32
ATOM     31  C   UNL     1      47.767   2.791  17.457  0.00  0.00    +0.000 C 
ATOM     32  O   UNL     1      48.782   2.809  16.453  0.00  0.00    +0.000 OA
ENDBRANCH  22  32
ENDBRANCH  18  29
ENDBRANCH   1  20
TORSDOF 7
ENDMDL
MODEL 2
REMARK VINA RESULT:    -7.605      2.256      2.659
REMARK INTER + INTRA:         -11.780
REMARK INTER:                 -10.602
REMARK INTRA:                  -1.177
REMARK UNBOUND:                -1.063
REMARK  Name = 
REMARK  9 active torsions:
REMARK  status: ('A' for Active; 'I' for Inactive)
REMARK    1  A    between atoms: C_1  and  O_2
REMARK    2  A    between atoms: O_2  and  C_3
REMARK    3  A    between atoms: C_10  and  C_11
REMARK    4  A    between atoms: N_13  and  C_14
REMARK    5  A    between atoms: C_14  and  C_15
REMARK    6  A    between atoms: C_18  and  O_19
REMARK    7  A    between atoms: O_19  and  C_20
REMARK    8  A    between atoms: C_20  and  C_21
REMARK    9  A    between atoms: C_25  and  C_26
REMARK                            x       y       z     vdW  Elec       q    Type
REMARK                         _______ _______ _______ _____ _____    ______ ____
ROOT
ATOM      1  C   UNL     1      47.634   8.956  14.179  0.00  0.00    +0.000 C 
ENDROOT
BRANCH   1   2
ATOM      2  C   UNL     1      46.799   8.110  13.253  0.00  0.00    +0.000 A 
ATOM      3  C   UNL     1      45.664   8.636  12.622  0.00  0.00    +0.000 A 
ATOM      4  C   UNL     1      44.928   7.863  11.711  0.00  0.00    +0.000 A 
ATOM      5  C   UNL     1      45.311   6.554  11.420  0.00  0.00    +0.000 A 
ATOM      6  C   UNL     1      46.420   6.016  12.077  0.00  0.00    +0.000 A 
ATOM      7  C   UNL     1      47.151   6.780  12.992  0.00  0.00    +0.000 A 
BRANCH   5   8
ATOM      8  O   UNL     1      44.706   5.713  10.524  0.00  0.00    +0.000 OA
BRANCH   8   9
ATOM      9  C   UNL     1      45.441   4.547  10.152  0.00  0.00    +0.000 C 
BRANCH   9  10
ATOM     10  C   UNL     1      44.883   3.983   8.841  0.00  0.00    +0.000 C 
ATOM     11  C   UNL     1      44.343   2.562   9.039  0.00  0.00    +0.000 C 
ATOM     12  C   UNL     1      45.557   1.684   8.789  0.00  0.00    +0.000 C 
ATOM     13  N   UNL     1      46.264   2.385   7.737  0.00  0.00    +0.000 N 
ATOM     14  C   UNL     1      47.054   1.703   6.841  0.00  0.00    +0.000 C 
ATOM     15  C   UNL     1      47.677   2.477   5.707  0.00  0.00    +0.000 C 
ATOM     16  O   UNL     1      47.238   0.486   6.925  0.00  0.00    +0.000 OA
ATOM     17  C   UNL     1      45.945   3.809   7.745  0.00  0.00    +0.000 C 
ENDBRANCH   9  10
ENDBRANCH   8   9
ENDBRANCH   5   8
ENDBRANCH   1   2
BRANCH   1  20
ATOM     18  C   UNL     1      49.129   8.372  16.043  0.00  0.00    +0.000 C 
ATOM     19  O   UNL     1      50.065   8.978  15.521  0.00  0.00    +0.000 OA
ATOM     20  N   UNL     1      47.906   8.301  15.436  0.00  0.00    +0.000 N 
ATOM     21  H   UNL     1      47.151   7.792  15.876  0.00  0.00    +0.000 HD
BRANCH  18  29
ATOM     22  C   UNL     1      48.530   5.174  17.213  0.00  0.00    +0.000 A 
ATOM     23  N   UNL     1      48.362   4.049  17.939  0.00  0.00    +0.000 NA
ATOM     24  C   UNL     1      48.685   4.078  19.235  0.00  0.00    +0.000 A 
ATOM     25  N   UNL     1      49.167   5.115  19.913  0.00  0.00    +0.000 NA
ATOM     26  C   UNL     1      49.308   6.217  19.159  0.00  0.00    +0.000 A 
ATOM     27  S   UNL     1      49.913   7.635  19.868  0.00  0.00    +0.000 S 
ATOM     28  C   UNL     1      49.784   8.479  18.402  0.00  0.00    +0.000 A 
ATOM     29  C   UNL     1      49.291   7.716  17.349  0.00  0.00    +0.000 A 
ATOM     30  C   UNL     1      49.012   6.355  17.805  0.00  0.00    +0.000 A 
BRANCH  22  32
ATOM     31  C   UNL     1      47.283   4.079  15.572  0.00  0.00    +0.000 C 
ATOM     32  O   UNL     1      48.196   5.135  15.873  0.00  0.00    +0.000 OA
ENDBRANCH  22  32
ENDBRANCH  18  29
ENDBRANCH   1  20
TORSDOF 7
ENDMDL
MODEL 3
REMARK VINA RESULT:    -7.308      2.522      4.192
REMARK INTER + INTRA:         -11.361
REMARK INTER:                 -10.091
REMARK INTRA:                  -1.271
REMARK UNBOUND:                -1.063
REMARK  Name = 
REMARK  9 active torsions:
REMARK  status: ('A' for Active; 'I' for Inactive)
REMARK    1  A    between atoms: C_1  and  O_2
REMARK    2  A    between atoms: O_2  and  C_3
REMARK    3  A    between atoms: C_10  and  C_11
REMARK    4  A    between atoms: N_13  and  C_14
REMARK    5  A    between atoms: C_14  and  C_15
REMARK    6  A    between atoms: C_18  and  O_19
REMARK    7  A    between atoms: O_19  and  C_20
REMARK    8  A    between atoms: C_20  and  C_21
REMARK    9  A    between atoms: C_25  and  C_26
REMARK                            x       y       z     vdW  Elec       q    Type
REMARK                         _______ _______ _______ _____ _____    ______ ____
ROOT
ATOM      1  C   UNL     1      47.506   3.987  15.376  0.00  0.00    +0.000 C 
ENDROOT
BRANCH   1   2
ATOM      2  C   UNL     1      46.735   4.308  14.121  0.00  0.00    +0.000 A 
ATOM      3  C   UNL     1      46.706   5.609  13.605  0.00  0.00    +0.000 A 
ATOM      4  C   UNL     1      46.041   5.888  12.401  0.00  0.00    +0.000 A 
ATOM      5  C   UNL     1      45.392   4.873  11.699  0.00  0.00    +0.000 A 
ATOM      6  C   UNL     1      45.388   3.583  12.232  0.00  0.00    +0.000 A 
ATOM      7  C   UNL     1      46.043   3.302  13.435  0.00  0.00    +0.000 A 
BRANCH   5   8
ATOM      8  O   UNL     1      44.744   5.004  10.499  0.00  0.00    +0.000 OA
BRANCH   8   9
ATOM      9  C   UNL     1      45.570   5.143   9.343  0.00  0.00    +0.000 C 
BRANCH   9  10
ATOM     10  C   UNL     1      45.038   4.248   8.218  0.00  0.00    +0.000 C 
ATOM     11  C   UNL     1      44.465   2.941   8.780  0.00  0.00    +0.000 C 
ATOM     12  C   UNL     1      45.669   2.015   8.817  0.00  0.00    +0.000 C 
ATOM     13  N   UNL     1      46.418   2.394   7.637  0.00  0.00    +0.000 N 
ATOM     14  C   UNL     1      47.219   1.484   6.987  0.00  0.00    +0.000 C 
ATOM     15  C   UNL     1      47.888   1.912   5.706  0.00  0.00    +0.000 C 
ATOM     16  O   UNL     1      47.377   0.335   7.406  0.00  0.00    +0.000 OA
ATOM     17  C   UNL     1      46.126   3.769   7.247  0.00  0.00    +0.000 C 
ENDBRANCH   9  10
ENDBRANCH   8   9
ENDBRANCH   5   8
ENDBRANCH   1   2
BRANCH   1  20
ATOM     18  C   UNL     1      48.773   5.331  17.002  0.00  0.00    +0.000 C 
ATOM     19  O   UNL     1      49.699   4.521  16.993  0.00  0.00    +0.000 OA
ATOM     20  N   UNL     1      47.651   5.130  16.245  0.00  0.00    +0.000 N 
ATOM     21  H   UNL     1      46.896   5.803  16.271  0.00  0.00    +0.000 HD
BRANCH  18  29
ATOM     22  C   UNL     1      48.574   8.707  16.283  0.00  0.00    +0.000 A 
ATOM     23  N   UNL     1      48.574  10.057  16.294  0.00  0.00    +0.000 NA
ATOM     24  C   UNL     1      48.746  10.679  17.463  0.00  0.00    +0.000 A 
ATOM     25  N   UNL     1      48.920  10.110  18.652  0.00  0.00    +0.000 NA
ATOM     26  C   UNL     1      48.926   8.768  18.597  0.00  0.00    +0.000 A 
ATOM     27  S   UNL     1      49.139   7.880  20.027  0.00  0.00    +0.000 S 
ATOM     28  C   UNL     1      49.045   6.411  19.184  0.00  0.00    +0.000 A 
ATOM     29  C   UNL     1      48.848   6.554  17.815  0.00  0.00    +0.000 A 
ATOM     30  C   UNL     1      48.770   7.971  17.465  0.00  0.00    +0.000 A 
BRANCH  22  32
ATOM     31  C   UNL     1      49.438   8.366  14.142  0.00  0.00    +0.000 C 
ATOM     32  O   UNL     1      48.394   8.070  15.070  0.00  0.00    +0.000 OA
ENDBRANCH  22  32
ENDBRANCH  18  29
ENDBRANCH   1  20
TORSDOF 7
ENDMDL
MODEL 4
REMARK VINA RESULT:    -7.201      2.304      3.746
REMARK INTER + INTRA:         -11.210
REMARK INTER:                  -9.729
REMARK INTRA:                  -1.481
REMARK UNBOUND:                -1.063
REMARK  Name = 
REMARK  9 active torsions:
REMARK  status: ('A' for Active; 'I' for Inactive)
REMARK    1  A    between atoms: C_1  and  O_2
REMARK    2  A    between atoms: O_2  and  C_3
REMARK    3  A    between atoms: C_10  and  C_11
REMARK    4  A    between atoms: N_13  and  C_14
REMARK    5  A    between atoms: C_14  and  C_15
REMARK    6  A    between atoms: C_18  and  O_19
REMARK    7  A    between atoms: O_19  and  C_20
REMARK    8  A    between atoms: C_20  and  C_21
REMARK    9  A    between atoms: C_25  and  C_26
REMARK                            x       y       z     vdW  Elec       q    Type
REMARK                         _______ _______ _______ _____ _____    ______ ____
ROOT
ATOM      1  C   UNL     1      47.735   3.621  17.365  0.00  0.00    +0.000 C 
ENDROOT
BRANCH   1   2
ATOM      2  C   UNL     1      47.570   4.367  16.067  0.00  0.00    +0.000 A 
ATOM      3  C   UNL     1      48.195   5.604  15.862  0.00  0.00    +0.000 A 
ATOM      4  C   UNL     1      48.090   6.263  14.627  0.00  0.00    +0.000 A 
ATOM      5  C   UNL     1      47.358   5.700  13.583  0.00  0.00    +0.000 A 
ATOM      6  C   UNL     1      46.703   4.486  13.798  0.00  0.00    +0.000 A 
ATOM      7  C   UNL     1      46.798   3.829  15.030  0.00  0.00    +0.000 A 
BRANCH   5   8
ATOM      8  O   UNL     1      47.213   6.218  12.323  0.00  0.00    +0.000 OA
BRANCH   8   9
ATOM      9  C   UNL     1      46.216   7.228  12.162  0.00  0.00    +0.000 C 
BRANCH   9  10
ATOM     10  C   UNL     1      45.300   6.866  10.989  0.00  0.00    +0.000 C 
ATOM     11  C   UNL     1      43.827   6.895  11.412  0.00  0.00    +0.000 C 
ATOM     12  C   UNL     1      43.576   5.484  11.919  0.00  0.00    +0.000 C 
ATOM     13  N   UNL     1      44.385   4.665  11.039  0.00  0.00    +0.000 N 
ATOM     14  C   UNL     1      44.032   3.365  10.763  0.00  0.00    +0.000 C 
ATOM     15  C   UNL     1      44.856   2.602   9.758  0.00  0.00    +0.000 C 
ATOM     16  O   UNL     1      43.055   2.827  11.289  0.00  0.00    +0.000 OA
ATOM     17  C   UNL     1      45.493   5.430  10.478  0.00  0.00    +0.000 C 
ENDBRANCH   9  10
ENDBRANCH   8   9
ENDBRANCH   5   8
ENDBRANCH   1   2
BRANCH   1  20
ATOM     18  C   UNL     1      49.879   2.448  17.077  0.00  0.00    +0.000 C 
ATOM     19  O   UNL     1      49.397   1.719  16.211  0.00  0.00    +0.000 OA
ATOM     20  N   UNL     1      49.120   3.398  17.705  0.00  0.00    +0.000 N 
ATOM     21  H   UNL     1      49.530   3.982  18.420  0.00  0.00    +0.000 HD
BRANCH  18  29
ATOM     22  C   UNL     1      52.346   4.740  17.860  0.00  0.00    +0.000 A 
ATOM     23  N   UNL     1      53.489   5.391  18.162  0.00  0.00    +0.000 NA
ATOM     24  C   UNL     1      54.586   4.666  18.395  0.00  0.00    +0.000 A 
ATOM     25  N   UNL     1      54.688   3.341  18.363  0.00  0.00    +0.000 NA
ATOM     26  C   UNL     1      53.534   2.732  18.047  0.00  0.00    +0.000 A 
ATOM     27  S   UNL     1      53.486   1.038  17.962  0.00  0.00    +0.000 S 
ATOM     28  C   UNL     1      51.844   1.059  17.538  0.00  0.00    +0.000 A 
ATOM     29  C   UNL     1      51.294   2.334  17.457  0.00  0.00    +0.000 A 
ATOM     30  C   UNL     1      52.310   3.337  17.769  0.00  0.00    +0.000 A 
BRANCH  22  32
ATOM     31  C   UNL     1      50.946   6.419  18.679  0.00  0.00    +0.000 C 
ATOM     32  O   UNL     1      51.214   5.497  17.622  0.00  0.00    +0.000 OA
ENDBRANCH  22  32
ENDBRANCH  18  29
ENDBRANCH   1  20
TORSDOF 7
ENDMDL
MODEL 5
REMARK VINA RESULT:    -7.025      2.775      4.059
REMARK INTER + INTRA:         -10.963
REMARK INTER:                  -9.917
REMARK INTRA:                  -1.046
REMARK UNBOUND:                -1.063
REMARK  Name = 
REMARK  9 active torsions:
REMARK  status: ('A' for Active; 'I' for Inactive)
REMARK    1  A    between atoms: C_1  and  O_2
REMARK    2  A    between atoms: O_2  and  C_3
REMARK    3  A    between atoms: C_10  and  C_11
REMARK    4  A    between atoms: N_13  and  C_14
REMARK    5  A    between atoms: C_14  and  C_15
REMARK    6  A    between atoms: C_18  and  O_19
REMARK    7  A    between atoms: O_19  and  C_20
REMARK    8  A    between atoms: C_20  and  C_21
REMARK    9  A    between atoms: C_25  and  C_26
REMARK                            x       y       z     vdW  Elec       q    Type
REMARK                         _______ _______ _______ _____ _____    ______ ____
ROOT
ATOM      1  C   UNL     1      48.157   8.333  14.182  0.00  0.00    +0.000 C 
ENDROOT
BRANCH   1   2
ATOM      2  C   UNL     1      47.180   7.578  13.318  0.00  0.00    +0.000 A 
ATOM      3  C   UNL     1      46.193   8.252  12.587  0.00  0.00    +0.000 A 
ATOM      4  C   UNL     1      45.328   7.549  11.734  0.00  0.00    +0.000 A 
ATOM      5  C   UNL     1      45.433   6.165  11.602  0.00  0.00    +0.000 A 
ATOM      6  C   UNL     1      46.391   5.487  12.359  0.00  0.00    +0.000 A 
ATOM      7  C   UNL     1      47.250   6.183  13.216  0.00  0.00    +0.000 A 
BRANCH   5   8
ATOM      8  O   UNL     1      44.682   5.370  10.777  0.00  0.00    +0.000 OA
BRANCH   8   9
ATOM      9  C   UNL     1      45.226   4.089  10.461  0.00  0.00    +0.000 C 
BRANCH   9  10
ATOM     10  C   UNL     1      44.615   3.578   9.152  0.00  0.00    +0.000 C 
ATOM     11  C   UNL     1      44.323   2.075   9.230  0.00  0.00    +0.000 C 
ATOM     12  C   UNL     1      45.621   1.438   8.762  0.00  0.00    +0.000 C 
ATOM     13  N   UNL     1      46.090   2.350   7.739  0.00  0.00    +0.000 N 
ATOM     14  C   UNL     1      46.868   1.902   6.697  0.00  0.00    +0.000 C 
ATOM     15  C   UNL     1      47.234   2.880   5.610  0.00  0.00    +0.000 C 
ATOM     16  O   UNL     1      47.243   0.730   6.618  0.00  0.00    +0.000 OA
ATOM     17  C   UNL     1      45.561   3.693   7.947  0.00  0.00    +0.000 C 
ENDBRANCH   9  10
ENDBRANCH   8   9
ENDBRANCH   5   8
ENDBRANCH   1   2
BRANCH   1  20
ATOM     18  C   UNL     1      49.036   7.096  16.119  0.00  0.00    +0.000 C 
ATOM     19  O   UNL     1      49.952   6.630  15.443  0.00  0.00    +0.000 OA
ATOM     20  N   UNL     1      48.101   7.929  15.566  0.00  0.00    +0.000 N 
ATOM     21  H   UNL     1      47.351   8.295  16.135  0.00  0.00    +0.000 HD
BRANCH  18  29
ATOM     22  C   UNL     1      47.732   8.780  18.843  0.00  0.00    +0.000 A 
ATOM     23  N   UNL     1      47.347   9.208  20.064  0.00  0.00    +0.000 NA
ATOM     24  C   UNL     1      47.570   8.412  21.113  0.00  0.00    +0.000 A 
ATOM     25  N   UNL     1      48.142   7.213  21.097  0.00  0.00    +0.000 NA
ATOM     26  C   UNL     1      48.522   6.828  19.867  0.00  0.00    +0.000 A 
ATOM     27  S   UNL     1      49.270   5.319  19.665  0.00  0.00    +0.000 S 
ATOM     28  C   UNL     1      49.431   5.570  17.995  0.00  0.00    +0.000 A 
ATOM     29  C   UNL     1      48.923   6.786  17.552  0.00  0.00    +0.000 A 
ATOM     30  C   UNL     1      48.371   7.538  18.678  0.00  0.00    +0.000 A 
BRANCH  22  32
ATOM     31  C   UNL     1      48.329  10.768  17.776  0.00  0.00    +0.000 C 
ATOM     32  O   UNL     1      47.497   9.608  17.762  0.00  0.00    +0.000 OA
ENDBRANCH  22  32
ENDBRANCH  18  29
ENDBRANCH   1  20
TORSDOF 7
ENDMDL
MODEL 6
REMARK VINA RESULT:    -6.981      3.697      9.755
REMARK INTER + INTRA:         -10.900
REMARK INTER:                  -9.823
REMARK INTRA:                  -1.077
REMARK UNBOUND:                -1.063
REMARK  Name = 
REMARK  9 active torsions:
REMARK  status: ('A' for Active; 'I' for Inactive)
REMARK    1  A    between atoms: C_1  and  O_2
REMARK    2  A    between atoms: O_2  and  C_3
REMARK    3  A    between atoms: C_10  and  C_11
REMARK    4  A    between atoms: N_13  and  C_14
REMARK    5  A    between atoms: C_14  and  C_15
REMARK    6  A    between atoms: C_18  and  O_19
REMARK    7  A    between atoms: O_19  and  C_20
REMARK    8  A    between atoms: C_20  and  C_21
REMARK    9  A    between atoms: C_25  and  C_26
REMARK                            x       y       z     vdW  Elec       q    Type
REMARK                         _______ _______ _______ _____ _____    ______ ____
ROOT
ATOM      1  C   UNL     1      47.326   3.508  16.753  0.00  0.00    +0.000 C 
ENDROOT
BRANCH   1   2
ATOM      2  C   UNL     1      48.810   3.568  17.007  0.00  0.00    +0.000 A 
ATOM      3  C   UNL     1      49.454   4.790  17.238  0.00  0.00    +0.000 A 
ATOM      4  C   UNL     1      50.824   4.832  17.539  0.00  0.00    +0.000 A 
ATOM      5  C   UNL     1      51.571   3.657  17.609  0.00  0.00    +0.000 A 
ATOM      6  C   UNL     1      50.939   2.441  17.342  0.00  0.00    +0.000 A 
ATOM      7  C   UNL     1      49.575   2.395  17.034  0.00  0.00    +0.000 A 
BRANCH   5   8
ATOM      8  O   UNL     1      52.899   3.558  17.932  0.00  0.00    +0.000 OA
BRANCH   8   9
ATOM      9  C   UNL     1      53.251   2.540  18.868  0.00  0.00    +0.000 C 
BRANCH   9  10
ATOM     10  C   UNL     1      54.621   1.957  18.504  0.00  0.00    +0.000 C 
ATOM     11  C   UNL     1      54.674   1.560  17.024  0.00  0.00    +0.000 C 
ATOM     12  C   UNL     1      54.171   0.126  17.025  0.00  0.00    +0.000 C 
ATOM     13  N   UNL     1      54.700  -0.412  18.262  0.00  0.00    +0.000 N 
ATOM     14  C   UNL     1      54.978  -1.754  18.385  0.00  0.00    +0.000 C 
ATOM     15  C   UNL     1      55.625  -2.232  19.660  0.00  0.00    +0.000 C 
ATOM     16  O   UNL     1      54.741  -2.557  17.479  0.00  0.00    +0.000 OA
ATOM     17  C   UNL     1      54.945   0.646  19.235  0.00  0.00    +0.000 C 
ENDBRANCH   9  10
ENDBRANCH   8   9
ENDBRANCH   5   8
ENDBRANCH   1   2
BRANCH   1  20
ATOM     18  C   UNL     1      46.835   4.318  14.482  0.00  0.00    +0.000 C 
ATOM     19  O   UNL     1      47.206   3.253  13.990  0.00  0.00    +0.000 OA
ATOM     20  N   UNL     1      46.880   4.527  15.833  0.00  0.00    +0.000 N 
ATOM     21  H   UNL     1      46.578   5.411  16.219  0.00  0.00    +0.000 HD
BRANCH  18  29
ATOM     22  C   UNL     1      43.950   4.730  12.621  0.00  0.00    +0.000 A 
ATOM     23  N   UNL     1      42.963   5.143  11.798  0.00  0.00    +0.000 NA
ATOM     24  C   UNL     1      43.081   6.341  11.220  0.00  0.00    +0.000 A 
ATOM     25  N   UNL     1      44.085   7.200  11.364  0.00  0.00    +0.000 NA
ATOM     26  C   UNL     1      45.052   6.748  12.180  0.00  0.00    +0.000 A 
ATOM     27  S   UNL     1      46.410   7.721  12.475  0.00  0.00    +0.000 S 
ATOM     28  C   UNL     1      47.091   6.544  13.489  0.00  0.00    +0.000 A 
ATOM     29  C   UNL     1      46.313   5.400  13.633  0.00  0.00    +0.000 A 
ATOM     30  C   UNL     1      45.086   5.527  12.850  0.00  0.00    +0.000 A 
BRANCH  22  32
ATOM     31  C   UNL     1      43.551   2.458  12.269  0.00  0.00    +0.000 C 
ATOM     32  O   UNL     1      43.819   3.490  13.218  0.00  0.00    +0.000 OA
ENDBRANCH  22  32
ENDBRANCH  18  29
ENDBRANCH   1  20
TORSDOF 7
ENDMDL
MODEL 7
REMARK VINA RESULT:    -6.901      3.697      9.280
REMARK INTER + INTRA:         -10.788
REMARK INTER:                  -9.493
REMARK INTRA:                  -1.295
REMARK UNBOUND:                -1.063
REMARK  Name = 
REMARK  9 active torsions:
REMARK  status: ('A' for Active; 'I' for Inactive)
REMARK    1  A    between atoms: C_1  and  O_2
REMARK    2  A    between atoms: O_2  and  C_3
REMARK    3  A    between atoms: C_10  and  C_11
REMARK    4  A    between atoms: N_13  and  C_14
REMARK    5  A    between atoms: C_14  and  C_15
REMARK    6  A    between atoms: C_18  and  O_19
REMARK    7  A    between atoms: O_19  and  C_20
REMARK    8  A    between atoms: C_20  and  C_21
REMARK    9  A    between atoms: C_25  and  C_26
REMARK                            x       y       z     vdW  Elec       q    Type
REMARK                         _______ _______ _______ _____ _____    ______ ____
ROOT
ATOM      1  C   UNL     1      47.337   3.438  16.948  0.00  0.00    +0.000 C 
ENDROOT
BRANCH   1   2
ATOM      2  C   UNL     1      48.809   3.314  17.247  0.00  0.00    +0.000 A 
ATOM      3  C   UNL     1      49.501   2.125  16.984  0.00  0.00    +0.000 A 
ATOM      4  C   UNL     1      50.884   2.037  17.204  0.00  0.00    +0.000 A 
ATOM      5  C   UNL     1      51.594   3.133  17.694  0.00  0.00    +0.000 A 
ATOM      6  C   UNL     1      50.899   4.306  17.993  0.00  0.00    +0.000 A 
ATOM      7  C   UNL     1      49.520   4.396  17.782  0.00  0.00    +0.000 A 
BRANCH   5   8
ATOM      8  O   UNL     1      52.945   3.190  17.913  0.00  0.00    +0.000 OA
BRANCH   8   9
ATOM      9  C   UNL     1      53.374   3.949  19.044  0.00  0.00    +0.000 C 
BRANCH   9  10
ATOM     10  C   UNL     1      54.554   4.842  18.648  0.00  0.00    +0.000 C 
ATOM     11  C   UNL     1      54.237   6.320  18.907  0.00  0.00    +0.000 C 
ATOM     12  C   UNL     1      53.582   6.773  17.613  0.00  0.00    +0.000 C 
ATOM     13  N   UNL     1      54.302   6.032  16.598  0.00  0.00    +0.000 N 
ATOM     14  C   UNL     1      54.443   6.533  15.325  0.00  0.00    +0.000 C 
ATOM     15  C   UNL     1      55.292   5.762  14.346  0.00  0.00    +0.000 C 
ATOM     16  O   UNL     1      53.922   7.596  14.979  0.00  0.00    +0.000 OA
ATOM     17  C   UNL     1      54.875   4.807  17.146  0.00  0.00    +0.000 C 
ENDBRANCH   9  10
ENDBRANCH   8   9
ENDBRANCH   5   8
ENDBRANCH   1   2
BRANCH   1  20
ATOM     18  C   UNL     1      47.050   4.267  14.648  0.00  0.00    +0.000 C 
ATOM     19  O   UNL     1      47.327   3.161  14.184  0.00  0.00    +0.000 OA
ATOM     20  N   UNL     1      47.051   4.488  15.999  0.00  0.00    +0.000 N 
ATOM     21  H   UNL     1      46.829   5.405  16.361  0.00  0.00    +0.000 HD
BRANCH  18  29
ATOM     22  C   UNL     1      44.290   5.001  12.699  0.00  0.00    +0.000 A 
ATOM     23  N   UNL     1      43.386   5.517  11.841  0.00  0.00    +0.000 NA
ATOM     24  C   UNL     1      43.671   6.677  11.244  0.00  0.00    +0.000 A 
ATOM     25  N   UNL     1      44.772   7.405  11.401  0.00  0.00    +0.000 NA
ATOM     26  C   UNL     1      45.652   6.852  12.252  0.00  0.00    +0.000 A 
ATOM     27  S   UNL     1      47.115   7.651  12.568  0.00  0.00    +0.000 S 
ATOM     28  C   UNL     1      47.613   6.420  13.623  0.00  0.00    +0.000 A 
ATOM     29  C   UNL     1      46.693   5.387  13.766  0.00  0.00    +0.000 A 
ATOM     30  C   UNL     1      45.512   5.652  12.946  0.00  0.00    +0.000 A 
BRANCH  22  32
ATOM     31  C   UNL     1      43.571   2.803  12.381  0.00  0.00    +0.000 C 
ATOM     32  O   UNL     1      43.988   3.800  13.314  0.00  0.00    +0.000 OA
ENDBRANCH  22  32
ENDBRANCH  18  29
ENDBRANCH   1  20
TORSDOF 7
ENDMDL
MODEL 8
REMARK VINA RESULT:    -6.883      2.233      2.868
REMARK INTER + INTRA:         -10.762
REMARK INTER:                  -9.147
REMARK INTRA:                  -1.615
REMARK UNBOUND:                -1.063
REMARK  Name = 
REMARK  9 active torsions:
REMARK  status: ('A' for Active; 'I' for Inactive)
REMARK    1  A    between atoms: C_1  and  O_2
REMARK    2  A    between atoms: O_2  and  C_3
REMARK    3  A    between atoms: C_10  and  C_11
REMARK    4  A    between atoms: N_13  and  C_14
REMARK    5  A    between atoms: C_14  and  C_15
REMARK    6  A    between atoms: C_18  and  O_19
REMARK    7  A    between atoms: O_19  and  C_20
REMARK    8  A    between atoms: C_20  and  C_21
REMARK    9  A    between atoms: C_25  and  C_26
REMARK                            x       y       z     vdW  Elec       q    Type
REMARK                         _______ _______ _______ _____ _____    ______ ____
ROOT
ATOM      1  C   UNL     1      49.877   7.833  12.971  0.00  0.00    +0.000 C 
ENDROOT
BRANCH   1   2
ATOM      2  C   UNL     1      48.418   7.579  12.692  0.00  0.00    +0.000 A 
ATOM      3  C   UNL     1      47.544   8.636  12.409  0.00  0.00    +0.000 A 
ATOM      4  C   UNL     1      46.201   8.388  12.086  0.00  0.00    +0.000 A 
ATOM      5  C   UNL     1      45.711   7.083  12.045  0.00  0.00    +0.000 A 
ATOM      6  C   UNL     1      46.573   6.031  12.364  0.00  0.00    +0.000 A 
ATOM      7  C   UNL     1      47.910   6.275  12.694  0.00  0.00    +0.000 A 
BRANCH   5   8
ATOM      8  O   UNL     1      44.439   6.705  11.706  0.00  0.00    +0.000 OA
BRANCH   8   9
ATOM      9  C   UNL     1      43.816   5.740  12.553  0.00  0.00    +0.000 C 
BRANCH   9  10
ATOM     10  C   UNL     1      43.103   4.687  11.698  0.00  0.00    +0.000 C 
ATOM     11  C   UNL     1      43.372   3.274  12.230  0.00  0.00    +0.000 C 
ATOM     12  C   UNL     1      44.644   2.861  11.508  0.00  0.00    +0.000 C 
ATOM     13  N   UNL     1      44.496   3.464  10.199  0.00  0.00    +0.000 N 
ATOM     14  C   UNL     1      45.087   2.902   9.092  0.00  0.00    +0.000 C 
ATOM     15  C   UNL     1      44.806   3.518   7.745  0.00  0.00    +0.000 C 
ATOM     16  O   UNL     1      45.805   1.903   9.171  0.00  0.00    +0.000 OA
ATOM     17  C   UNL     1      43.612   4.624  10.251  0.00  0.00    +0.000 C 
ENDBRANCH   9  10
ENDBRANCH   8   9
ENDBRANCH   5   8
ENDBRANCH   1   2
BRANCH   1  20
ATOM     18  C   UNL     1      50.228   8.125  15.389  0.00  0.00    +0.000 C 
ATOM     19  O   UNL     1      49.848   9.294  15.332  0.00  0.00    +0.000 OA
ATOM     20  N   UNL     1      50.287   7.345  14.266  0.00  0.00    +0.000 N 
ATOM     21  H   UNL     1      50.610   6.389  14.330  0.00  0.00    +0.000 HD
BRANCH  18  29
ATOM     22  C   UNL     1      49.200   5.320  17.129  0.00  0.00    +0.000 A 
ATOM     23  N   UNL     1      48.978   4.337  18.027  0.00  0.00    +0.000 NA
ATOM     24  C   UNL     1      49.694   4.336  19.154  0.00  0.00    +0.000 A 
ATOM     25  N   UNL     1      50.628   5.214  19.506  0.00  0.00    +0.000 NA
ATOM     26  C   UNL     1      50.811   6.182  18.593  0.00  0.00    +0.000 A 
ATOM     27  S   UNL     1      51.968   7.388  18.884  0.00  0.00    +0.000 S 
ATOM     28  C   UNL     1      51.608   8.153  17.414  0.00  0.00    +0.000 A 
ATOM     29  C   UNL     1      50.617   7.520  16.671  0.00  0.00    +0.000 A 
ATOM     30  C   UNL     1      50.145   6.332  17.379  0.00  0.00    +0.000 A 
BRANCH  22  32
ATOM     31  C   UNL     1      47.442   4.308  15.974  0.00  0.00    +0.000 C 
ATOM     32  O   UNL     1      48.456   5.314  15.965  0.00  0.00    +0.000 OA
ENDBRANCH  22  32
ENDBRANCH  18  29
ENDBRANCH   1  20
TORSDOF 7
ENDMDL
MODEL 9
REMARK VINA RESULT:    -6.752      2.995      3.789
REMARK INTER + INTRA:         -10.578
REMARK INTER:                  -9.373
REMARK INTRA:                  -1.205
REMARK UNBOUND:                -1.063
REMARK  Name = 
REMARK  9 active torsions:
REMARK  status: ('A' for Active; 'I' for Inactive)
REMARK    1  A    between atoms: C_1  and  O_2
REMARK    2  A    between atoms: O_2  and  C_3
REMARK    3  A    between atoms: C_10  and  C_11
REMARK    4  A    between atoms: N_13  and  C_14
REMARK    5  A    between atoms: C_14  and  C_15
REMARK    6  A    between atoms: C_18  and  O_19
REMARK    7  A    between atoms: O_19  and  C_20
REMARK    8  A    between atoms: C_20  and  C_21
REMARK    9  A    between atoms: C_25  and  C_26
REMARK                            x       y       z     vdW  Elec       q    Type
REMARK                         _______ _______ _______ _____ _____    ______ ____
ROOT
ATOM      1  C   UNL     1      49.837   7.435  14.553  0.00  0.00    +0.000 C 
ENDROOT
BRANCH   1   2
ATOM      2  C   UNL     1      48.700   7.028  13.652  0.00  0.00    +0.000 A 
ATOM      3  C   UNL     1      47.847   5.973  14.000  0.00  0.00    +0.000 A 
ATOM      4  C   UNL     1      46.751   5.641  13.188  0.00  0.00    +0.000 A 
ATOM      5  C   UNL     1      46.495   6.353  12.017  0.00  0.00    +0.000 A 
ATOM      6  C   UNL     1      47.367   7.379  11.650  0.00  0.00    +0.000 A 
ATOM      7  C   UNL     1      48.464   7.709  12.452  0.00  0.00    +0.000 A 
BRANCH   5   8
ATOM      8  O   UNL     1      45.442   6.157  11.164  0.00  0.00    +0.000 OA
BRANCH   8   9
ATOM      9  C   UNL     1      44.227   5.688  11.750  0.00  0.00    +0.000 C 
BRANCH   9  10
ATOM     10  C   UNL     1      43.484   4.794  10.751  0.00  0.00    +0.000 C 
ATOM     11  C   UNL     1      43.337   3.368  11.294  0.00  0.00    +0.000 C 
ATOM     12  C   UNL     1      44.606   2.677  10.822  0.00  0.00    +0.000 C 
ATOM     13  N   UNL     1      44.845   3.271   9.523  0.00  0.00    +0.000 N 
ATOM     14  C   UNL     1      45.504   2.572   8.538  0.00  0.00    +0.000 C 
ATOM     15  C   UNL     1      45.628   3.207   7.176  0.00  0.00    +0.000 C 
ATOM     16  O   UNL     1      45.964   1.445   8.732  0.00  0.00    +0.000 OA
ATOM     17  C   UNL     1      44.237   4.594   9.427  0.00  0.00    +0.000 C 
ENDBRANCH   9  10
ENDBRANCH   8   9
ENDBRANCH   5   8
ENDBRANCH   1   2
BRANCH   1  20
ATOM     18  C   UNL     1      48.674   8.668  16.337  0.00  0.00    +0.000 C 
ATOM     19  O   UNL     1      48.343   9.554  15.549  0.00  0.00    +0.000 OA
ATOM     20  N   UNL     1      49.425   7.601  15.927  0.00  0.00    +0.000 N 
ATOM     21  H   UNL     1      49.694   6.887  16.589  0.00  0.00    +0.000 HD
BRANCH  18  29
ATOM     22  C   UNL     1      48.115   6.268  18.762  0.00  0.00    +0.000 A 
ATOM     23  N   UNL     1      47.794   5.567  19.870  0.00  0.00    +0.000 NA
ATOM     24  C   UNL     1      47.404   6.242  20.955  0.00  0.00    +0.000 A 
ATOM     25  N   UNL     1      47.291   7.561  21.075  0.00  0.00    +0.000 NA
ATOM     26  C   UNL     1      47.607   8.222  19.948  0.00  0.00    +0.000 A 
ATOM     27  S   UNL     1      47.517   9.915  19.927  0.00  0.00    +0.000 S 
ATOM     28  C   UNL     1      48.010   9.968  18.305  0.00  0.00    +0.000 A 
ATOM     29  C   UNL     1      48.258   8.719  17.746  0.00  0.00    +0.000 A 
ATOM     30  C   UNL     1      48.021   7.671  18.738  0.00  0.00    +0.000 A 
BRANCH  22  32
ATOM     31  C   UNL     1      47.557   4.590  17.239  0.00  0.00    +0.000 C 
ATOM     32  O   UNL     1      48.520   5.563  17.645  0.00  0.00    +0.000 OA
ENDBRANCH  22  32
ENDBRANCH  18  29
ENDBRANCH   1  20
TORSDOF 7
ENDMDL
