MODEL 1
REMARK VINA RESULT:    -7.735      0.000      0.000
REMARK INTER + INTRA:         -11.400
REMARK INTER:                 -10.448
REMARK INTRA:                  -0.952
REMARK UNBOUND:                -0.952
REMARK  Name = 
REMARK  8 active torsions:
REMARK  status: ('A' for Active; 'I' for Inactive)
REMARK    1  A    between atoms: C_1  and  N_2
REMARK    2  A    between atoms: C_3  and  C_5
REMARK    3  A    between atoms: C_8  and  O_9
REMARK    4  A    between atoms: O_9  and  C_10
REMARK    5  A    between atoms: C_10  and  C_11
REMARK    6  A    between atoms: C_11  and  C_12
REMARK    7  A    between atoms: C_11  and  C_14
REMARK    8  A    between atoms: C_18  and  C_19
REMARK                            x       y       z     vdW  Elec       q    Type
REMARK                         _______ _______ _______ _____ _____    ______ ____
ROOT
ATOM      1  C   UNL     1      43.391   4.719  12.680  0.00  0.00    +0.000 C 
ATOM      2  C   UNL     1      42.374   5.549  11.896  0.00  0.00    +0.000 C 
ATOM      3  F   UNL     1      42.779   4.421  13.878  0.00  0.00    +0.000 F 
ENDROOT
BRANCH   1   4
ATOM      4  C   UNL     1      44.682   5.510  12.911  0.00  0.00    +0.000 A 
ATOM      5  C   UNL     1      45.861   4.840  13.257  0.00  0.00    +0.000 A 
ATOM      6  C   UNL     1      47.068   5.533  13.398  0.00  0.00    +0.000 A 
ATOM      7  C   UNL     1      47.113   6.912  13.190  0.00  0.00    +0.000 A 
ATOM      8  C   UNL     1      45.945   7.604  12.855  0.00  0.00    +0.000 A 
ATOM      9  C   UNL     1      44.738   6.904  12.729  0.00  0.00    +0.000 A 
BRANCH   8  10
ATOM     10  C   UNL     1      45.938   9.064  12.568  0.00  0.00    +0.000 C 
ATOM     11  N   UNL     1      44.752   9.730  12.691  0.00  0.00    +0.000 N 
ATOM     12  O   UNL     1      46.951   9.650  12.207  0.00  0.00    +0.000 OA
ATOM     13  H   UNL     1      43.861   9.261  12.762  0.00  0.00    +0.000 HD
ATOM     14  H   UNL     1      44.753  10.703  12.411  0.00  0.00    +0.000 HD
ENDBRANCH   8  10
ENDBRANCH   1   4
BRANCH   1  15
ATOM     15  C   UNL     1      43.712   3.371  12.001  0.00  0.00    +0.000 C 
BRANCH  15  16
ATOM     16  O   UNL     1      43.185   3.303  10.667  0.00  0.00    +0.000 OA
BRANCH  16  20
ATOM     17  C   UNL     1      46.129   2.537   7.884  0.00  0.00    +0.000 A 
ATOM     18  C   UNL     1      45.684   3.848   8.078  0.00  0.00    +0.000 A 
ATOM     19  C   UNL     1      44.682   4.096   9.018  0.00  0.00    +0.000 A 
ATOM     20  C   UNL     1      44.177   3.028   9.744  0.00  0.00    +0.000 A 
ATOM     21  N   UNL     1      44.587   1.753   9.575  0.00  0.00    +0.000 NA
ATOM     22  C   UNL     1      45.541   1.532   8.638  0.00  0.00    +0.000 A 
BRANCH  17  25
ATOM     23  C   UNL     1      48.185   2.600   4.719  0.00  0.00    +0.000 C 
ATOM     24  N   UNL     1      47.185   2.880   5.719  0.00  0.00    +0.000 N 
ATOM     25  C   UNL     1      47.158   2.157   6.893  0.00  0.00    +0.000 C 
ATOM     26  O   UNL     1      47.951   1.259   7.151  0.00  0.00    +0.000 OA
ATOM     27  H   UNL     1      46.640   3.726   5.630  0.00  0.00    +0.000 HD
ENDBRANCH  17  25
ENDBRANCH  16  20
ENDBRANCH  15  16
ENDBRANCH   1  15
TORSDOF 6
ENDMDL
MODEL 2
REMARK VINA RESULT:    -7.622      2.097      2.439
REMARK INTER + INTRA:         -11.247
REMARK INTER:                 -10.259
REMARK INTRA:                  -0.988
REMARK UNBOUND:                -0.952
REMARK  Name = 
REMARK  8 active torsions:
REMARK  status: ('A' for Active; 'I' for Inactive)
REMARK    1  A    between atoms: C_1  and  N_2
REMARK    2  A    between atoms: C_3  and  C_5
REMARK    3  A    between atoms: C_8  and  O_9
REMARK    4  A    between atoms: O_9  and  C_10
REMARK    5  A    between atoms: C_10  and  C_11
REMARK    6  A    between atoms: C_11  and  C_12
REMARK    7  A    between atoms: C_11  and  C_14
REMARK    8  A    between atoms: C_18  and  C_19
REMARK                            x       y       z     vdW  Elec       q    Type
REMARK                         _______ _______ _______ _____ _____    ______ ____
ROOT
ATOM      1  C   UNL     1      43.673   5.016  12.428  0.00  0.00    +0.000 C 
ATOM      2  C   UNL     1      43.035   6.048  11.498  0.00  0.00    +0.000 C 
ATOM      3  F   UNL     1      42.927   5.050  13.586  0.00  0.00    +0.000 F 
ENDROOT
BRANCH   1   4
ATOM      4  C   UNL     1      45.136   5.367  12.714  0.00  0.00    +0.000 A 
ATOM      5  C   UNL     1      45.829   6.231  11.859  0.00  0.00    +0.000 A 
ATOM      6  C   UNL     1      47.141   6.625  12.144  0.00  0.00    +0.000 A 
ATOM      7  C   UNL     1      47.780   6.160  13.294  0.00  0.00    +0.000 A 
ATOM      8  C   UNL     1      47.112   5.286  14.156  0.00  0.00    +0.000 A 
ATOM      9  C   UNL     1      45.802   4.886  13.857  0.00  0.00    +0.000 A 
BRANCH   8  10
ATOM     10  C   UNL     1      47.717   4.798  15.424  0.00  0.00    +0.000 C 
ATOM     11  N   UNL     1      47.167   3.691  16.006  0.00  0.00    +0.000 N 
ATOM     12  O   UNL     1      48.659   5.379  15.948  0.00  0.00    +0.000 OA
ATOM     13  H   UNL     1      46.268   3.319  15.742  0.00  0.00    +0.000 HD
ATOM     14  H   UNL     1      47.543   3.427  16.908  0.00  0.00    +0.000 HD
ENDBRANCH   8  10
ENDBRANCH   1   4
BRANCH   1  15
ATOM     15  C   UNL     1      43.574   3.576  11.881  0.00  0.00    +0.000 C 
BRANCH  15  16
ATOM     16  O   UNL     1      43.106   3.548  10.523  0.00  0.00    +0.000 OA
BRANCH  16  20
ATOM     17  C   UNL     1      46.116   2.591   7.873  0.00  0.00    +0.000 A 
ATOM     18  C   UNL     1      45.714   3.922   8.012  0.00  0.00    +0.000 A 
ATOM     19  C   UNL     1      44.689   4.235   8.908  0.00  0.00    +0.000 A 
ATOM     20  C   UNL     1      44.119   3.210   9.645  0.00  0.00    +0.000 A 
ATOM     21  N   UNL     1      44.487   1.916   9.529  0.00  0.00    +0.000 NA
ATOM     22  C   UNL     1      45.464   1.632   8.635  0.00  0.00    +0.000 A 
BRANCH  17  25
ATOM     23  C   UNL     1      48.276   2.474   4.780  0.00  0.00    +0.000 C 
ATOM     24  N   UNL     1      47.253   2.821   5.734  0.00  0.00    +0.000 N 
ATOM     25  C   UNL     1      47.165   2.144   6.932  0.00  0.00    +0.000 C 
ATOM     26  O   UNL     1      47.920   1.232   7.249  0.00  0.00    +0.000 OA
ATOM     27  H   UNL     1      46.737   3.679   5.597  0.00  0.00    +0.000 HD
ENDBRANCH  17  25
ENDBRANCH  16  20
ENDBRANCH  15  16
ENDBRANCH   1  15
TORSDOF 6
ENDMDL
MODEL 3
REMARK VINA RESULT:    -7.176      1.946      7.011
REMARK INTER + INTRA:         -10.644
REMARK INTER:                  -9.602
REMARK INTRA:                  -1.043
REMARK UNBOUND:                -0.952
REMARK  Name = 
REMARK  8 active torsions:
REMARK  status: ('A' for Active; 'I' for Inactive)
REMARK    1  A    between atoms: C_1  and  N_2
REMARK    2  A    between atoms: C_3  and  C_5
REMARK    3  A    between atoms: C_8  and  O_9
REMARK    4  A    between atoms: O_9  and  C_10
REMARK    5  A    between atoms: C_10  and  C_11
REMARK    6  A    between atoms: C_11  and  C_12
REMARK    7  A    between atoms: C_11  and  C_14
REMARK    8  A    between atoms: C_18  and  C_19
REMARK                            x       y       z     vdW  Elec       q    Type
REMARK                         _______ _______ _______ _____ _____    ______ ____
ROOT
ATOM      1  C   UNL     1      44.083   3.370  11.282  0.00  0.00    +0.000 C 
ATOM      2  C   UNL     1      43.390   2.011  11.396  0.00  0.00    +0.000 C 
ATOM      3  F   UNL     1      43.071   4.304  11.314  0.00  0.00    +0.000 F 
ENDROOT
BRANCH   1   4
ATOM      4  C   UNL     1      44.877   3.473   9.977  0.00  0.00    +0.000 A 
ATOM      5  C   UNL     1      45.147   4.727   9.418  0.00  0.00    +0.000 A 
ATOM      6  C   UNL     1      45.934   4.848   8.268  0.00  0.00    +0.000 A 
ATOM      7  C   UNL     1      46.469   3.711   7.660  0.00  0.00    +0.000 A 
ATOM      8  C   UNL     1      46.203   2.446   8.195  0.00  0.00    +0.000 A 
ATOM      9  C   UNL     1      45.402   2.333   9.340  0.00  0.00    +0.000 A 
BRANCH   8  10
ATOM     10  C   UNL     1      46.787   1.202   7.626  0.00  0.00    +0.000 C 
ATOM     11  N   UNL     1      47.741   1.332   6.657  0.00  0.00    +0.000 N 
ATOM     12  O   UNL     1      46.410   0.095   7.990  0.00  0.00    +0.000 OA
ATOM     13  H   UNL     1      47.918   2.198   6.171  0.00  0.00    +0.000 HD
ATOM     14  H   UNL     1      48.064   0.474   6.229  0.00  0.00    +0.000 HD
ENDBRANCH   8  10
ENDBRANCH   1   4
BRANCH   1  15
ATOM     15  C   UNL     1      45.003   3.674  12.484  0.00  0.00    +0.000 C 
BRANCH  15  16
ATOM     16  O   UNL     1      44.583   4.847  13.199  0.00  0.00    +0.000 OA
BRANCH  16  20
ATOM     17  C   UNL     1      47.191   7.977  12.573  0.00  0.00    +0.000 A 
ATOM     18  C   UNL     1      47.691   6.682  12.735  0.00  0.00    +0.000 A 
ATOM     19  C   UNL     1      46.800   5.630  12.954  0.00  0.00    +0.000 A 
ATOM     20  C   UNL     1      45.442   5.908  12.979  0.00  0.00    +0.000 A 
ATOM     21  N   UNL     1      44.934   7.148  12.827  0.00  0.00    +0.000 NA
ATOM     22  C   UNL     1      45.818   8.158  12.644  0.00  0.00    +0.000 A 
BRANCH  17  25
ATOM     23  C   UNL     1      48.766  11.349  13.205  0.00  0.00    +0.000 C 
ATOM     24  N   UNL     1      47.937  10.175  13.307  0.00  0.00    +0.000 N 
ATOM     25  C   UNL     1      48.045   9.167  12.371  0.00  0.00    +0.000 C 
ATOM     26  O   UNL     1      48.822   9.207  11.424  0.00  0.00    +0.000 OA
ATOM     27  H   UNL     1      47.427  10.018  14.164  0.00  0.00    +0.000 HD
ENDBRANCH  17  25
ENDBRANCH  16  20
ENDBRANCH  15  16
ENDBRANCH   1  15
TORSDOF 6
ENDMDL
MODEL 4
REMARK VINA RESULT:    -6.965      3.044      7.626
REMARK INTER + INTRA:         -10.359
REMARK INTER:                  -9.591
REMARK INTRA:                  -0.768
REMARK UNBOUND:                -0.952
REMARK  Name = 
REMARK  8 active torsions:
REMARK  status: ('A' for Active; 'I' for Inactive)
REMARK    1  A    between atoms: C_1  and  N_2
REMARK    2  A    between atoms: C_3  and  C_5
REMARK    3  A    between atoms: C_8  and  O_9
REMARK    4  A    between atoms: O_9  and  C_10
REMARK    5  A    between atoms: C_10  and  C_11
REMARK    6  A    between atoms: C_11  and  C_12
REMARK    7  A    between atoms: C_11  and  C_14
REMARK    8  A    between atoms: C_18  and  C_19
REMARK                            x       y       z     vdW  Elec       q    Type
REMARK                         _______ _______ _______ _____ _____    ______ ____
ROOT
ATOM      1  C   UNL     1      44.031   3.600  11.104  0.00  0.00    +0.000 C 
ATOM      2  C   UNL     1      43.688   2.180  11.553  0.00  0.00    +0.000 C 
ATOM      3  F   UNL     1      42.821   4.220  10.881  0.00  0.00    +0.000 F 
ENDROOT
BRANCH   1   4
ATOM      4  C   UNL     1      44.875   3.582   9.826  0.00  0.00    +0.000 A 
ATOM      5  C   UNL     1      45.223   4.784   9.199  0.00  0.00    +0.000 A 
ATOM      6  C   UNL     1      46.056   4.795   8.076  0.00  0.00    +0.000 A 
ATOM      7  C   UNL     1      46.559   3.598   7.563  0.00  0.00    +0.000 A 
ATOM      8  C   UNL     1      46.215   2.384   8.166  0.00  0.00    +0.000 A 
ATOM      9  C   UNL     1      45.369   2.382   9.284  0.00  0.00    +0.000 A 
BRANCH   8  10
ATOM     10  C   UNL     1      46.761   1.081   7.701  0.00  0.00    +0.000 C 
ATOM     11  N   UNL     1      47.807   1.106   6.823  0.00  0.00    +0.000 N 
ATOM     12  O   UNL     1      46.276   0.017   8.068  0.00  0.00    +0.000 OA
ATOM     13  H   UNL     1      48.087   1.937   6.324  0.00  0.00    +0.000 HD
ATOM     14  H   UNL     1      48.107   0.211   6.458  0.00  0.00    +0.000 HD
ENDBRANCH   8  10
ENDBRANCH   1   4
BRANCH   1  15
ATOM     15  C   UNL     1      44.750   4.416  12.199  0.00  0.00    +0.000 C 
BRANCH  15  16
ATOM     16  O   UNL     1      45.521   3.578  13.074  0.00  0.00    +0.000 OA
BRANCH  16  20
ATOM     17  C   UNL     1      48.182   5.813  15.292  0.00  0.00    +0.000 A 
ATOM     18  C   UNL     1      47.862   6.209  13.991  0.00  0.00    +0.000 A 
ATOM     19  C   UNL     1      46.965   5.441  13.245  0.00  0.00    +0.000 A 
ATOM     20  C   UNL     1      46.405   4.319  13.836  0.00  0.00    +0.000 A 
ATOM     21  N   UNL     1      46.698   3.914  15.090  0.00  0.00    +0.000 NA
ATOM     22  C   UNL     1      47.592   4.658  15.784  0.00  0.00    +0.000 A 
BRANCH  17  25
ATOM     23  C   UNL     1      49.834   7.115  18.427  0.00  0.00    +0.000 C 
ATOM     24  N   UNL     1      48.918   6.476  17.515  0.00  0.00    +0.000 N 
ATOM     25  C   UNL     1      49.144   6.531  16.156  0.00  0.00    +0.000 C 
ATOM     26  O   UNL     1      50.101   7.109  15.653  0.00  0.00    +0.000 OA
ATOM     27  H   UNL     1      48.232   5.837  17.891  0.00  0.00    +0.000 HD
ENDBRANCH  17  25
ENDBRANCH  16  20
ENDBRANCH  15  16
ENDBRANCH   1  15
TORSDOF 6
ENDMDL
MODEL 5
REMARK VINA RESULT:    -6.944      5.447      7.127
REMARK INTER + INTRA:         -10.331
REMARK INTER:                  -9.687
REMARK INTRA:                  -0.644
REMARK UNBOUND:                -0.952
REMARK  Name = 
REMARK  8 active torsions:
REMARK  status: ('A' for Active; 'I' for Inactive)
REMARK    1  A    between atoms: C_1  and  N_2
REMARK    2  A    between atoms: C_3  and  C_5
REMARK    3  A    between atoms: C_8  and  O_9
REMARK    4  A    between atoms: O_9  and  C_10
REMARK    5  A    between atoms: C_10  and  C_11
REMARK    6  A    between atoms: C_11  and  C_12
REMARK    7  A    between atoms: C_11  and  C_14
REMARK    8  A    between atoms: C_18  and  C_19
REMARK                            x       y       z     vdW  Elec       q    Type
REMARK                         _______ _______ _______ _____ _____    ______ ____
ROOT
ATOM      1  C   UNL     1      47.899   3.592  17.205  0.00  0.00    +0.000 C 
ATOM      2  C   UNL     1      47.238   4.786  17.895  0.00  0.00    +0.000 C 
ATOM      3  F   UNL     1      47.352   2.474  17.796  0.00  0.00    +0.000 F 
ENDROOT
BRANCH   1   4
ATOM      4  C   UNL     1      49.418   3.620  17.395  0.00  0.00    +0.000 A 
ATOM      5  C   UNL     1      50.068   4.829  17.668  0.00  0.00    +0.000 A 
ATOM      6  C   UNL     1      51.443   4.865  17.921  0.00  0.00    +0.000 A 
ATOM      7  C   UNL     1      52.191   3.686  17.909  0.00  0.00    +0.000 A 
ATOM      8  C   UNL     1      51.564   2.468  17.627  0.00  0.00    +0.000 A 
ATOM      9  C   UNL     1      50.188   2.442  17.362  0.00  0.00    +0.000 A 
BRANCH   8  10
ATOM     10  C   UNL     1      52.294   1.172  17.653  0.00  0.00    +0.000 C 
ATOM     11  N   UNL     1      51.638   0.083  18.153  0.00  0.00    +0.000 N 
ATOM     12  O   UNL     1      53.452   1.083  17.265  0.00  0.00    +0.000 OA
ATOM     13  H   UNL     1      50.782   0.151  18.683  0.00  0.00    +0.000 HD
ATOM     14  H   UNL     1      52.180  -0.767  18.236  0.00  0.00    +0.000 HD
ENDBRANCH   8  10
ENDBRANCH   1   4
BRANCH   1  15
ATOM     15  C   UNL     1      47.558   3.508  15.702  0.00  0.00    +0.000 C 
BRANCH  15  16
ATOM     16  O   UNL     1      47.368   4.808  15.120  0.00  0.00    +0.000 OA
BRANCH  16  20
ATOM     17  C   UNL     1      45.361   4.634  11.523  0.00  0.00    +0.000 A 
ATOM     18  C   UNL     1      45.924   5.843  11.944  0.00  0.00    +0.000 A 
ATOM     19  C   UNL     1      46.595   5.892  13.167  0.00  0.00    +0.000 A 
ATOM     20  C   UNL     1      46.699   4.728  13.913  0.00  0.00    +0.000 A 
ATOM     21  N   UNL     1      46.164   3.550  13.530  0.00  0.00    +0.000 NA
ATOM     22  C   UNL     1      45.493   3.531  12.353  0.00  0.00    +0.000 A 
BRANCH  17  25
ATOM     23  C   UNL     1      44.562   3.621   7.976  0.00  0.00    +0.000 C 
ATOM     24  N   UNL     1      45.249   3.850   9.222  0.00  0.00    +0.000 N 
ATOM     25  C   UNL     1      44.600   4.477  10.264  0.00  0.00    +0.000 C 
ATOM     26  O   UNL     1      43.441   4.870  10.200  0.00  0.00    +0.000 OA
ATOM     27  H   UNL     1      46.129   3.380   9.380  0.00  0.00    +0.000 HD
ENDBRANCH  17  25
ENDBRANCH  16  20
ENDBRANCH  15  16
ENDBRANCH   1  15
TORSDOF 6
ENDMDL
MODEL 6
REMARK VINA RESULT:    -6.646      4.181      8.040
REMARK INTER + INTRA:          -9.929
REMARK INTER:                  -8.995
REMARK INTRA:                  -0.934
REMARK UNBOUND:                -0.952
REMARK  Name = 
REMARK  8 active torsions:
REMARK  status: ('A' for Active; 'I' for Inactive)
REMARK    1  A    between atoms: C_1  and  N_2
REMARK    2  A    between atoms: C_3  and  C_5
REMARK    3  A    between atoms: C_8  and  O_9
REMARK    4  A    between atoms: O_9  and  C_10
REMARK    5  A    between atoms: C_10  and  C_11
REMARK    6  A    between atoms: C_11  and  C_12
REMARK    7  A    between atoms: C_11  and  C_14
REMARK    8  A    between atoms: C_18  and  C_19
REMARK                            x       y       z     vdW  Elec       q    Type
REMARK                         _______ _______ _______ _____ _____    ______ ____
ROOT
ATOM      1  C   UNL     1      45.803   6.699  11.851  0.00  0.00    +0.000 C 
ATOM      2  C   UNL     1      44.859   7.862  11.545  0.00  0.00    +0.000 C 
ATOM      3  F   UNL     1      46.833   6.810  10.943  0.00  0.00    +0.000 F 
ENDROOT
BRANCH   1   4
ATOM      4  C   UNL     1      45.085   5.355  11.698  0.00  0.00    +0.000 A 
ATOM      5  C   UNL     1      44.266   4.877  12.727  0.00  0.00    +0.000 A 
ATOM      6  C   UNL     1      43.542   3.690  12.577  0.00  0.00    +0.000 A 
ATOM      7  C   UNL     1      43.624   2.963  11.389  0.00  0.00    +0.000 A 
ATOM      8  C   UNL     1      44.445   3.415  10.351  0.00  0.00    +0.000 A 
ATOM      9  C   UNL     1      45.178   4.599  10.515  0.00  0.00    +0.000 A 
BRANCH   8  10
ATOM     10  C   UNL     1      44.534   2.715   9.042  0.00  0.00    +0.000 C 
ATOM     11  N   UNL     1      44.304   3.448   7.912  0.00  0.00    +0.000 N 
ATOM     12  O   UNL     1      44.779   1.517   8.972  0.00  0.00    +0.000 OA
ATOM     13  H   UNL     1      43.884   4.365   7.927  0.00  0.00    +0.000 HD
ATOM     14  H   UNL     1      44.289   2.935   7.041  0.00  0.00    +0.000 HD
ENDBRANCH   8  10
ENDBRANCH   1   4
BRANCH   1  15
ATOM     15  C   UNL     1      46.439   6.800  13.254  0.00  0.00    +0.000 C 
BRANCH  15  16
ATOM     16  O   UNL     1      47.658   6.046  13.347  0.00  0.00    +0.000 OA
BRANCH  16  20
ATOM     17  C   UNL     1      48.182   4.556  17.155  0.00  0.00    +0.000 A 
ATOM     18  C   UNL     1      47.274   3.939  16.290  0.00  0.00    +0.000 A 
ATOM     19  C   UNL     1      47.099   4.456  15.004  0.00  0.00    +0.000 A 
ATOM     20  C   UNL     1      47.853   5.555  14.624  0.00  0.00    +0.000 A 
ATOM     21  N   UNL     1      48.736   6.169  15.440  0.00  0.00    +0.000 NA
ATOM     22  C   UNL     1      48.869   5.668  16.692  0.00  0.00    +0.000 A 
BRANCH  17  25
ATOM     23  C   UNL     1      48.975   4.747  20.840  0.00  0.00    +0.000 C 
ATOM     24  N   UNL     1      48.768   5.089  19.456  0.00  0.00    +0.000 N 
ATOM     25  C   UNL     1      48.420   4.114  18.546  0.00  0.00    +0.000 C 
ATOM     26  O   UNL     1      48.276   2.933  18.844  0.00  0.00    +0.000 OA
ATOM     27  H   UNL     1      48.692   6.066  19.208  0.00  0.00    +0.000 HD
ENDBRANCH  17  25
ENDBRANCH  16  20
ENDBRANCH  15  16
ENDBRANCH   1  15
TORSDOF 6
ENDMDL
MODEL 7
REMARK VINA RESULT:    -6.614      3.756      7.724
REMARK INTER + INTRA:          -9.886
REMARK INTER:                  -9.223
REMARK INTRA:                  -0.663
REMARK UNBOUND:                -0.952
REMARK  Name = 
REMARK  8 active torsions:
REMARK  status: ('A' for Active; 'I' for Inactive)
REMARK    1  A    between atoms: C_1  and  N_2
REMARK    2  A    between atoms: C_3  and  C_5
REMARK    3  A    between atoms: C_8  and  O_9
REMARK    4  A    between atoms: O_9  and  C_10
REMARK    5  A    between atoms: C_10  and  C_11
REMARK    6  A    between atoms: C_11  and  C_12
REMARK    7  A    between atoms: C_11  and  C_14
REMARK    8  A    between atoms: C_18  and  C_19
REMARK                            x       y       z     vdW  Elec       q    Type
REMARK                         _______ _______ _______ _____ _____    ______ ____
ROOT
ATOM      1  C   UNL     1      44.510   5.746  11.310  0.00  0.00    +0.000 C 
ATOM      2  C   UNL     1      43.044   6.181  11.332  0.00  0.00    +0.000 C 
ATOM      3  F   UNL     1      45.195   6.789  10.726  0.00  0.00    +0.000 F 
ENDROOT
BRANCH   1   4
ATOM      4  C   UNL     1      44.688   4.459  10.500  0.00  0.00    +0.000 A 
ATOM      5  C   UNL     1      44.019   3.291  10.885  0.00  0.00    +0.000 A 
ATOM      6  C   UNL     1      44.107   2.126  10.117  0.00  0.00    +0.000 A 
ATOM      7  C   UNL     1      44.866   2.112   8.946  0.00  0.00    +0.000 A 
ATOM      8  C   UNL     1      45.552   3.263   8.548  0.00  0.00    +0.000 A 
ATOM      9  C   UNL     1      45.469   4.423   9.330  0.00  0.00    +0.000 A 
BRANCH   8  10
ATOM     10  C   UNL     1      46.333   3.329   7.283  0.00  0.00    +0.000 C 
ATOM     11  N   UNL     1      46.818   2.158   6.774  0.00  0.00    +0.000 N 
ATOM     12  O   UNL     1      46.559   4.396   6.727  0.00  0.00    +0.000 OA
ATOM     13  H   UNL     1      46.853   1.300   7.303  0.00  0.00    +0.000 HD
ATOM     14  H   UNL     1      47.414   2.237   5.960  0.00  0.00    +0.000 HD
ENDBRANCH   8  10
ENDBRANCH   1   4
BRANCH   1  15
ATOM     15  C   UNL     1      45.101   5.566  12.724  0.00  0.00    +0.000 C 
BRANCH  15  16
ATOM     16  O   UNL     1      46.488   5.193  12.683  0.00  0.00    +0.000 OA
BRANCH  16  20
ATOM     17  C   UNL     1      48.170   5.079  16.445  0.00  0.00    +0.000 A 
ATOM     18  C   UNL     1      48.479   6.133  15.581  0.00  0.00    +0.000 A 
ATOM     19  C   UNL     1      47.909   6.159  14.306  0.00  0.00    +0.000 A 
ATOM     20  C   UNL     1      47.036   5.142  13.951  0.00  0.00    +0.000 A 
ATOM     21  N   UNL     1      46.722   4.113  14.766  0.00  0.00    +0.000 NA
ATOM     22  C   UNL     1      47.307   4.094  15.987  0.00  0.00    +0.000 A 
BRANCH  17  25
ATOM     23  C   UNL     1      48.422   5.203  20.210  0.00  0.00    +0.000 C 
ATOM     24  N   UNL     1      47.954   5.349  18.854  0.00  0.00    +0.000 N 
ATOM     25  C   UNL     1      48.742   4.935  17.801  0.00  0.00    +0.000 C 
ATOM     26  O   UNL     1      49.853   4.438  17.945  0.00  0.00    +0.000 OA
ATOM     27  H   UNL     1      46.981   5.575  18.702  0.00  0.00    +0.000 HD
ENDBRANCH  17  25
ENDBRANCH  16  20
ENDBRANCH  15  16
ENDBRANCH   1  15
TORSDOF 6
ENDMDL
MODEL 8
REMARK VINA RESULT:    -6.486      5.080      7.845
REMARK INTER + INTRA:          -9.713
REMARK INTER:                  -8.787
REMARK INTRA:                  -0.926
REMARK UNBOUND:                -0.952
REMARK  Name = 
REMARK  8 active torsions:
REMARK  status: ('A' for Active; 'I' for Inactive)
REMARK    1  A    between atoms: C_1  and  N_2
REMARK    2  A    between atoms: C_3  and  C_5
REMARK    3  A    between atoms: C_8  and  O_9
REMARK    4  A    between atoms: O_9  and  C_10
REMARK    5  A    between atoms: C_10  and  C_11
REMARK    6  A    between atoms: C_11  and  C_12
REMARK    7  A    between atoms: C_11  and  C_14
REMARK    8  A    between atoms: C_18  and  C_19
REMARK                            x       y       z     vdW  Elec       q    Type
REMARK                         _______ _______ _______ _____ _____    ______ ____
ROOT
ATOM      1  C   UNL     1      50.295   7.116  16.850  0.00  0.00    +0.000 C 
ATOM      2  C   UNL     1      51.752   6.925  16.427  0.00  0.00    +0.000 C 
ATOM      3  F   UNL     1      50.315   8.104  17.811  0.00  0.00    +0.000 F 
ENDROOT
BRANCH   1   4
ATOM      4  C   UNL     1      49.713   5.818  17.416  0.00  0.00    +0.000 A 
ATOM      5  C   UNL     1      48.600   5.860  18.264  0.00  0.00    +0.000 A 
ATOM      6  C   UNL     1      48.007   4.683  18.730  0.00  0.00    +0.000 A 
ATOM      7  C   UNL     1      48.518   3.441  18.353  0.00  0.00    +0.000 A 
ATOM      8  C   UNL     1      49.637   3.374  17.516  0.00  0.00    +0.000 A 
ATOM      9  C   UNL     1      50.233   4.559  17.063  0.00  0.00    +0.000 A 
BRANCH   8  10
ATOM     10  C   UNL     1      50.197   2.083  17.034  0.00  0.00    +0.000 C 
ATOM     11  N   UNL     1      51.157   1.482  17.797  0.00  0.00    +0.000 N 
ATOM     12  O   UNL     1      49.833   1.584  15.976  0.00  0.00    +0.000 OA
ATOM     13  H   UNL     1      51.643   1.955  18.544  0.00  0.00    +0.000 HD
ATOM     14  H   UNL     1      51.580   0.649  17.409  0.00  0.00    +0.000 HD
ENDBRANCH   8  10
ENDBRANCH   1   4
BRANCH   1  15
ATOM     15  C   UNL     1      49.403   7.636  15.702  0.00  0.00    +0.000 C 
BRANCH  15  16
ATOM     16  O   UNL     1      49.498   6.809  14.531  0.00  0.00    +0.000 OA
BRANCH  16  20
ATOM     17  C   UNL     1      45.767   5.586  13.274  0.00  0.00    +0.000 A 
ATOM     18  C   UNL     1      46.288   6.800  12.817  0.00  0.00    +0.000 A 
ATOM     19  C   UNL     1      47.550   7.209  13.254  0.00  0.00    +0.000 A 
ATOM     20  C   UNL     1      48.253   6.379  14.114  0.00  0.00    +0.000 A 
ATOM     21  N   UNL     1      47.773   5.203  14.571  0.00  0.00    +0.000 NA
ATOM     22  C   UNL     1      46.535   4.840  14.155  0.00  0.00    +0.000 A 
BRANCH  17  25
ATOM     23  C   UNL     1      42.269   5.532  11.858  0.00  0.00    +0.000 C 
ATOM     24  N   UNL     1      43.574   5.964  12.289  0.00  0.00    +0.000 N 
ATOM     25  C   UNL     1      44.430   5.075  12.903  0.00  0.00    +0.000 C 
ATOM     26  O   UNL     1      44.144   3.902  13.119  0.00  0.00    +0.000 OA
ATOM     27  H   UNL     1      43.917   6.857  11.964  0.00  0.00    +0.000 HD
ENDBRANCH  17  25
ENDBRANCH  16  20
ENDBRANCH  15  16
ENDBRANCH   1  15
TORSDOF 6
ENDMDL
MODEL 9
REMARK VINA RESULT:    -5.958      4.707      7.433
REMARK INTER + INTRA:          -9.000
REMARK INTER:                  -8.240
REMARK INTRA:                  -0.760
REMARK UNBOUND:                -0.952
REMARK  Name = 
REMARK  8 active torsions:
REMARK  status: ('A' for Active; 'I' for Inactive)
REMARK    1  A    between atoms: C_1  and  N_2
REMARK    2  A    between atoms: C_3  and  C_5
REMARK    3  A    between atoms: C_8  and  O_9
REMARK    4  A    between atoms: O_9  and  C_10
REMARK    5  A    between atoms: C_10  and  C_11
REMARK    6  A    between atoms: C_11  and  C_12
REMARK    7  A    between atoms: C_11  and  C_14
REMARK    8  A    between atoms: C_18  and  C_19
REMARK                            x       y       z     vdW  Elec       q    Type
REMARK                         _______ _______ _______ _____ _____    ______ ____
ROOT
ATOM      1  C   UNL     1      45.757   4.911  12.937  0.00  0.00    +0.000 C 
ATOM      2  C   UNL     1      45.368   4.253  11.613  0.00  0.00    +0.000 C 
ATOM      3  F   UNL     1      44.600   4.948  13.685  0.00  0.00    +0.000 F 
ENDROOT
BRANCH   1   4
ATOM      4  C   UNL     1      46.302   6.324  12.708  0.00  0.00    +0.000 A 
ATOM      5  C   UNL     1      47.683   6.549  12.696  0.00  0.00    +0.000 A 
ATOM      6  C   UNL     1      48.202   7.817  12.413  0.00  0.00    +0.000 A 
ATOM      7  C   UNL     1      47.344   8.881  12.134  0.00  0.00    +0.000 A 
ATOM      8  C   UNL     1      45.960   8.682  12.152  0.00  0.00    +0.000 A 
ATOM      9  C   UNL     1      45.448   7.412  12.449  0.00  0.00    +0.000 A 
BRANCH   8  10
ATOM     10  C   UNL     1      44.995   9.761  11.810  0.00  0.00    +0.000 C 
ATOM     11  N   UNL     1      45.290  11.031  12.220  0.00  0.00    +0.000 N 
ATOM     12  O   UNL     1      43.957   9.523  11.206  0.00  0.00    +0.000 OA
ATOM     13  H   UNL     1      46.003  11.238  12.903  0.00  0.00    +0.000 HD
ATOM     14  H   UNL     1      44.581  11.732  12.048  0.00  0.00    +0.000 HD
ENDBRANCH   8  10
ENDBRANCH   1   4
BRANCH   1  15
ATOM     15  C   UNL     1      46.777   4.077  13.741  0.00  0.00    +0.000 C 
BRANCH  15  16
ATOM     16  O   UNL     1      46.448   4.029  15.139  0.00  0.00    +0.000 OA
BRANCH  16  20
ATOM     17  C   UNL     1      49.814   4.056  17.520  0.00  0.00    +0.000 A 
ATOM     18  C   UNL     1      49.099   2.867  17.345  0.00  0.00    +0.000 A 
ATOM     19  C   UNL     1      47.956   2.870  16.542  0.00  0.00    +0.000 A 
ATOM     20  C   UNL     1      47.584   4.055  15.927  0.00  0.00    +0.000 A 
ATOM     21  N   UNL     1      48.255   5.216  16.080  0.00  0.00    +0.000 NA
ATOM     22  C   UNL     1      49.344   5.196  16.885  0.00  0.00    +0.000 A 
BRANCH  17  25
ATOM     23  C   UNL     1      53.107   3.164  19.133  0.00  0.00    +0.000 C 
ATOM     24  N   UNL     1      51.892   3.109  18.361  0.00  0.00    +0.000 N 
ATOM     25  C   UNL     1      51.015   4.173  18.374  0.00  0.00    +0.000 C 
ATOM     26  O   UNL     1      51.203   5.195  19.024  0.00  0.00    +0.000 OA
ATOM     27  H   UNL     1      51.792   2.377  17.673  0.00  0.00    +0.000 HD
ENDBRANCH  17  25
ENDBRANCH  16  20
ENDBRANCH  15  16
ENDBRANCH   1  15
TORSDOF 6
ENDMDL
