MODEL 1
REMARK VINA RESULT:    -7.980      0.000      0.000
REMARK INTER + INTRA:         -10.529
REMARK INTER:                 -10.079
REMARK INTRA:                  -0.450
REMARK UNBOUND:                -0.450
REMARK  Name = 
REMARK  5 active torsions:
REMARK  status: ('A' for Active; 'I' for Inactive)
REMARK    1  A    between atoms: N_1  and  C_2
REMARK    2  A    between atoms: C_2  and  C_3
REMARK    3  A    between atoms: C_3  and  C_4
REMARK    4  A    between atoms: C_7  and  C_8
REMARK    5  A    between atoms: C_8  and  N_9
REMARK                            x       y       z     vdW  Elec       q    Type
REMARK                         _______ _______ _______ _____ _____    ______ ____
ROOT
ATOM      1  C   UNL     1      43.416   2.876  11.282  0.00  0.00    +0.000 C 
ENDROOT
BRANCH   1   2
ATOM      2  N   UNL     1      43.568   4.027  12.164  0.00  0.00    +0.000 N 
ATOM      3  C   UNL     1      42.707   5.096  12.178  0.00  0.00    +0.000 A 
ATOM      4  N   UNL     1      43.308   6.200  12.552  0.00  0.00    +0.000 NA
ATOM      5  C   UNL     1      44.604   5.838  12.838  0.00  0.00    +0.000 A 
ATOM      6  C   UNL     1      45.722   6.617  13.177  0.00  0.00    +0.000 A 
ATOM      7  F   UNL     1      45.646   7.956  13.222  0.00  0.00    +0.000 F 
ATOM      8  C   UNL     1      46.938   5.981  13.420  0.00  0.00    +0.000 A 
ATOM      9  F   UNL     1      48.031   6.710  13.690  0.00  0.00    +0.000 F 
ATOM     10  C   UNL     1      47.055   4.593  13.374  0.00  0.00    +0.000 A 
ATOM     11  C   UNL     1      45.963   3.794  13.017  0.00  0.00    +0.000 A 
ATOM     12  C   UNL     1      44.763   4.451  12.712  0.00  0.00    +0.000 A 
ENDBRANCH   1   2
BRANCH   1  16
ATOM     13  C   UNL     1      45.895   3.108   7.733  0.00  0.00    +0.000 A 
ATOM     14  C   UNL     1      45.239   4.243   8.224  0.00  0.00    +0.000 A 
ATOM     15  C   UNL     1      44.412   4.161   9.351  0.00  0.00    +0.000 A 
ATOM     16  C   UNL     1      44.211   2.939  10.008  0.00  0.00    +0.000 A 
ATOM     17  C   UNL     1      44.841   1.798   9.503  0.00  0.00    +0.000 A 
ATOM     18  C   UNL     1      45.672   1.882   8.381  0.00  0.00    +0.000 A 
BRANCH  13  19
ATOM     19  C   UNL     1      46.763   3.125   6.491  0.00  0.00    +0.000 C 
BRANCH  19  20
ATOM     20  C   UNL     1      48.145   2.468   6.611  0.00  0.00    +0.000 C 
BRANCH  20  21
ATOM     21  N   UNL     1      48.499   1.776   5.372  0.00  0.00    +0.000 NA
ATOM     22  H   UNL     1      49.428   1.363   5.467  0.00  0.00    +0.000 HD
ATOM     23  H   UNL     1      48.565   2.447   4.607  0.00  0.00    +0.000 HD
ENDBRANCH  20  21
ENDBRANCH  19  20
ENDBRANCH  13  19
ENDBRANCH   1  16
TORSDOF 5
ENDMDL
MODEL 2
REMARK VINA RESULT:    -7.733      1.199      1.767
REMARK INTER + INTRA:         -10.217
REMARK INTER:                  -9.668
REMARK INTRA:                  -0.548
REMARK UNBOUND:                -0.450
REMARK  Name = 
REMARK  5 active torsions:
REMARK  status: ('A' for Active; 'I' for Inactive)
REMARK    1  A    between atoms: N_1  and  C_2
REMARK    2  A    between atoms: C_2  and  C_3
REMARK    3  A    between atoms: C_3  and  C_4
REMARK    4  A    between atoms: C_7  and  C_8
REMARK    5  A    between atoms: C_8  and  N_9
REMARK                            x       y       z     vdW  Elec       q    Type
REMARK                         _______ _______ _______ _____ _____    ______ ____
ROOT
ATOM      1  C   UNL     1      43.328   4.919  10.998  0.00  0.00    +0.000 C 
ENDROOT
BRANCH   1   2
ATOM      2  N   UNL     1      43.975   6.031  11.685  0.00  0.00    +0.000 N 
ATOM      3  C   UNL     1      43.927   7.331  11.246  0.00  0.00    +0.000 A 
ATOM      4  N   UNL     1      44.988   8.008  11.614  0.00  0.00    +0.000 NA
ATOM      5  C   UNL     1      45.743   7.135  12.364  0.00  0.00    +0.000 A 
ATOM      6  C   UNL     1      47.024   7.274  12.921  0.00  0.00    +0.000 A 
ATOM      7  F   UNL     1      47.748   8.386  12.726  0.00  0.00    +0.000 F 
ATOM      8  C   UNL     1      47.561   6.213  13.648  0.00  0.00    +0.000 A 
ATOM      9  F   UNL     1      48.805   6.303  14.142  0.00  0.00    +0.000 F 
ATOM     10  C   UNL     1      46.840   5.041  13.864  0.00  0.00    +0.000 A 
ATOM     11  C   UNL     1      45.571   4.867  13.302  0.00  0.00    +0.000 A 
ATOM     12  C   UNL     1      45.069   5.916  12.519  0.00  0.00    +0.000 A 
ENDBRANCH   1   2
BRANCH   1  16
ATOM     13  C   UNL     1      45.742   2.614   8.232  0.00  0.00    +0.000 A 
ATOM     14  C   UNL     1      44.944   1.976   9.190  0.00  0.00    +0.000 A 
ATOM     15  C   UNL     1      44.191   2.722  10.104  0.00  0.00    +0.000 A 
ATOM     16  C   UNL     1      44.225   4.123  10.091  0.00  0.00    +0.000 A 
ATOM     17  C   UNL     1      45.042   4.762   9.155  0.00  0.00    +0.000 A 
ATOM     18  C   UNL     1      45.790   4.017   8.238  0.00  0.00    +0.000 A 
BRANCH  13  19
ATOM     19  C   UNL     1      46.616   1.862   7.248  0.00  0.00    +0.000 C 
BRANCH  19  20
ATOM     20  C   UNL     1      47.898   2.570   6.788  0.00  0.00    +0.000 C 
BRANCH  20  21
ATOM     21  N   UNL     1      48.558   1.808   5.728  0.00  0.00    +0.000 NA
ATOM     22  H   UNL     1      49.550   1.704   5.953  0.00  0.00    +0.000 HD
ATOM     23  H   UNL     1      48.521   2.329   4.852  0.00  0.00    +0.000 HD
ENDBRANCH  20  21
ENDBRANCH  19  20
ENDBRANCH  13  19
ENDBRANCH   1  16
TORSDOF 5
ENDMDL
MODEL 3
REMARK VINA RESULT:    -7.248      3.397      6.730
REMARK INTER + INTRA:          -9.605
REMARK INTER:                  -9.565
REMARK INTRA:                  -0.040
REMARK UNBOUND:                -0.450
REMARK  Name = 
REMARK  5 active torsions:
REMARK  status: ('A' for Active; 'I' for Inactive)
REMARK    1  A    between atoms: N_1  and  C_2
REMARK    2  A    between atoms: C_2  and  C_3
REMARK    3  A    between atoms: C_3  and  C_4
REMARK    4  A    between atoms: C_7  and  C_8
REMARK    5  A    between atoms: C_8  and  N_9
REMARK                            x       y       z     vdW  Elec       q    Type
REMARK                         _______ _______ _______ _____ _____    ______ ____
ROOT
ATOM      1  C   UNL     1      44.912   5.724  10.863  0.00  0.00    +0.000 C 
ENDROOT
BRANCH   1   2
ATOM      2  N   UNL     1      44.548   4.526  10.116  0.00  0.00    +0.000 N 
ATOM      3  C   UNL     1      43.791   3.505  10.634  0.00  0.00    +0.000 A 
ATOM      4  N   UNL     1      44.079   2.354  10.074  0.00  0.00    +0.000 NA
ATOM      5  C   UNL     1      45.030   2.634   9.120  0.00  0.00    +0.000 A 
ATOM      6  C   UNL     1      45.779   1.781   8.294  0.00  0.00    +0.000 A 
ATOM      7  F   UNL     1      45.664   0.448   8.387  0.00  0.00    +0.000 F 
ATOM      8  C   UNL     1      46.690   2.340   7.399  0.00  0.00    +0.000 A 
ATOM      9  F   UNL     1      47.457   1.542   6.641  0.00  0.00    +0.000 F 
ATOM     10  C   UNL     1      46.841   3.720   7.282  0.00  0.00    +0.000 A 
ATOM     11  C   UNL     1      46.123   4.592   8.107  0.00  0.00    +0.000 A 
ATOM     12  C   UNL     1      45.258   4.014   9.048  0.00  0.00    +0.000 A 
ENDBRANCH   1   2
BRANCH   1  16
ATOM     13  C   UNL     1      47.169   5.169  14.522  0.00  0.00    +0.000 A 
ATOM     14  C   UNL     1      47.515   6.176  13.613  0.00  0.00    +0.000 A 
ATOM     15  C   UNL     1      46.806   6.334  12.416  0.00  0.00    +0.000 A 
ATOM     16  C   UNL     1      45.742   5.482  12.092  0.00  0.00    +0.000 A 
ATOM     17  C   UNL     1      45.412   4.456  12.984  0.00  0.00    +0.000 A 
ATOM     18  C   UNL     1      46.117   4.303  14.182  0.00  0.00    +0.000 A 
BRANCH  13  19
ATOM     19  C   UNL     1      47.927   4.919  15.810  0.00  0.00    +0.000 C 
BRANCH  19  20
ATOM     20  C   UNL     1      47.230   4.041  16.858  0.00  0.00    +0.000 C 
BRANCH  20  21
ATOM     21  N   UNL     1      46.776   4.849  17.991  0.00  0.00    +0.000 NA
ATOM     22  H   UNL     1      47.511   5.507  18.253  0.00  0.00    +0.000 HD
ATOM     23  H   UNL     1      46.628   4.252  18.804  0.00  0.00    +0.000 HD
ENDBRANCH  20  21
ENDBRANCH  19  20
ENDBRANCH  13  19
ENDBRANCH   1  16
TORSDOF 5
ENDMDL
MODEL 4
REMARK VINA RESULT:    -6.505      3.502      6.365
REMARK INTER + INTRA:          -8.666
REMARK INTER:                  -8.564
REMARK INTRA:                  -0.102
REMARK UNBOUND:                -0.450
REMARK  Name = 
REMARK  5 active torsions:
REMARK  status: ('A' for Active; 'I' for Inactive)
REMARK    1  A    between atoms: N_1  and  C_2
REMARK    2  A    between atoms: C_2  and  C_3
REMARK    3  A    between atoms: C_3  and  C_4
REMARK    4  A    between atoms: C_7  and  C_8
REMARK    5  A    between atoms: C_8  and  N_9
REMARK                            x       y       z     vdW  Elec       q    Type
REMARK                         _______ _______ _______ _____ _____    ______ ____
ROOT
ATOM      1  C   UNL     1      45.236   5.111  13.191  0.00  0.00    +0.000 C 
ENDROOT
BRANCH   1   2
ATOM      2  N   UNL     1      44.427   4.445  12.177  0.00  0.00    +0.000 N 
ATOM      3  C   UNL     1      43.552   3.423  12.450  0.00  0.00    +0.000 A 
ATOM      4  N   UNL     1      43.409   2.619  11.424  0.00  0.00    +0.000 NA
ATOM      5  C   UNL     1      44.182   3.157  10.421  0.00  0.00    +0.000 A 
ATOM      6  C   UNL     1      44.496   2.669   9.142  0.00  0.00    +0.000 A 
ATOM      7  F   UNL     1      44.059   1.469   8.731  0.00  0.00    +0.000 F 
ATOM      8  C   UNL     1      45.318   3.432   8.313  0.00  0.00    +0.000 A 
ATOM      9  F   UNL     1      45.676   2.959   7.110  0.00  0.00    +0.000 F 
ATOM     10  C   UNL     1      45.795   4.679   8.711  0.00  0.00    +0.000 A 
ATOM     11  C   UNL     1      45.516   5.179   9.988  0.00  0.00    +0.000 A 
ATOM     12  C   UNL     1      44.743   4.372  10.835  0.00  0.00    +0.000 A 
ENDBRANCH   1   2
BRANCH   1  16
ATOM     13  C   UNL     1      47.060   8.907  12.163  0.00  0.00    +0.000 A 
ATOM     14  C   UNL     1      45.681   8.812  12.381  0.00  0.00    +0.000 A 
ATOM     15  C   UNL     1      45.088   7.579  12.680  0.00  0.00    +0.000 A 
ATOM     16  C   UNL     1      45.857   6.410  12.758  0.00  0.00    +0.000 A 
ATOM     17  C   UNL     1      47.230   6.497  12.512  0.00  0.00    +0.000 A 
ATOM     18  C   UNL     1      47.823   7.730  12.220  0.00  0.00    +0.000 A 
BRANCH  13  19
ATOM     19  C   UNL     1      47.752  10.202  11.789  0.00  0.00    +0.000 C 
BRANCH  19  20
ATOM     20  C   UNL     1      48.870  10.679  12.726  0.00  0.00    +0.000 C 
BRANCH  20  21
ATOM     21  N   UNL     1      48.353  10.907  14.076  0.00  0.00    +0.000 NA
ATOM     22  H   UNL     1      48.651  11.828  14.402  0.00  0.00    +0.000 HD
ATOM     23  H   UNL     1      48.763  10.233  14.722  0.00  0.00    +0.000 HD
ENDBRANCH  20  21
ENDBRANCH  19  20
ENDBRANCH  13  19
ENDBRANCH   1  16
TORSDOF 5
ENDMDL
MODEL 5
REMARK VINA RESULT:    -6.250      2.534      3.696
REMARK INTER + INTRA:          -8.344
REMARK INTER:                  -7.881
REMARK INTRA:                  -0.463
REMARK UNBOUND:                -0.450
REMARK  Name = 
REMARK  5 active torsions:
REMARK  status: ('A' for Active; 'I' for Inactive)
REMARK    1  A    between atoms: N_1  and  C_2
REMARK    2  A    between atoms: C_2  and  C_3
REMARK    3  A    between atoms: C_3  and  C_4
REMARK    4  A    between atoms: C_7  and  C_8
REMARK    5  A    between atoms: C_8  and  N_9
REMARK                            x       y       z     vdW  Elec       q    Type
REMARK                         _______ _______ _______ _____ _____    ______ ____
ROOT
ATOM      1  C   UNL     1      45.368   5.330  13.114  0.00  0.00    +0.000 C 
ENDROOT
BRANCH   1   2
ATOM      2  N   UNL     1      46.670   5.278  13.769  0.00  0.00    +0.000 N 
ATOM      3  C   UNL     1      46.974   4.420  14.796  0.00  0.00    +0.000 A 
ATOM      4  N   UNL     1      47.896   4.915  15.586  0.00  0.00    +0.000 NA
ATOM      5  C   UNL     1      48.247   6.125  15.034  0.00  0.00    +0.000 A 
ATOM      6  C   UNL     1      49.101   7.135  15.504  0.00  0.00    +0.000 A 
ATOM      7  F   UNL     1      49.702   7.035  16.699  0.00  0.00    +0.000 F 
ATOM      8  C   UNL     1      49.280   8.280  14.729  0.00  0.00    +0.000 A 
ATOM      9  F   UNL     1      50.047   9.282  15.185  0.00  0.00    +0.000 F 
ATOM     10  C   UNL     1      48.666   8.421  13.487  0.00  0.00    +0.000 A 
ATOM     11  C   UNL     1      47.793   7.440  13.004  0.00  0.00    +0.000 A 
ATOM     12  C   UNL     1      47.570   6.323  13.823  0.00  0.00    +0.000 A 
ENDBRANCH   1   2
BRANCH   1  16
ATOM     13  C   UNL     1      45.048   3.783   9.078  0.00  0.00    +0.000 A 
ATOM     14  C   UNL     1      44.744   2.975  10.180  0.00  0.00    +0.000 A 
ATOM     15  C   UNL     1      44.880   3.465  11.485  0.00  0.00    +0.000 A 
ATOM     16  C   UNL     1      45.333   4.770  11.720  0.00  0.00    +0.000 A 
ATOM     17  C   UNL     1      45.666   5.570  10.622  0.00  0.00    +0.000 A 
ATOM     18  C   UNL     1      45.524   5.082   9.319  0.00  0.00    +0.000 A 
BRANCH  13  19
ATOM     19  C   UNL     1      44.968   3.294   7.646  0.00  0.00    +0.000 C 
BRANCH  19  20
ATOM     20  C   UNL     1      46.295   2.924   6.970  0.00  0.00    +0.000 C 
BRANCH  20  21
ATOM     21  N   UNL     1      46.898   4.095   6.334  0.00  0.00    +0.000 NA
ATOM     22  H   UNL     1      47.577   3.789   5.635  0.00  0.00    +0.000 HD
ATOM     23  H   UNL     1      47.424   4.632   7.024  0.00  0.00    +0.000 HD
ENDBRANCH  20  21
ENDBRANCH  19  20
ENDBRANCH  13  19
ENDBRANCH   1  16
TORSDOF 5
ENDMDL
MODEL 6
REMARK VINA RESULT:    -6.014      3.313      6.537
REMARK INTER + INTRA:          -8.046
REMARK INTER:                  -7.570
REMARK INTRA:                  -0.476
REMARK UNBOUND:                -0.450
REMARK  Name = 
REMARK  5 active torsions:
REMARK  status: ('A' for Active; 'I' for Inactive)
REMARK    1  A    between atoms: N_1  and  C_2
REMARK    2  A    between atoms: C_2  and  C_3
REMARK    3  A    between atoms: C_3  and  C_4
REMARK    4  A    between atoms: C_7  and  C_8
REMARK    5  A    between atoms: C_8  and  N_9
REMARK                            x       y       z     vdW  Elec       q    Type
REMARK                         _______ _______ _______ _____ _____    ______ ____
ROOT
ATOM      1  C   UNL     1      44.916   7.405  11.390  0.00  0.00    +0.000 C 
ENDROOT
BRANCH   1   2
ATOM      2  N   UNL     1      43.993   6.278  11.323  0.00  0.00    +0.000 N 
ATOM      3  C   UNL     1      43.141   5.928  12.341  0.00  0.00    +0.000 A 
ATOM      4  N   UNL     1      42.878   4.644  12.334  0.00  0.00    +0.000 NA
ATOM      5  C   UNL     1      43.544   4.134  11.243  0.00  0.00    +0.000 A 
ATOM      6  C   UNL     1      43.712   2.811  10.807  0.00  0.00    +0.000 A 
ATOM      7  F   UNL     1      43.218   1.780  11.509  0.00  0.00    +0.000 F 
ATOM      8  C   UNL     1      44.449   2.572   9.647  0.00  0.00    +0.000 A 
ATOM      9  F   UNL     1      44.669   1.312   9.243  0.00  0.00    +0.000 F 
ATOM     10  C   UNL     1      44.982   3.618   8.897  0.00  0.00    +0.000 A 
ATOM     11  C   UNL     1      44.849   4.944   9.321  0.00  0.00    +0.000 A 
ATOM     12  C   UNL     1      44.162   5.165  10.523  0.00  0.00    +0.000 A 
ENDBRANCH   1   2
BRANCH   1  16
ATOM     13  C   UNL     1      48.244   7.069  14.148  0.00  0.00    +0.000 A 
ATOM     14  C   UNL     1      47.834   5.970  13.383  0.00  0.00    +0.000 A 
ATOM     15  C   UNL     1      46.738   6.071  12.517  0.00  0.00    +0.000 A 
ATOM     16  C   UNL     1      46.018   7.267  12.403  0.00  0.00    +0.000 A 
ATOM     17  C   UNL     1      46.406   8.358  13.187  0.00  0.00    +0.000 A 
ATOM     18  C   UNL     1      47.505   8.259  14.047  0.00  0.00    +0.000 A 
BRANCH  13  19
ATOM     19  C   UNL     1      49.391   7.009  15.136  0.00  0.00    +0.000 C 
BRANCH  19  20
ATOM     20  C   UNL     1      49.013   6.957  16.623  0.00  0.00    +0.000 C 
BRANCH  20  21
ATOM     21  N   UNL     1      48.073   5.867  16.881  0.00  0.00    +0.000 NA
ATOM     22  H   UNL     1      47.587   5.625  16.016  0.00  0.00    +0.000 HD
ATOM     23  H   UNL     1      47.351   6.178  17.532  0.00  0.00    +0.000 HD
ENDBRANCH  20  21
ENDBRANCH  19  20
ENDBRANCH  13  19
ENDBRANCH   1  16
TORSDOF 5
ENDMDL
MODEL 7
REMARK VINA RESULT:    -5.937      4.827      7.691
REMARK INTER + INTRA:          -7.949
REMARK INTER:                  -7.552
REMARK INTRA:                  -0.397
REMARK UNBOUND:                -0.450
REMARK  Name = 
REMARK  5 active torsions:
REMARK  status: ('A' for Active; 'I' for Inactive)
REMARK    1  A    between atoms: N_1  and  C_2
REMARK    2  A    between atoms: C_2  and  C_3
REMARK    3  A    between atoms: C_3  and  C_4
REMARK    4  A    between atoms: C_7  and  C_8
REMARK    5  A    between atoms: C_8  and  N_9
REMARK                            x       y       z     vdW  Elec       q    Type
REMARK                         _______ _______ _______ _____ _____    ______ ____
ROOT
ATOM      1  C   UNL     1      47.273   4.400  16.068  0.00  0.00    +0.000 C 
ENDROOT
BRANCH   1   2
ATOM      2  N   UNL     1      47.414   4.999  14.747  0.00  0.00    +0.000 N 
ATOM      3  C   UNL     1      47.871   6.275  14.532  0.00  0.00    +0.000 A 
ATOM      4  N   UNL     1      47.376   6.791  13.434  0.00  0.00    +0.000 NA
ATOM      5  C   UNL     1      46.597   5.802  12.877  0.00  0.00    +0.000 A 
ATOM      6  C   UNL     1      45.745   5.823  11.762  0.00  0.00    +0.000 A 
ATOM      7  F   UNL     1      45.544   6.951  11.064  0.00  0.00    +0.000 F 
ATOM      8  C   UNL     1      45.064   4.658  11.413  0.00  0.00    +0.000 A 
ATOM      9  F   UNL     1      44.202   4.671  10.385  0.00  0.00    +0.000 F 
ATOM     10  C   UNL     1      45.244   3.471  12.120  0.00  0.00    +0.000 A 
ATOM     11  C   UNL     1      46.070   3.428  13.248  0.00  0.00    +0.000 A 
ATOM     12  C   UNL     1      46.698   4.623  13.627  0.00  0.00    +0.000 A 
ENDBRANCH   1   2
BRANCH   1  16
ATOM     13  C   UNL     1      51.007   2.738  17.512  0.00  0.00    +0.000 A 
ATOM     14  C   UNL     1      50.037   1.916  16.927  0.00  0.00    +0.000 A 
ATOM     15  C   UNL     1      48.817   2.448  16.491  0.00  0.00    +0.000 A 
ATOM     16  C   UNL     1      48.533   3.812  16.640  0.00  0.00    +0.000 A 
ATOM     17  C   UNL     1      49.488   4.631  17.250  0.00  0.00    +0.000 A 
ATOM     18  C   UNL     1      50.708   4.100  17.679  0.00  0.00    +0.000 A 
BRANCH  13  19
ATOM     19  C   UNL     1      52.325   2.214  18.046  0.00  0.00    +0.000 C 
BRANCH  19  20
ATOM     20  C   UNL     1      52.838   0.901  17.439  0.00  0.00    +0.000 C 
BRANCH  20  21
ATOM     21  N   UNL     1      52.642  -0.211  18.369  0.00  0.00    +0.000 NA
ATOM     22  H   UNL     1      53.414  -0.234  19.038  0.00  0.00    +0.000 HD
ATOM     23  H   UNL     1      52.680  -1.096  17.863  0.00  0.00    +0.000 HD
ENDBRANCH  20  21
ENDBRANCH  19  20
ENDBRANCH  13  19
ENDBRANCH   1  16
TORSDOF 5
ENDMDL
MODEL 8
REMARK VINA RESULT:    -5.622      3.624      5.246
REMARK INTER + INTRA:          -7.550
REMARK INTER:                  -7.016
REMARK INTRA:                  -0.534
REMARK UNBOUND:                -0.450
REMARK  Name = 
REMARK  5 active torsions:
REMARK  status: ('A' for Active; 'I' for Inactive)
REMARK    1  A    between atoms: N_1  and  C_2
REMARK    2  A    between atoms: C_2  and  C_3
REMARK    3  A    between atoms: C_3  and  C_4
REMARK    4  A    between atoms: C_7  and  C_8
REMARK    5  A    between atoms: C_8  and  N_9
REMARK                            x       y       z     vdW  Elec       q    Type
REMARK                         _______ _______ _______ _____ _____    ______ ____
ROOT
ATOM      1  C   UNL     1      46.712   6.949  13.420  0.00  0.00    +0.000 C 
ENDROOT
BRANCH   1   2
ATOM      2  N   UNL     1      48.125   6.800  13.745  0.00  0.00    +0.000 N 
ATOM      3  C   UNL     1      48.594   6.540  15.009  0.00  0.00    +0.000 A 
ATOM      4  N   UNL     1      49.801   7.022  15.188  0.00  0.00    +0.000 NA
ATOM      5  C   UNL     1      50.160   7.581  13.983  0.00  0.00    +0.000 A 
ATOM      6  C   UNL     1      51.289   8.332  13.620  0.00  0.00    +0.000 A 
ATOM      7  F   UNL     1      52.226   8.656  14.523  0.00  0.00    +0.000 F 
ATOM      8  C   UNL     1      51.403   8.783  12.306  0.00  0.00    +0.000 A 
ATOM      9  F   UNL     1      52.446   9.549  11.951  0.00  0.00    +0.000 F 
ATOM     10  C   UNL     1      50.445   8.471  11.344  0.00  0.00    +0.000 A 
ATOM     11  C   UNL     1      49.299   7.744  11.684  0.00  0.00    +0.000 A 
ATOM     12  C   UNL     1      49.165   7.351  13.024  0.00  0.00    +0.000 A 
ENDBRANCH   1   2
BRANCH   1  16
ATOM     13  C   UNL     1      44.836   3.851  11.038  0.00  0.00    +0.000 A 
ATOM     14  C   UNL     1      45.183   3.616  12.374  0.00  0.00    +0.000 A 
ATOM     15  C   UNL     1      45.819   4.606  13.133  0.00  0.00    +0.000 A 
ATOM     16  C   UNL     1      46.134   5.851  12.572  0.00  0.00    +0.000 A 
ATOM     17  C   UNL     1      45.815   6.079  11.230  0.00  0.00    +0.000 A 
ATOM     18  C   UNL     1      45.174   5.092  10.475  0.00  0.00    +0.000 A 
BRANCH  13  19
ATOM     19  C   UNL     1      44.190   2.804  10.153  0.00  0.00    +0.000 C 
BRANCH  19  20
ATOM     20  C   UNL     1      44.852   2.553   8.791  0.00  0.00    +0.000 C 
BRANCH  20  21
ATOM     21  N   UNL     1      45.578   1.284   8.794  0.00  0.00    +0.000 NA
ATOM     22  H   UNL     1      44.931   0.523   9.011  0.00  0.00    +0.000 HD
ATOM     23  H   UNL     1      46.273   1.284   9.541  0.00  0.00    +0.000 HD
ENDBRANCH  20  21
ENDBRANCH  19  20
ENDBRANCH  13  19
ENDBRANCH   1  16
TORSDOF 5
ENDMDL
MODEL 9
REMARK VINA RESULT:    -5.450      4.540      6.610
REMARK INTER + INTRA:          -7.333
REMARK INTER:                  -7.025
REMARK INTRA:                  -0.308
REMARK UNBOUND:                -0.450
REMARK  Name = 
REMARK  5 active torsions:
REMARK  status: ('A' for Active; 'I' for Inactive)
REMARK    1  A    between atoms: N_1  and  C_2
REMARK    2  A    between atoms: C_2  and  C_3
REMARK    3  A    between atoms: C_3  and  C_4
REMARK    4  A    between atoms: C_7  and  C_8
REMARK    5  A    between atoms: C_8  and  N_9
REMARK                            x       y       z     vdW  Elec       q    Type
REMARK                         _______ _______ _______ _____ _____    ______ ____
ROOT
ATOM      1  C   UNL     1      48.789   6.652  13.993  0.00  0.00    +0.000 C 
ENDROOT
BRANCH   1   2
ATOM      2  N   UNL     1      48.796   6.682  15.451  0.00  0.00    +0.000 N 
ATOM      3  C   UNL     1      49.627   7.484  16.193  0.00  0.00    +0.000 A 
ATOM      4  N   UNL     1      49.894   6.956  17.363  0.00  0.00    +0.000 NA
ATOM      5  C   UNL     1      49.177   5.783  17.413  0.00  0.00    +0.000 A 
ATOM      6  C   UNL     1      49.161   4.757  18.372  0.00  0.00    +0.000 A 
ATOM      7  F   UNL     1      49.966   4.797  19.444  0.00  0.00    +0.000 F 
ATOM      8  C   UNL     1      48.324   3.660  18.170  0.00  0.00    +0.000 A 
ATOM      9  F   UNL     1      48.334   2.643  19.045  0.00  0.00    +0.000 F 
ATOM     10  C   UNL     1      47.481   3.583  17.064  0.00  0.00    +0.000 A 
ATOM     11  C   UNL     1      47.493   4.579  16.083  0.00  0.00    +0.000 A 
ATOM     12  C   UNL     1      48.386   5.645  16.265  0.00  0.00    +0.000 A 
ENDBRANCH   1   2
BRANCH   1  16
ATOM     13  C   UNL     1      44.953   6.519  11.978  0.00  0.00    +0.000 A 
ATOM     14  C   UNL     1      45.417   7.707  12.557  0.00  0.00    +0.000 A 
ATOM     15  C   UNL     1      46.641   7.740  13.236  0.00  0.00    +0.000 A 
ATOM     16  C   UNL     1      47.426   6.586  13.364  0.00  0.00    +0.000 A 
ATOM     17  C   UNL     1      46.951   5.392  12.813  0.00  0.00    +0.000 A 
ATOM     18  C   UNL     1      45.732   5.360  12.129  0.00  0.00    +0.000 A 
BRANCH  13  19
ATOM     19  C   UNL     1      43.617   6.408  11.273  0.00  0.00    +0.000 C 
BRANCH  19  20
ATOM     20  C   UNL     1      42.632   5.369  11.826  0.00  0.00    +0.000 C 
BRANCH  20  21
ATOM     21  N   UNL     1      42.593   5.418  13.287  0.00  0.00    +0.000 NA
ATOM     22  H   UNL     1      43.511   5.692  13.642  0.00  0.00    +0.000 HD
ATOM     23  H   UNL     1      42.413   4.486  13.661  0.00  0.00    +0.000 HD
ENDBRANCH  20  21
ENDBRANCH  19  20
ENDBRANCH  13  19
ENDBRANCH   1  16
TORSDOF 5
ENDMDL
