MODEL 1
REMARK VINA RESULT:    -8.604      0.000      0.000
REMARK INTER + INTRA:         -11.736
REMARK INTER:                 -11.119
REMARK INTRA:                  -0.616
REMARK UNBOUND:                -0.616
REMARK  Name = 
REMARK  7 active torsions:
REMARK  status: ('A' for Active; 'I' for Inactive)
REMARK    1  A    between atoms: C_1  and  C_2
REMARK    2  A    between atoms: C_2  and  C_3
REMARK    3  A    between atoms: C_2  and  C_14
REMARK    4  A    between atoms: C_3  and  N_4
REMARK    5  A    between atoms: N_4  and  C_5
REMARK    6  A    between atoms: C_8  and  C_9
REMARK    7  A    between atoms: N_22  and  C_23
REMARK                            x       y       z     vdW  Elec       q    Type
REMARK                         _______ _______ _______ _____ _____    ______ ____
ROOT
ATOM      1  C   UNL     1      44.233   4.292  13.123  0.00  0.00    +0.000 C 
ATOM      2  C   UNL     1      45.195   4.779  12.034  0.00  0.00    +0.000 C 
ENDROOT
BRANCH   2   3
ATOM      3  C   UNL     1      46.359   5.494  12.704  0.00  0.00    +0.000 A 
ATOM      4  C   UNL     1      47.171   6.328  11.967  0.00  0.00    +0.000 A 
ATOM      5  C   UNL     1      48.231   6.876  12.642  0.00  0.00    +0.000 A 
ATOM      6  N   UNL     1      48.497   6.632  13.934  0.00  0.00    +0.000 NA
ATOM      7  C   UNL     1      47.686   5.786  14.590  0.00  0.00    +0.000 A 
ATOM      8  N   UNL     1      47.932   5.525  15.933  0.00  0.00    +0.000 N 
ATOM      9  C   UNL     1      47.525   4.187  16.380  0.00  0.00    +0.000 C 
ATOM     10  C   UNL     1      47.599   4.106  17.922  0.00  0.00    +0.000 C 
ATOM     11  N   UNL     1      48.935   4.462  18.455  0.00  0.00    +0.000 NA
ATOM     12  C   UNL     1      48.924   4.433  19.916  0.00  0.00    +0.000 C 
ATOM     13  C   UNL     1      49.309   5.808  17.964  0.00  0.00    +0.000 C 
ATOM     14  C   UNL     1      49.261   5.920  16.422  0.00  0.00    +0.000 C 
ATOM     15  N   UNL     1      46.617   5.213  14.000  0.00  0.00    +0.000 NA
ENDBRANCH   2   3
BRANCH   2  16
ATOM     16  C   UNL     1      44.501   5.678  10.983  0.00  0.00    +0.000 C 
BRANCH  16  17
ATOM     17  N   UNL     1      43.829   4.875   9.942  0.00  0.00    +0.000 N 
ATOM     18  H   UNL     1      43.266   5.450   9.319  0.00  0.00    +0.000 HD
BRANCH  17  19
ATOM     19  C   UNL     1      44.598   3.967   9.198  0.00  0.00    +0.000 A 
ATOM     20  C   UNL     1      45.599   4.356   8.308  0.00  0.00    +0.000 A 
ATOM     21  C   UNL     1      46.402   3.404   7.677  0.00  0.00    +0.000 A 
ATOM     22  C   UNL     1      46.198   2.067   7.974  0.00  0.00    +0.000 A 
ATOM     23  N   UNL     1      45.255   1.623   8.847  0.00  0.00    +0.000 NA
ATOM     24  C   UNL     1      44.504   2.587   9.440  0.00  0.00    +0.000 A 
BRANCH  22  25
ATOM     25  C   UNL     1      47.075   1.031   7.334  0.00  0.00    +0.000 C 
ATOM     26  N   UNL     1      46.795  -0.265   7.662  0.00  0.00    +0.000 N 
ATOM     27  O   UNL     1      47.989   1.320   6.575  0.00  0.00    +0.000 OA
ATOM     28  H   UNL     1      46.050  -0.466   8.319  0.00  0.00    +0.000 HD
ATOM     29  H   UNL     1      47.374  -1.007   7.296  0.00  0.00    +0.000 HD
ENDBRANCH  22  25
ENDBRANCH  17  19
ENDBRANCH  16  17
ENDBRANCH   2  16
TORSDOF 5
ENDMDL
MODEL 2
REMARK VINA RESULT:    -8.331      2.081      3.200
REMARK INTER + INTRA:         -11.382
REMARK INTER:                 -10.714
REMARK INTRA:                  -0.668
REMARK UNBOUND:                -0.616
REMARK  Name = 
REMARK  7 active torsions:
REMARK  status: ('A' for Active; 'I' for Inactive)
REMARK    1  A    between atoms: C_1  and  C_2
REMARK    2  A    between atoms: C_2  and  C_3
REMARK    3  A    between atoms: C_2  and  C_14
REMARK    4  A    between atoms: C_3  and  N_4
REMARK    5  A    between atoms: N_4  and  C_5
REMARK    6  A    between atoms: C_8  and  C_9
REMARK    7  A    between atoms: N_22  and  C_23
REMARK                            x       y       z     vdW  Elec       q    Type
REMARK                         _______ _______ _______ _____ _____    ______ ____
ROOT
ATOM      1  C   UNL     1      44.460   7.074  11.320  0.00  0.00    +0.000 C 
ATOM      2  C   UNL     1      44.241   5.850  12.215  0.00  0.00    +0.000 C 
ENDROOT
BRANCH   2   3
ATOM      3  C   UNL     1      45.544   5.542  12.937  0.00  0.00    +0.000 A 
ATOM      4  C   UNL     1      45.755   4.291  13.474  0.00  0.00    +0.000 A 
ATOM      5  C   UNL     1      46.930   4.128  14.160  0.00  0.00    +0.000 A 
ATOM      6  N   UNL     1      47.836   5.103  14.328  0.00  0.00    +0.000 NA
ATOM      7  C   UNL     1      47.558   6.310  13.808  0.00  0.00    +0.000 A 
ATOM      8  N   UNL     1      48.485   7.335  13.956  0.00  0.00    +0.000 N 
ATOM      9  C   UNL     1      47.903   8.681  14.017  0.00  0.00    +0.000 C 
ATOM     10  C   UNL     1      49.024   9.741  13.915  0.00  0.00    +0.000 C 
ATOM     11  N   UNL     1      50.075   9.568  14.946  0.00  0.00    +0.000 NA
ATOM     12  C   UNL     1      51.138  10.554  14.758  0.00  0.00    +0.000 C 
ATOM     13  C   UNL     1      50.618   8.194  14.858  0.00  0.00    +0.000 C 
ATOM     14  C   UNL     1      49.524   7.107  14.972  0.00  0.00    +0.000 C 
ATOM     15  N   UNL     1      46.429   6.548  13.111  0.00  0.00    +0.000 NA
ENDBRANCH   2   3
BRANCH   2  16
ATOM     16  C   UNL     1      43.718   4.624  11.431  0.00  0.00    +0.000 C 
BRANCH  16  17
ATOM     17  N   UNL     1      43.765   4.852   9.974  0.00  0.00    +0.000 N 
ATOM     18  H   UNL     1      43.920   5.830   9.743  0.00  0.00    +0.000 HD
BRANCH  17  19
ATOM     19  C   UNL     1      44.600   4.034   9.195  0.00  0.00    +0.000 A 
ATOM     20  C   UNL     1      45.578   4.533   8.335  0.00  0.00    +0.000 A 
ATOM     21  C   UNL     1      46.449   3.669   7.668  0.00  0.00    +0.000 A 
ATOM     22  C   UNL     1      46.336   2.308   7.901  0.00  0.00    +0.000 A 
ATOM     23  N   UNL     1      45.420   1.760   8.743  0.00  0.00    +0.000 NA
ATOM     24  C   UNL     1      44.600   2.641   9.372  0.00  0.00    +0.000 A 
BRANCH  22  25
ATOM     25  C   UNL     1      47.286   1.366   7.223  0.00  0.00    +0.000 C 
ATOM     26  N   UNL     1      48.311   1.951   6.536  0.00  0.00    +0.000 N 
ATOM     27  O   UNL     1      47.152   0.150   7.268  0.00  0.00    +0.000 OA
ATOM     28  H   UNL     1      48.373   2.962   6.494  0.00  0.00    +0.000 HD
ATOM     29  H   UNL     1      48.962   1.373   6.026  0.00  0.00    +0.000 HD
ENDBRANCH  22  25
ENDBRANCH  17  19
ENDBRANCH  16  17
ENDBRANCH   2  16
TORSDOF 5
ENDMDL
MODEL 3
REMARK VINA RESULT:    -7.382      3.278      4.380
REMARK INTER + INTRA:         -10.156
REMARK INTER:                  -9.604
REMARK INTRA:                  -0.552
REMARK UNBOUND:                -0.616
REMARK  Name = 
REMARK  7 active torsions:
REMARK  status: ('A' for Active; 'I' for Inactive)
REMARK    1  A    between atoms: C_1  and  C_2
REMARK    2  A    between atoms: C_2  and  C_3
REMARK    3  A    between atoms: C_2  and  C_14
REMARK    4  A    between atoms: C_3  and  N_4
REMARK    5  A    between atoms: N_4  and  C_5
REMARK    6  A    between atoms: C_8  and  C_9
REMARK    7  A    between atoms: N_22  and  C_23
REMARK                            x       y       z     vdW  Elec       q    Type
REMARK                         _______ _______ _______ _____ _____    ______ ____
ROOT
ATOM      1  C   UNL     1      45.223   4.772  13.311  0.00  0.00    +0.000 C 
ATOM      2  C   UNL     1      45.335   5.370  11.905  0.00  0.00    +0.000 C 
ENDROOT
BRANCH   2   3
ATOM      3  C   UNL     1      45.743   6.830  12.034  0.00  0.00    +0.000 A 
ATOM      4  C   UNL     1      44.782   7.816  12.035  0.00  0.00    +0.000 A 
ATOM      5  C   UNL     1      45.249   9.103  12.091  0.00  0.00    +0.000 A 
ATOM      6  N   UNL     1      46.552   9.421  12.132  0.00  0.00    +0.000 NA
ATOM      7  C   UNL     1      47.442   8.416  12.096  0.00  0.00    +0.000 A 
ATOM      8  N   UNL     1      48.798   8.717  12.150  0.00  0.00    +0.000 N 
ATOM      9  C   UNL     1      49.664   7.763  11.446  0.00  0.00    +0.000 C 
ATOM     10  C   UNL     1      51.144   8.045  11.793  0.00  0.00    +0.000 C 
ATOM     11  N   UNL     1      51.546   9.442  11.506  0.00  0.00    +0.000 NA
ATOM     12  C   UNL     1      52.931   9.667  11.916  0.00  0.00    +0.000 C 
ATOM     13  C   UNL     1      50.635  10.365  12.221  0.00  0.00    +0.000 C 
ATOM     14  C   UNL     1      49.146  10.120  11.884  0.00  0.00    +0.000 C 
ATOM     15  N   UNL     1      47.062   7.123  12.051  0.00  0.00    +0.000 NA
ENDBRANCH   2   3
BRANCH   2  16
ATOM     16  C   UNL     1      44.034   5.211  11.083  0.00  0.00    +0.000 C 
BRANCH  16  17
ATOM     17  N   UNL     1      43.902   3.846  10.536  0.00  0.00    +0.000 N 
ATOM     18  H   UNL     1      42.935   3.610  10.324  0.00  0.00    +0.000 HD
BRANCH  17  19
ATOM     19  C   UNL     1      44.735   3.468   9.471  0.00  0.00    +0.000 A 
ATOM     20  C   UNL     1      45.328   4.381   8.599  0.00  0.00    +0.000 A 
ATOM     21  C   UNL     1      46.232   3.952   7.625  0.00  0.00    +0.000 A 
ATOM     22  C   UNL     1      46.545   2.604   7.563  0.00  0.00    +0.000 A 
ATOM     23  N   UNL     1      46.019   1.668   8.396  0.00  0.00    +0.000 NA
ATOM     24  C   UNL     1      45.151   2.135   9.329  0.00  0.00    +0.000 A 
BRANCH  22  25
ATOM     25  C   UNL     1      47.542   2.128   6.547  0.00  0.00    +0.000 C 
ATOM     26  N   UNL     1      47.854   3.019   5.560  0.00  0.00    +0.000 N 
ATOM     27  O   UNL     1      48.041   1.012   6.588  0.00  0.00    +0.000 OA
ATOM     28  H   UNL     1      47.397   3.924   5.541  0.00  0.00    +0.000 HD
ATOM     29  H   UNL     1      48.488   2.746   4.825  0.00  0.00    +0.000 HD
ENDBRANCH  22  25
ENDBRANCH  17  19
ENDBRANCH  16  17
ENDBRANCH   2  16
TORSDOF 5
ENDMDL
MODEL 4
REMARK VINA RESULT:    -6.567      3.557      7.707
REMARK INTER + INTRA:          -9.103
REMARK INTER:                  -8.238
REMARK INTRA:                  -0.865
REMARK UNBOUND:                -0.616
REMARK  Name = 
REMARK  7 active torsions:
REMARK  status: ('A' for Active; 'I' for Inactive)
REMARK    1  A    between atoms: C_1  and  C_2
REMARK    2  A    between atoms: C_2  and  C_3
REMARK    3  A    between atoms: C_2  and  C_14
REMARK    4  A    between atoms: C_3  and  N_4
REMARK    5  A    between atoms: N_4  and  C_5
REMARK    6  A    between atoms: C_8  and  C_9
REMARK    7  A    between atoms: N_22  and  C_23
REMARK                            x       y       z     vdW  Elec       q    Type
REMARK                         _______ _______ _______ _____ _____    ______ ____
ROOT
ATOM      1  C   UNL     1      48.731  10.316  13.999  0.00  0.00    +0.000 C 
ATOM      2  C   UNL     1      48.758   9.278  12.873  0.00  0.00    +0.000 C 
ENDROOT
BRANCH   2   3
ATOM      3  C   UNL     1      47.342   9.105  12.343  0.00  0.00    +0.000 A 
ATOM      4  C   UNL     1      46.572  10.212  12.061  0.00  0.00    +0.000 A 
ATOM      5  C   UNL     1      45.290   9.957  11.650  0.00  0.00    +0.000 A 
ATOM      6  N   UNL     1      44.780   8.722  11.527  0.00  0.00    +0.000 NA
ATOM      7  C   UNL     1      45.570   7.685  11.847  0.00  0.00    +0.000 A 
ATOM      8  N   UNL     1      45.070   6.394  11.716  0.00  0.00    +0.000 N 
ATOM      9  C   UNL     1      45.633   5.423  12.663  0.00  0.00    +0.000 C 
ATOM     10  C   UNL     1      45.210   3.992  12.257  0.00  0.00    +0.000 C 
ATOM     11  N   UNL     1      43.740   3.836  12.144  0.00  0.00    +0.000 NA
ATOM     12  C   UNL     1      43.406   2.487  11.694  0.00  0.00    +0.000 C 
ATOM     13  C   UNL     1      43.218   4.846  11.196  0.00  0.00    +0.000 C 
ATOM     14  C   UNL     1      43.610   6.292  11.581  0.00  0.00    +0.000 C 
ATOM     15  N   UNL     1      46.846   7.852  12.249  0.00  0.00    +0.000 NA
ENDBRANCH   2   3
BRANCH   2  16
ATOM     16  C   UNL     1      49.369   7.929  13.320  0.00  0.00    +0.000 C 
BRANCH  16  17
ATOM     17  N   UNL     1      49.657   7.917  14.767  0.00  0.00    +0.000 N 
ATOM     18  H   UNL     1      49.352   8.773  15.226  0.00  0.00    +0.000 HD
BRANCH  17  19
ATOM     19  C   UNL     1      49.261   6.799  15.519  0.00  0.00    +0.000 A 
ATOM     20  C   UNL     1      49.677   6.568  16.829  0.00  0.00    +0.000 A 
ATOM     21  C   UNL     1      49.165   5.495  17.561  0.00  0.00    +0.000 A 
ATOM     22  C   UNL     1      48.216   4.682  16.965  0.00  0.00    +0.000 A 
ATOM     23  N   UNL     1      47.752   4.865  15.700  0.00  0.00    +0.000 NA
ATOM     24  C   UNL     1      48.276   5.925  15.031  0.00  0.00    +0.000 A 
BRANCH  22  25
ATOM     25  C   UNL     1      47.626   3.545  17.747  0.00  0.00    +0.000 C 
ATOM     26  N   UNL     1      48.267   3.232  18.911  0.00  0.00    +0.000 N 
ATOM     27  O   UNL     1      46.639   2.928  17.369  0.00  0.00    +0.000 OA
ATOM     28  H   UNL     1      49.101   3.745  19.177  0.00  0.00    +0.000 HD
ATOM     29  H   UNL     1      47.944   2.452  19.463  0.00  0.00    +0.000 HD
ENDBRANCH  22  25
ENDBRANCH  17  19
ENDBRANCH  16  17
ENDBRANCH   2  16
TORSDOF 5
ENDMDL
MODEL 5
REMARK VINA RESULT:    -6.530      3.340      7.943
REMARK INTER + INTRA:          -9.055
REMARK INTER:                  -8.328
REMARK INTRA:                  -0.727
REMARK UNBOUND:                -0.616
REMARK  Name = 
REMARK  7 active torsions:
REMARK  status: ('A' for Active; 'I' for Inactive)
REMARK    1  A    between atoms: C_1  and  C_2
REMARK    2  A    between atoms: C_2  and  C_3
REMARK    3  A    between atoms: C_2  and  C_14
REMARK    4  A    between atoms: C_3  and  N_4
REMARK    5  A    between atoms: N_4  and  C_5
REMARK    6  A    between atoms: C_8  and  C_9
REMARK    7  A    between atoms: N_22  and  C_23
REMARK                            x       y       z     vdW  Elec       q    Type
REMARK                         _______ _______ _______ _____ _____    ______ ____
ROOT
ATOM      1  C   UNL     1      50.155   8.061  16.378  0.00  0.00    +0.000 C 
ATOM      2  C   UNL     1      49.271   6.882  15.959  0.00  0.00    +0.000 C 
ENDROOT
BRANCH   2   3
ATOM      3  C   UNL     1      48.481   7.287  14.723  0.00  0.00    +0.000 A 
ATOM      4  C   UNL     1      48.392   8.615  14.368  0.00  0.00    +0.000 A 
ATOM      5  C   UNL     1      47.606   8.888  13.278  0.00  0.00    +0.000 A 
ATOM      6  N   UNL     1      46.944   7.950  12.584  0.00  0.00    +0.000 NA
ATOM      7  C   UNL     1      47.046   6.678  12.999  0.00  0.00    +0.000 A 
ATOM      8  N   UNL     1      46.381   5.684  12.290  0.00  0.00    +0.000 N 
ATOM      9  C   UNL     1      45.957   4.536  13.099  0.00  0.00    +0.000 C 
ATOM     10  C   UNL     1      45.473   3.394  12.175  0.00  0.00    +0.000 C 
ATOM     11  N   UNL     1      44.398   3.819  11.248  0.00  0.00    +0.000 NA
ATOM     12  C   UNL     1      44.031   2.721  10.357  0.00  0.00    +0.000 C 
ATOM     13  C   UNL     1      44.865   4.988  10.468  0.00  0.00    +0.000 C 
ATOM     14  C   UNL     1      45.342   6.156  11.363  0.00  0.00    +0.000 C 
ATOM     15  N   UNL     1      47.807   6.326  14.055  0.00  0.00    +0.000 NA
ENDBRANCH   2   3
BRANCH   2  16
ATOM     16  C   UNL     1      48.342   6.400  17.098  0.00  0.00    +0.000 C 
BRANCH  16  17
ATOM     17  N   UNL     1      48.078   4.950  17.005  0.00  0.00    +0.000 N 
ATOM     18  H   UNL     1      47.507   4.715  16.196  0.00  0.00    +0.000 HD
BRANCH  17  19
ATOM     19  C   UNL     1      49.165   4.066  17.102  0.00  0.00    +0.000 A 
ATOM     20  C   UNL     1      50.339   4.363  17.793  0.00  0.00    +0.000 A 
ATOM     21  C   UNL     1      51.340   3.402  17.944  0.00  0.00    +0.000 A 
ATOM     22  C   UNL     1      51.130   2.140  17.413  0.00  0.00    +0.000 A 
ATOM     23  N   UNL     1      50.001   1.780  16.748  0.00  0.00    +0.000 NA
ATOM     24  C   UNL     1      49.054   2.747  16.633  0.00  0.00    +0.000 A 
BRANCH  22  25
ATOM     25  C   UNL     1      52.178   1.083  17.597  0.00  0.00    +0.000 C 
ATOM     26  N   UNL     1      51.761  -0.065  18.207  0.00  0.00    +0.000 N 
ATOM     27  O   UNL     1      53.337   1.235  17.235  0.00  0.00    +0.000 OA
ATOM     28  H   UNL     1      50.800  -0.144  18.521  0.00  0.00    +0.000 HD
ATOM     29  H   UNL     1      52.427  -0.799  18.395  0.00  0.00    +0.000 HD
ENDBRANCH  22  25
ENDBRANCH  17  19
ENDBRANCH  16  17
ENDBRANCH   2  16
TORSDOF 5
ENDMDL
MODEL 6
REMARK VINA RESULT:    -6.139      2.839      4.355
REMARK INTER + INTRA:          -8.550
REMARK INTER:                  -7.565
REMARK INTRA:                  -0.984
REMARK UNBOUND:                -0.616
REMARK  Name = 
REMARK  7 active torsions:
REMARK  status: ('A' for Active; 'I' for Inactive)
REMARK    1  A    between atoms: C_1  and  C_2
REMARK    2  A    between atoms: C_2  and  C_3
REMARK    3  A    between atoms: C_2  and  C_14
REMARK    4  A    between atoms: C_3  and  N_4
REMARK    5  A    between atoms: N_4  and  C_5
REMARK    6  A    between atoms: C_8  and  C_9
REMARK    7  A    between atoms: N_22  and  C_23
REMARK                            x       y       z     vdW  Elec       q    Type
REMARK                         _______ _______ _______ _____ _____    ______ ____
ROOT
ATOM      1  C   UNL     1      48.285  10.409  11.456  0.00  0.00    +0.000 C 
ATOM      2  C   UNL     1      47.560  10.076  12.764  0.00  0.00    +0.000 C 
ENDROOT
BRANCH   2   3
ATOM      3  C   UNL     1      48.595   9.636  13.789  0.00  0.00    +0.000 A 
ATOM      4  C   UNL     1      49.749  10.368  13.962  0.00  0.00    +0.000 A 
ATOM      5  C   UNL     1      50.649   9.859  14.860  0.00  0.00    +0.000 A 
ATOM      6  N   UNL     1      50.458   8.718  15.540  0.00  0.00    +0.000 NA
ATOM      7  C   UNL     1      49.327   8.033  15.305  0.00  0.00    +0.000 A 
ATOM      8  N   UNL     1      49.098   6.854  16.006  0.00  0.00    +0.000 N 
ATOM      9  C   UNL     1      48.301   5.858  15.280  0.00  0.00    +0.000 C 
ATOM     10  C   UNL     1      47.890   4.717  16.239  0.00  0.00    +0.000 C 
ATOM     11  N   UNL     1      49.050   4.084  16.912  0.00  0.00    +0.000 NA
ATOM     12  C   UNL     1      48.597   3.063  17.853  0.00  0.00    +0.000 C 
ATOM     13  C   UNL     1      49.832   5.128  17.613  0.00  0.00    +0.000 C 
ATOM     14  C   UNL     1      50.272   6.279  16.678  0.00  0.00    +0.000 C 
ATOM     15  N   UNL     1      48.388   8.472  14.444  0.00  0.00    +0.000 NA
ENDBRANCH   2   3
BRANCH   2  16
ATOM     16  C   UNL     1      46.452   9.013  12.579  0.00  0.00    +0.000 C 
BRANCH  16  17
ATOM     17  N   UNL     1      46.957   7.822  11.867  0.00  0.00    +0.000 N 
ATOM     18  H   UNL     1      47.892   7.560  12.173  0.00  0.00    +0.000 HD
BRANCH  17  19
ATOM     19  C   UNL     1      46.135   6.685  11.799  0.00  0.00    +0.000 A 
ATOM     20  C   UNL     1      45.937   5.950  10.631  0.00  0.00    +0.000 A 
ATOM     21  C   UNL     1      45.194   4.767  10.651  0.00  0.00    +0.000 A 
ATOM     22  C   UNL     1      44.681   4.331  11.860  0.00  0.00    +0.000 A 
ATOM     23  N   UNL     1      44.855   4.989  13.037  0.00  0.00    +0.000 NA
ATOM     24  C   UNL     1      45.590   6.129  12.967  0.00  0.00    +0.000 A 
BRANCH  22  25
ATOM     25  C   UNL     1      43.911   3.043  11.909  0.00  0.00    +0.000 C 
ATOM     26  N   UNL     1      43.894   2.319  10.752  0.00  0.00    +0.000 N 
ATOM     27  O   UNL     1      43.324   2.665  12.914  0.00  0.00    +0.000 OA
ATOM     28  H   UNL     1      44.365   2.679   9.929  0.00  0.00    +0.000 HD
ATOM     29  H   UNL     1      43.361   1.464  10.707  0.00  0.00    +0.000 HD
ENDBRANCH  22  25
ENDBRANCH  17  19
ENDBRANCH  16  17
ENDBRANCH   2  16
TORSDOF 5
ENDMDL
MODEL 7
REMARK VINA RESULT:    -6.030      4.267      7.404
REMARK INTER + INTRA:          -8.409
REMARK INTER:                  -7.569
REMARK INTRA:                  -0.840
REMARK UNBOUND:                -0.616
REMARK  Name = 
REMARK  7 active torsions:
REMARK  status: ('A' for Active; 'I' for Inactive)
REMARK    1  A    between atoms: C_1  and  C_2
REMARK    2  A    between atoms: C_2  and  C_3
REMARK    3  A    between atoms: C_2  and  C_14
REMARK    4  A    between atoms: C_3  and  N_4
REMARK    5  A    between atoms: N_4  and  C_5
REMARK    6  A    between atoms: C_8  and  C_9
REMARK    7  A    between atoms: N_22  and  C_23
REMARK                            x       y       z     vdW  Elec       q    Type
REMARK                         _______ _______ _______ _____ _____    ______ ____
ROOT
ATOM      1  C   UNL     1      45.128   3.478  12.119  0.00  0.00    +0.000 C 
ATOM      2  C   UNL     1      45.423   4.397  13.309  0.00  0.00    +0.000 C 
ENDROOT
BRANCH   2   3
ATOM      3  C   UNL     1      45.416   5.837  12.819  0.00  0.00    +0.000 A 
ATOM      4  C   UNL     1      44.481   6.246  11.893  0.00  0.00    +0.000 A 
ATOM      5  C   UNL     1      44.595   7.542  11.464  0.00  0.00    +0.000 A 
ATOM      6  N   UNL     1      45.548   8.386  11.888  0.00  0.00    +0.000 NA
ATOM      7  C   UNL     1      46.449   7.919  12.767  0.00  0.00    +0.000 A 
ATOM      8  N   UNL     1      47.440   8.776  13.233  0.00  0.00    +0.000 N 
ATOM      9  C   UNL     1      48.704   8.116  13.583  0.00  0.00    +0.000 C 
ATOM     10  C   UNL     1      49.625   9.110  14.327  0.00  0.00    +0.000 C 
ATOM     11  N   UNL     1      49.868  10.355  13.560  0.00  0.00    +0.000 NA
ATOM     12  C   UNL     1      50.686  11.281  14.340  0.00  0.00    +0.000 C 
ATOM     13  C   UNL     1      48.568  10.973  13.216  0.00  0.00    +0.000 C 
ATOM     14  C   UNL     1      47.626  10.010  12.455  0.00  0.00    +0.000 C 
ATOM     15  N   UNL     1      46.400   6.660  13.245  0.00  0.00    +0.000 NA
ENDBRANCH   2   3
BRANCH   2  16
ATOM     16  C   UNL     1      46.749   4.042  14.022  0.00  0.00    +0.000 C 
BRANCH  16  17
ATOM     17  N   UNL     1      46.693   4.361  15.462  0.00  0.00    +0.000 N 
ATOM     18  H   UNL     1      45.884   3.943  15.916  0.00  0.00    +0.000 HD
BRANCH  17  19
ATOM     19  C   UNL     1      47.844   4.152  16.239  0.00  0.00    +0.000 A 
ATOM     20  C   UNL     1      48.243   2.897  16.699  0.00  0.00    +0.000 A 
ATOM     21  C   UNL     1      49.453   2.738  17.376  0.00  0.00    +0.000 A 
ATOM     22  C   UNL     1      50.259   3.850  17.558  0.00  0.00    +0.000 A 
ATOM     23  N   UNL     1      49.939   5.095  17.116  0.00  0.00    +0.000 NA
ATOM     24  C   UNL     1      48.756   5.197  16.458  0.00  0.00    +0.000 A 
BRANCH  22  25
ATOM     25  C   UNL     1      51.581   3.693  18.251  0.00  0.00    +0.000 C 
ATOM     26  N   UNL     1      52.103   2.431  18.252  0.00  0.00    +0.000 N 
ATOM     27  O   UNL     1      52.156   4.628  18.791  0.00  0.00    +0.000 OA
ATOM     28  H   UNL     1      51.583   1.674  17.821  0.00  0.00    +0.000 HD
ATOM     29  H   UNL     1      52.970   2.252  18.736  0.00  0.00    +0.000 HD
ENDBRANCH  22  25
ENDBRANCH  17  19
ENDBRANCH  16  17
ENDBRANCH   2  16
TORSDOF 5
ENDMDL
MODEL 8
REMARK VINA RESULT:    -5.950      2.907      8.107
REMARK INTER + INTRA:          -8.306
REMARK INTER:                  -7.534
REMARK INTRA:                  -0.772
REMARK UNBOUND:                -0.616
REMARK  Name = 
REMARK  7 active torsions:
REMARK  status: ('A' for Active; 'I' for Inactive)
REMARK    1  A    between atoms: C_1  and  C_2
REMARK    2  A    between atoms: C_2  and  C_3
REMARK    3  A    between atoms: C_2  and  C_14
REMARK    4  A    between atoms: C_3  and  N_4
REMARK    5  A    between atoms: N_4  and  C_5
REMARK    6  A    between atoms: C_8  and  C_9
REMARK    7  A    between atoms: N_22  and  C_23
REMARK                            x       y       z     vdW  Elec       q    Type
REMARK                         _______ _______ _______ _____ _____    ______ ____
ROOT
ATOM      1  C   UNL     1      44.761   9.368  12.325  0.00  0.00    +0.000 C 
ATOM      2  C   UNL     1      45.853   8.301  12.191  0.00  0.00    +0.000 C 
ENDROOT
BRANCH   2   3
ATOM      3  C   UNL     1      45.187   6.967  11.888  0.00  0.00    +0.000 A 
ATOM      4  C   UNL     1      44.363   6.380  12.824  0.00  0.00    +0.000 A 
ATOM      5  C   UNL     1      43.861   5.150  12.488  0.00  0.00    +0.000 A 
ATOM      6  N   UNL     1      44.140   4.522  11.335  0.00  0.00    +0.000 NA
ATOM      7  C   UNL     1      44.974   5.131  10.478  0.00  0.00    +0.000 A 
ATOM      8  N   UNL     1      45.270   4.508   9.270  0.00  0.00    +0.000 N 
ATOM      9  C   UNL     1      46.604   4.811   8.738  0.00  0.00    +0.000 C 
ATOM     10  C   UNL     1      46.719   4.286   7.288  0.00  0.00    +0.000 C 
ATOM     11  N   UNL     1      46.414   2.841   7.172  0.00  0.00    +0.000 NA
ATOM     12  C   UNL     1      46.472   2.419   5.774  0.00  0.00    +0.000 C 
ATOM     13  C   UNL     1      45.070   2.583   7.737  0.00  0.00    +0.000 C 
ATOM     14  C   UNL     1      44.925   3.081   9.194  0.00  0.00    +0.000 C 
ATOM     15  N   UNL     1      45.502   6.346  10.730  0.00  0.00    +0.000 NA
ENDBRANCH   2   3
BRANCH   2  16
ATOM     16  C   UNL     1      46.761   8.216  13.440  0.00  0.00    +0.000 C 
BRANCH  16  17
ATOM     17  N   UNL     1      47.776   7.154  13.301  0.00  0.00    +0.000 N 
ATOM     18  H   UNL     1      48.683   7.523  13.024  0.00  0.00    +0.000 HD
BRANCH  17  19
ATOM     19  C   UNL     1      47.930   6.235  14.351  0.00  0.00    +0.000 A 
ATOM     20  C   UNL     1      48.642   6.514  15.518  0.00  0.00    +0.000 A 
ATOM     21  C   UNL     1      48.670   5.599  16.572  0.00  0.00    +0.000 A 
ATOM     22  C   UNL     1      47.955   4.420  16.442  0.00  0.00    +0.000 A 
ATOM     23  N   UNL     1      47.225   4.097  15.341  0.00  0.00    +0.000 NA
ATOM     24  C   UNL     1      47.224   5.021  14.347  0.00  0.00    +0.000 A 
BRANCH  22  25
ATOM     25  C   UNL     1      47.943   3.439  17.578  0.00  0.00    +0.000 C 
ATOM     26  N   UNL     1      46.813   2.682  17.694  0.00  0.00    +0.000 N 
ATOM     27  O   UNL     1      48.877   3.327  18.361  0.00  0.00    +0.000 OA
ATOM     28  H   UNL     1      46.046   2.824  17.046  0.00  0.00    +0.000 HD
ATOM     29  H   UNL     1      46.726   2.032  18.461  0.00  0.00    +0.000 HD
ENDBRANCH  22  25
ENDBRANCH  17  19
ENDBRANCH  16  17
ENDBRANCH   2  16
TORSDOF 5
ENDMDL
MODEL 9
REMARK VINA RESULT:    -5.825      3.601      7.668
REMARK INTER + INTRA:          -8.144
REMARK INTER:                  -6.807
REMARK INTRA:                  -1.337
REMARK UNBOUND:                -0.616
REMARK  Name = 
REMARK  7 active torsions:
REMARK  status: ('A' for Active; 'I' for Inactive)
REMARK    1  A    between atoms: C_1  and  C_2
REMARK    2  A    between atoms: C_2  and  C_3
REMARK    3  A    between atoms: C_2  and  C_14
REMARK    4  A    between atoms: C_3  and  N_4
REMARK    5  A    between atoms: N_4  and  C_5
REMARK    6  A    between atoms: C_8  and  C_9
REMARK    7  A    between atoms: N_22  and  C_23
REMARK                            x       y       z     vdW  Elec       q    Type
REMARK                         _______ _______ _______ _____ _____    ______ ____
ROOT
ATOM      1  C   UNL     1      51.228   5.004  18.216  0.00  0.00    +0.000 C 
ATOM      2  C   UNL     1      49.746   5.375  18.104  0.00  0.00    +0.000 C 
ENDROOT
BRANCH   2   3
ATOM      3  C   UNL     1      49.060   4.354  17.207  0.00  0.00    +0.000 A 
ATOM      4  C   UNL     1      49.341   3.013  17.350  0.00  0.00    +0.000 A 
ATOM      5  C   UNL     1      48.725   2.177  16.456  0.00  0.00    +0.000 A 
ATOM      6  N   UNL     1      47.902   2.601  15.485  0.00  0.00    +0.000 NA
ATOM      7  C   UNL     1      47.692   3.923  15.378  0.00  0.00    +0.000 A 
ATOM      8  N   UNL     1      46.834   4.389  14.388  0.00  0.00    +0.000 N 
ATOM      9  C   UNL     1      47.159   5.726  13.878  0.00  0.00    +0.000 C 
ATOM     10  C   UNL     1      46.004   6.243  12.989  0.00  0.00    +0.000 C 
ATOM     11  N   UNL     1      45.670   5.316  11.882  0.00  0.00    +0.000 NA
ATOM     12  C   UNL     1      44.530   5.823  11.121  0.00  0.00    +0.000 C 
ATOM     13  C   UNL     1      45.368   3.980  12.443  0.00  0.00    +0.000 C 
ATOM     14  C   UNL     1      46.511   3.425  13.326  0.00  0.00    +0.000 C 
ATOM     15  N   UNL     1      48.253   4.810  16.224  0.00  0.00    +0.000 NA
ENDBRANCH   2   3
BRANCH   2  16
ATOM     16  C   UNL     1      49.529   6.819  17.594  0.00  0.00    +0.000 C 
BRANCH  16  17
ATOM     17  N   UNL     1      50.383   7.116  16.427  0.00  0.00    +0.000 N 
ATOM     18  H   UNL     1      50.854   6.285  16.074  0.00  0.00    +0.000 HD
BRANCH  17  19
ATOM     19  C   UNL     1      49.831   7.846  15.362  0.00  0.00    +0.000 A 
ATOM     20  C   UNL     1      50.320   7.791  14.058  0.00  0.00    +0.000 A 
ATOM     21  C   UNL     1      49.663   8.456  13.021  0.00  0.00    +0.000 A 
ATOM     22  C   UNL     1      48.501   9.150  13.314  0.00  0.00    +0.000 A 
ATOM     23  N   UNL     1      47.960   9.225  14.559  0.00  0.00    +0.000 NA
ATOM     24  C   UNL     1      48.632   8.557  15.532  0.00  0.00    +0.000 A 
BRANCH  22  25
ATOM     25  C   UNL     1      47.759   9.841  12.208  0.00  0.00    +0.000 C 
ATOM     26  N   UNL     1      48.536  10.430  11.252  0.00  0.00    +0.000 N 
ATOM     27  O   UNL     1      46.537   9.888  12.163  0.00  0.00    +0.000 OA
ATOM     28  H   UNL     1      49.546  10.399  11.338  0.00  0.00    +0.000 HD
ATOM     29  H   UNL     1      48.099  10.945  10.502  0.00  0.00    +0.000 HD
ENDBRANCH  22  25
ENDBRANCH  17  19
ENDBRANCH  16  17
ENDBRANCH   2  16
TORSDOF 5
ENDMDL
