MODEL 1
REMARK VINA RESULT:    -8.694      0.000      0.000
REMARK INTER + INTRA:         -11.439
REMARK INTER:                 -11.235
REMARK INTRA:                  -0.203
REMARK UNBOUND:                -0.203
REMARK  Name = 
REMARK  5 active torsions:
REMARK  status: ('A' for Active; 'I' for Inactive)
REMARK    1  A    between atoms: C_2  and  C_3
REMARK    2  A    between atoms: C_6  and  N_7
REMARK    3  A    between atoms: N_7  and  C_8
REMARK    4  A    between atoms: C_8  and  C_9
REMARK    5  A    between atoms: C_13  and  C_14
REMARK                            x       y       z     vdW  Elec       q    Type
REMARK                         _______ _______ _______ _____ _____    ______ ____
ROOT
ATOM      1  C   UNL     1      43.976   4.889  11.529  0.00  0.00    +0.000 C 
ATOM      2  C   UNL     1      43.363   3.809  12.406  0.00  0.00    +0.000 C 
ATOM      3  C   UNL     1      42.794   5.189  12.421  0.00  0.00    +0.000 C 
ENDROOT
BRANCH   1   4
ATOM      4  C   UNL     1      45.356   5.423  11.863  0.00  0.00    +0.000 A 
ATOM      5  C   UNL     1      45.951   6.431  11.088  0.00  0.00    +0.000 A 
ATOM      6  C   UNL     1      47.050   7.144  11.558  0.00  0.00    +0.000 A 
ATOM      7  C   UNL     1      47.598   6.838  12.805  0.00  0.00    +0.000 A 
ATOM      8  C   UNL     1      47.093   5.784  13.584  0.00  0.00    +0.000 A 
ATOM      9  C   UNL     1      45.978   5.087  13.079  0.00  0.00    +0.000 A 
BRANCH   8  10
ATOM     10  C   UNL     1      47.667   5.445  14.906  0.00  0.00    +0.000 A 
ATOM     11  C   UNL     1      48.661   6.242  15.504  0.00  0.00    +0.000 A 
ATOM     12  C   UNL     1      49.205   5.917  16.753  0.00  0.00    +0.000 A 
ATOM     13  C   UNL     1      48.753   4.793  17.438  0.00  0.00    +0.000 A 
ATOM     14  C   UNL     1      47.763   3.999  16.871  0.00  0.00    +0.000 A 
ATOM     15 CL   UNL     1      47.188   2.615  17.718  0.00  0.00    +0.000 Cl
ATOM     16  C   UNL     1      47.227   4.315  15.621  0.00  0.00    +0.000 A 
ENDBRANCH   8  10
ENDBRANCH   1   4
BRANCH   1  17
ATOM     17  N   UNL     1      43.851   4.630  10.102  0.00  0.00    +0.000 N 
ATOM     18  H   UNL     1      42.980   4.852   9.633  0.00  0.00    +0.000 HD
BRANCH  17  22
ATOM     19  C   UNL     1      46.390   2.523   7.705  0.00  0.00    +0.000 A 
ATOM     20  C   UNL     1      46.138   3.872   7.535  0.00  0.00    +0.000 A 
ATOM     21  N   UNL     1      45.253   4.544   8.305  0.00  0.00    +0.000 NA
ATOM     22  C   UNL     1      44.629   3.844   9.279  0.00  0.00    +0.000 A 
ATOM     23  C   UNL     1      44.869   2.478   9.420  0.00  0.00    +0.000 A 
ATOM     24  N   UNL     1      45.749   1.785   8.642  0.00  0.00    +0.000 NA
BRANCH  19  26
ATOM     25  N   UNL     1      48.197   1.402   6.215  0.00  0.00    +0.000 NA
ATOM     26  C   UNL     1      47.377   1.873   6.902  0.00  0.00    +0.000 C 
ENDBRANCH  19  26
ENDBRANCH  17  22
ENDBRANCH   1  17
TORSDOF 5
ENDMDL
MODEL 2
REMARK VINA RESULT:    -8.453      2.609      3.847
REMARK INTER + INTRA:         -11.128
REMARK INTER:                 -10.152
REMARK INTRA:                  -0.976
REMARK UNBOUND:                -0.203
REMARK  Name = 
REMARK  5 active torsions:
REMARK  status: ('A' for Active; 'I' for Inactive)
REMARK    1  A    between atoms: C_2  and  C_3
REMARK    2  A    between atoms: C_6  and  N_7
REMARK    3  A    between atoms: N_7  and  C_8
REMARK    4  A    between atoms: C_8  and  C_9
REMARK    5  A    between atoms: C_13  and  C_14
REMARK                            x       y       z     vdW  Elec       q    Type
REMARK                         _______ _______ _______ _____ _____    ______ ____
ROOT
ATOM      1  C   UNL     1      43.774   5.042  11.349  0.00  0.00    +0.000 C 
ATOM      2  C   UNL     1      42.408   5.184  12.003  0.00  0.00    +0.000 C 
ATOM      3  C   UNL     1      42.871   6.209  11.022  0.00  0.00    +0.000 C 
ENDROOT
BRANCH   1   4
ATOM      4  C   UNL     1      45.023   5.239  12.188  0.00  0.00    +0.000 A 
ATOM      5  C   UNL     1      45.489   4.227  13.042  0.00  0.00    +0.000 A 
ATOM      6  C   UNL     1      46.780   4.265  13.562  0.00  0.00    +0.000 A 
ATOM      7  C   UNL     1      47.622   5.337  13.261  0.00  0.00    +0.000 A 
ATOM      8  C   UNL     1      47.177   6.415  12.479  0.00  0.00    +0.000 A 
ATOM      9  C   UNL     1      45.867   6.342  11.966  0.00  0.00    +0.000 A 
BRANCH   8  10
ATOM     10  C   UNL     1      48.057   7.561  12.155  0.00  0.00    +0.000 A 
ATOM     11  C   UNL     1      47.564   8.879  12.114  0.00  0.00    +0.000 A 
ATOM     12  C   UNL     1      48.396   9.961  11.803  0.00  0.00    +0.000 A 
ATOM     13  C   UNL     1      49.746   9.749  11.542  0.00  0.00    +0.000 A 
ATOM     14  C   UNL     1      50.257   8.457  11.591  0.00  0.00    +0.000 A 
ATOM     15 CL   UNL     1      51.929   8.186  11.283  0.00  0.00    +0.000 Cl
ATOM     16  C   UNL     1      49.426   7.375  11.889  0.00  0.00    +0.000 A 
ENDBRANCH   8  10
ENDBRANCH   1   4
BRANCH   1  17
ATOM     17  N   UNL     1      43.900   3.870  10.497  0.00  0.00    +0.000 N 
ATOM     18  H   UNL     1      43.373   3.033  10.723  0.00  0.00    +0.000 HD
BRANCH  17  22
ATOM     19  C   UNL     1      46.540   2.739   7.601  0.00  0.00    +0.000 A 
ATOM     20  C   UNL     1      45.983   1.850   8.502  0.00  0.00    +0.000 A 
ATOM     21  N   UNL     1      45.150   2.249   9.489  0.00  0.00    +0.000 NA
ATOM     22  C   UNL     1      44.858   3.568   9.552  0.00  0.00    +0.000 A 
ATOM     23  C   UNL     1      45.451   4.457   8.657  0.00  0.00    +0.000 A 
ATOM     24  N   UNL     1      46.302   4.071   7.664  0.00  0.00    +0.000 NA
BRANCH  19  26
ATOM     25  N   UNL     1      48.098   1.866   5.715  0.00  0.00    +0.000 NA
ATOM     26  C   UNL     1      47.368   2.257   6.540  0.00  0.00    +0.000 C 
ENDBRANCH  19  26
ENDBRANCH  17  22
ENDBRANCH   1  17
TORSDOF 5
ENDMDL
MODEL 3
REMARK VINA RESULT:    -8.162      3.670      7.457
REMARK INTER + INTRA:         -10.751
REMARK INTER:                 -10.044
REMARK INTRA:                  -0.708
REMARK UNBOUND:                -0.203
REMARK  Name = 
REMARK  5 active torsions:
REMARK  status: ('A' for Active; 'I' for Inactive)
REMARK    1  A    between atoms: C_2  and  C_3
REMARK    2  A    between atoms: C_6  and  N_7
REMARK    3  A    between atoms: N_7  and  C_8
REMARK    4  A    between atoms: C_8  and  C_9
REMARK    5  A    between atoms: C_13  and  C_14
REMARK                            x       y       z     vdW  Elec       q    Type
REMARK                         _______ _______ _______ _____ _____    ______ ____
ROOT
ATOM      1  C   UNL     1      46.018   7.084  12.359  0.00  0.00    +0.000 C 
ATOM      2  C   UNL     1      46.149   8.434  11.670  0.00  0.00    +0.000 C 
ATOM      3  C   UNL     1      45.327   8.310  12.909  0.00  0.00    +0.000 C 
ENDROOT
BRANCH   1   4
ATOM      4  C   UNL     1      45.224   5.981  11.687  0.00  0.00    +0.000 A 
ATOM      5  C   UNL     1      43.842   5.849  11.900  0.00  0.00    +0.000 A 
ATOM      6  C   UNL     1      43.058   5.063  11.061  0.00  0.00    +0.000 A 
ATOM      7  C   UNL     1      43.649   4.364  10.007  0.00  0.00    +0.000 A 
ATOM      8  C   UNL     1      45.038   4.396   9.800  0.00  0.00    +0.000 A 
ATOM      9  C   UNL     1      45.800   5.204  10.665  0.00  0.00    +0.000 A 
BRANCH   8  10
ATOM     10  C   UNL     1      45.679   3.656   8.689  0.00  0.00    +0.000 A 
ATOM     11  C   UNL     1      46.194   4.322   7.561  0.00  0.00    +0.000 A 
ATOM     12  C   UNL     1      46.796   3.621   6.510  0.00  0.00    +0.000 A 
ATOM     13  C   UNL     1      46.912   2.235   6.573  0.00  0.00    +0.000 A 
ATOM     14  C   UNL     1      46.423   1.559   7.684  0.00  0.00    +0.000 A 
ATOM     15 CL   UNL     1      46.574  -0.153   7.777  0.00  0.00    +0.000 Cl
ATOM     16  C   UNL     1      45.811   2.256   8.728  0.00  0.00    +0.000 A 
ENDBRANCH   8  10
ENDBRANCH   1   4
BRANCH   1  17
ATOM     17  N   UNL     1      47.272   6.572  12.892  0.00  0.00    +0.000 N 
ATOM     18  H   UNL     1      48.102   6.591  12.311  0.00  0.00    +0.000 HD
BRANCH  17  22
ATOM     19  C   UNL     1      47.899   4.461  16.326  0.00  0.00    +0.000 A 
ATOM     20  C   UNL     1      48.564   5.638  16.031  0.00  0.00    +0.000 A 
ATOM     21  N   UNL     1      48.384   6.297  14.865  0.00  0.00    +0.000 NA
ATOM     22  C   UNL     1      47.498   5.769  13.990  0.00  0.00    +0.000 A 
ATOM     23  C   UNL     1      46.857   4.566  14.286  0.00  0.00    +0.000 A 
ATOM     24  N   UNL     1      47.039   3.884  15.452  0.00  0.00    +0.000 NA
BRANCH  19  26
ATOM     25  N   UNL     1      48.235   3.385  18.665  0.00  0.00    +0.000 NA
ATOM     26  C   UNL     1      48.083   3.835  17.597  0.00  0.00    +0.000 C 
ENDBRANCH  19  26
ENDBRANCH  17  22
ENDBRANCH   1  17
TORSDOF 5
ENDMDL
MODEL 4
REMARK VINA RESULT:    -7.349      2.840      3.526
REMARK INTER + INTRA:          -9.701
REMARK INTER:                  -9.345
REMARK INTRA:                  -0.355
REMARK UNBOUND:                -0.203
REMARK  Name = 
REMARK  5 active torsions:
REMARK  status: ('A' for Active; 'I' for Inactive)
REMARK    1  A    between atoms: C_2  and  C_3
REMARK    2  A    between atoms: C_6  and  N_7
REMARK    3  A    between atoms: N_7  and  C_8
REMARK    4  A    between atoms: C_8  and  C_9
REMARK    5  A    between atoms: C_13  and  C_14
REMARK                            x       y       z     vdW  Elec       q    Type
REMARK                         _______ _______ _______ _____ _____    ______ ____
ROOT
ATOM      1  C   UNL     1      43.938   5.178  11.644  0.00  0.00    +0.000 C 
ATOM      2  C   UNL     1      44.329   4.223  12.761  0.00  0.00    +0.000 C 
ATOM      3  C   UNL     1      43.005   4.911  12.803  0.00  0.00    +0.000 C 
ENDROOT
BRANCH   1   4
ATOM      4  C   UNL     1      44.657   6.507  11.516  0.00  0.00    +0.000 A 
ATOM      5  C   UNL     1      43.953   7.689  11.235  0.00  0.00    +0.000 A 
ATOM      6  C   UNL     1      44.538   8.936  11.431  0.00  0.00    +0.000 A 
ATOM      7  C   UNL     1      45.857   9.025  11.881  0.00  0.00    +0.000 A 
ATOM      8  C   UNL     1      46.632   7.875  12.098  0.00  0.00    +0.000 A 
ATOM      9  C   UNL     1      46.007   6.629  11.895  0.00  0.00    +0.000 A 
BRANCH   8  10
ATOM     10  C   UNL     1      48.032   7.954  12.572  0.00  0.00    +0.000 A 
ATOM     11  C   UNL     1      48.447   7.313  13.754  0.00  0.00    +0.000 A 
ATOM     12  C   UNL     1      49.771   7.392  14.202  0.00  0.00    +0.000 A 
ATOM     13  C   UNL     1      50.714   8.104  13.466  0.00  0.00    +0.000 A 
ATOM     14  C   UNL     1      50.329   8.733  12.289  0.00  0.00    +0.000 A 
ATOM     15 CL   UNL     1      51.492   9.604  11.365  0.00  0.00    +0.000 Cl
ATOM     16  C   UNL     1      49.006   8.665  11.847  0.00  0.00    +0.000 A 
ENDBRANCH   8  10
ENDBRANCH   1   4
BRANCH   1  17
ATOM     17  N   UNL     1      43.795   4.537  10.345  0.00  0.00    +0.000 N 
ATOM     18  H   UNL     1      42.878   4.230  10.042  0.00  0.00    +0.000 HD
BRANCH  17  22
ATOM     19  C   UNL     1      46.420   2.699   7.822  0.00  0.00    +0.000 A 
ATOM     20  C   UNL     1      45.654   2.011   8.745  0.00  0.00    +0.000 A 
ATOM     21  N   UNL     1      44.828   2.640   9.610  0.00  0.00    +0.000 NA
ATOM     22  C   UNL     1      44.758   3.988   9.525  0.00  0.00    +0.000 A 
ATOM     23  C   UNL     1      45.559   4.671   8.611  0.00  0.00    +0.000 A 
ATOM     24  N   UNL     1      46.406   4.051   7.741  0.00  0.00    +0.000 NA
BRANCH  19  26
ATOM     25  N   UNL     1      47.953   1.410   6.169  0.00  0.00    +0.000 NA
ATOM     26  C   UNL     1      47.234   1.982   6.891  0.00  0.00    +0.000 C 
ENDBRANCH  19  26
ENDBRANCH  17  22
ENDBRANCH   1  17
TORSDOF 5
ENDMDL
MODEL 5
REMARK VINA RESULT:    -7.260      3.900      7.619
REMARK INTER + INTRA:          -9.585
REMARK INTER:                  -8.912
REMARK INTRA:                  -0.673
REMARK UNBOUND:                -0.203
REMARK  Name = 
REMARK  5 active torsions:
REMARK  status: ('A' for Active; 'I' for Inactive)
REMARK    1  A    between atoms: C_2  and  C_3
REMARK    2  A    between atoms: C_6  and  N_7
REMARK    3  A    between atoms: N_7  and  C_8
REMARK    4  A    between atoms: C_8  and  C_9
REMARK    5  A    between atoms: C_13  and  C_14
REMARK                            x       y       z     vdW  Elec       q    Type
REMARK                         _______ _______ _______ _____ _____    ______ ____
ROOT
ATOM      1  C   UNL     1      45.885   7.416  11.969  0.00  0.00    +0.000 C 
ATOM      2  C   UNL     1      45.437   8.759  11.413  0.00  0.00    +0.000 C 
ATOM      3  C   UNL     1      45.139   8.408  12.832  0.00  0.00    +0.000 C 
ENDROOT
BRANCH   1   4
ATOM      4  C   UNL     1      45.211   6.148  11.483  0.00  0.00    +0.000 A 
ATOM      5  C   UNL     1      43.891   5.841  11.853  0.00  0.00    +0.000 A 
ATOM      6  C   UNL     1      43.163   4.870  11.172  0.00  0.00    +0.000 A 
ATOM      7  C   UNL     1      43.754   4.160  10.125  0.00  0.00    +0.000 A 
ATOM      8  C   UNL     1      45.096   4.369   9.770  0.00  0.00    +0.000 A 
ATOM      9  C   UNL     1      45.803   5.363  10.477  0.00  0.00    +0.000 A 
BRANCH   8  10
ATOM     10  C   UNL     1      45.739   3.622   8.666  0.00  0.00    +0.000 A 
ATOM     11  C   UNL     1      46.275   4.281   7.544  0.00  0.00    +0.000 A 
ATOM     12  C   UNL     1      46.879   3.572   6.498  0.00  0.00    +0.000 A 
ATOM     13  C   UNL     1      46.972   2.184   6.561  0.00  0.00    +0.000 A 
ATOM     14  C   UNL     1      46.461   1.514   7.666  0.00  0.00    +0.000 A 
ATOM     15 CL   UNL     1      46.585  -0.200   7.759  0.00  0.00    +0.000 Cl
ATOM     16  C   UNL     1      45.848   2.219   8.704  0.00  0.00    +0.000 A 
ENDBRANCH   8  10
ENDBRANCH   1   4
BRANCH   1  17
ATOM     17  N   UNL     1      47.330   7.251  12.016  0.00  0.00    +0.000 N 
ATOM     18  H   UNL     1      47.813   6.872  11.209  0.00  0.00    +0.000 HD
BRANCH  17  22
ATOM     19  C   UNL     1      49.806   6.927  15.241  0.00  0.00    +0.000 A 
ATOM     20  C   UNL     1      48.540   6.373  15.204  0.00  0.00    +0.000 A 
ATOM     21  N   UNL     1      47.711   6.535  14.149  0.00  0.00    +0.000 NA
ATOM     22  C   UNL     1      48.181   7.250  13.102  0.00  0.00    +0.000 A 
ATOM     23  C   UNL     1      49.448   7.830  13.165  0.00  0.00    +0.000 A 
ATOM     24  N   UNL     1      50.288   7.686  14.228  0.00  0.00    +0.000 NA
BRANCH  19  26
ATOM     25  N   UNL     1      51.412   6.452  17.226  0.00  0.00    +0.000 NA
ATOM     26  C   UNL     1      50.664   6.678  16.357  0.00  0.00    +0.000 C 
ENDBRANCH  19  26
ENDBRANCH  17  22
ENDBRANCH   1  17
TORSDOF 5
ENDMDL
MODEL 6
REMARK VINA RESULT:    -7.229      4.311      8.012
REMARK INTER + INTRA:          -9.545
REMARK INTER:                  -8.667
REMARK INTRA:                  -0.877
REMARK UNBOUND:                -0.203
REMARK  Name = 
REMARK  5 active torsions:
REMARK  status: ('A' for Active; 'I' for Inactive)
REMARK    1  A    between atoms: C_2  and  C_3
REMARK    2  A    between atoms: C_6  and  N_7
REMARK    3  A    between atoms: N_7  and  C_8
REMARK    4  A    between atoms: C_8  and  C_9
REMARK    5  A    between atoms: C_13  and  C_14
REMARK                            x       y       z     vdW  Elec       q    Type
REMARK                         _______ _______ _______ _____ _____    ______ ____
ROOT
ATOM      1  C   UNL     1      48.558   7.892  12.719  0.00  0.00    +0.000 C 
ATOM      2  C   UNL     1      49.497   8.267  11.583  0.00  0.00    +0.000 C 
ATOM      3  C   UNL     1      49.104   9.295  12.592  0.00  0.00    +0.000 C 
ENDROOT
BRANCH   1   4
ATOM      4  C   UNL     1      47.102   7.594  12.412  0.00  0.00    +0.000 A 
ATOM      5  C   UNL     1      46.118   8.587  12.534  0.00  0.00    +0.000 A 
ATOM      6  C   UNL     1      44.860   8.426  11.960  0.00  0.00    +0.000 A 
ATOM      7  C   UNL     1      44.551   7.248  11.277  0.00  0.00    +0.000 A 
ATOM      8  C   UNL     1      45.471   6.191  11.195  0.00  0.00    +0.000 A 
ATOM      9  C   UNL     1      46.735   6.390  11.784  0.00  0.00    +0.000 A 
BRANCH   8  10
ATOM     10  C   UNL     1      45.156   4.934  10.478  0.00  0.00    +0.000 A 
ATOM     11  C   UNL     1      44.334   3.945  11.051  0.00  0.00    +0.000 A 
ATOM     12  C   UNL     1      44.041   2.756  10.373  0.00  0.00    +0.000 A 
ATOM     13  C   UNL     1      44.553   2.538   9.098  0.00  0.00    +0.000 A 
ATOM     14  C   UNL     1      45.356   3.507   8.508  0.00  0.00    +0.000 A 
ATOM     15 CL   UNL     1      45.982   3.251   6.925  0.00  0.00    +0.000 Cl
ATOM     16  C   UNL     1      45.659   4.688   9.188  0.00  0.00    +0.000 A 
ENDBRANCH   8  10
ENDBRANCH   1   4
BRANCH   1  17
ATOM     17  N   UNL     1      49.108   6.904  13.635  0.00  0.00    +0.000 N 
ATOM     18  H   UNL     1      49.578   6.088  13.261  0.00  0.00    +0.000 HD
BRANCH  17  22
ATOM     19  C   UNL     1      48.504   6.052  17.578  0.00  0.00    +0.000 A 
ATOM     20  C   UNL     1      48.137   5.195  16.557  0.00  0.00    +0.000 A 
ATOM     21  N   UNL     1      48.296   5.515  15.253  0.00  0.00    +0.000 NA
ATOM     22  C   UNL     1      48.857   6.715  14.978  0.00  0.00    +0.000 A 
ATOM     23  C   UNL     1      49.193   7.582  16.017  0.00  0.00    +0.000 A 
ATOM     24  N   UNL     1      49.027   7.277  17.335  0.00  0.00    +0.000 NA
BRANCH  19  26
ATOM     25  N   UNL     1      48.303   5.255  20.042  0.00  0.00    +0.000 NA
ATOM     26  C   UNL     1      48.368   5.640  18.940  0.00  0.00    +0.000 C 
ENDBRANCH  19  26
ENDBRANCH  17  22
ENDBRANCH   1  17
TORSDOF 5
ENDMDL
MODEL 7
REMARK VINA RESULT:    -6.874      3.804      7.126
REMARK INTER + INTRA:          -9.086
REMARK INTER:                  -8.443
REMARK INTRA:                  -0.643
REMARK UNBOUND:                -0.203
REMARK  Name = 
REMARK  5 active torsions:
REMARK  status: ('A' for Active; 'I' for Inactive)
REMARK    1  A    between atoms: C_2  and  C_3
REMARK    2  A    between atoms: C_6  and  N_7
REMARK    3  A    between atoms: N_7  and  C_8
REMARK    4  A    between atoms: C_8  and  C_9
REMARK    5  A    between atoms: C_13  and  C_14
REMARK                            x       y       z     vdW  Elec       q    Type
REMARK                         _______ _______ _______ _____ _____    ______ ____
ROOT
ATOM      1  C   UNL     1      46.177   5.031  13.453  0.00  0.00    +0.000 C 
ATOM      2  C   UNL     1      45.958   4.357  14.799  0.00  0.00    +0.000 C 
ATOM      3  C   UNL     1      47.161   4.014  13.984  0.00  0.00    +0.000 C 
ENDROOT
BRANCH   1   4
ATOM      4  C   UNL     1      45.259   4.691  12.295  0.00  0.00    +0.000 A 
ATOM      5  C   UNL     1      43.965   5.229  12.213  0.00  0.00    +0.000 A 
ATOM      6  C   UNL     1      43.244   5.188  11.022  0.00  0.00    +0.000 A 
ATOM      7  C   UNL     1      43.794   4.574   9.895  0.00  0.00    +0.000 A 
ATOM      8  C   UNL     1      45.050   3.948   9.946  0.00  0.00    +0.000 A 
ATOM      9  C   UNL     1      45.753   4.013  11.165  0.00  0.00    +0.000 A 
BRANCH   8  10
ATOM     10  C   UNL     1      45.644   3.290   8.761  0.00  0.00    +0.000 A 
ATOM     11  C   UNL     1      46.043   4.028   7.631  0.00  0.00    +0.000 A 
ATOM     12  C   UNL     1      46.600   3.404   6.509  0.00  0.00    +0.000 A 
ATOM     13  C   UNL     1      46.786   2.024   6.500  0.00  0.00    +0.000 A 
ATOM     14  C   UNL     1      46.412   1.277   7.611  0.00  0.00    +0.000 A 
ATOM     15 CL   UNL     1      46.650  -0.427   7.615  0.00  0.00    +0.000 Cl
ATOM     16  C   UNL     1      45.844   1.898   8.726  0.00  0.00    +0.000 A 
ENDBRANCH   8  10
ENDBRANCH   1   4
BRANCH   1  17
ATOM     17  N   UNL     1      46.391   6.467  13.542  0.00  0.00    +0.000 N 
ATOM     18  H   UNL     1      45.614   7.070  13.787  0.00  0.00    +0.000 HD
BRANCH  17  22
ATOM     19  C   UNL     1      49.600   8.458  12.000  0.00  0.00    +0.000 A 
ATOM     20  C   UNL     1      49.721   7.329  12.789  0.00  0.00    +0.000 A 
ATOM     21  N   UNL     1      48.650   6.712  13.336  0.00  0.00    +0.000 NA
ATOM     22  C   UNL     1      47.433   7.232  13.062  0.00  0.00    +0.000 A 
ATOM     23  C   UNL     1      47.327   8.389  12.291  0.00  0.00    +0.000 A 
ATOM     24  N   UNL     1      48.399   9.030  11.743  0.00  0.00    +0.000 NA
BRANCH  19  26
ATOM     25  N   UNL     1      51.668   9.530  10.854  0.00  0.00    +0.000 NA
ATOM     26  C   UNL     1      50.759   9.039  11.399  0.00  0.00    +0.000 C 
ENDBRANCH  19  26
ENDBRANCH  17  22
ENDBRANCH   1  17
TORSDOF 5
ENDMDL
MODEL 8
REMARK VINA RESULT:    -6.784      5.158      8.136
REMARK INTER + INTRA:          -8.970
REMARK INTER:                  -8.377
REMARK INTRA:                  -0.593
REMARK UNBOUND:                -0.203
REMARK  Name = 
REMARK  5 active torsions:
REMARK  status: ('A' for Active; 'I' for Inactive)
REMARK    1  A    between atoms: C_2  and  C_3
REMARK    2  A    between atoms: C_6  and  N_7
REMARK    3  A    between atoms: N_7  and  C_8
REMARK    4  A    between atoms: C_8  and  C_9
REMARK    5  A    between atoms: C_13  and  C_14
REMARK                            x       y       z     vdW  Elec       q    Type
REMARK                         _______ _______ _______ _____ _____    ______ ____
ROOT
ATOM      1  C   UNL     1      48.497   4.505  17.281  0.00  0.00    +0.000 C 
ATOM      2  C   UNL     1      47.515   4.582  18.439  0.00  0.00    +0.000 C 
ATOM      3  C   UNL     1      47.492   3.403  17.524  0.00  0.00    +0.000 C 
ENDROOT
BRANCH   1   4
ATOM      4  C   UNL     1      48.340   5.454  16.108  0.00  0.00    +0.000 A 
ATOM      5  C   UNL     1      49.260   6.491  15.886  0.00  0.00    +0.000 A 
ATOM      6  C   UNL     1      49.313   7.154  14.663  0.00  0.00    +0.000 A 
ATOM      7  C   UNL     1      48.420   6.813  13.646  0.00  0.00    +0.000 A 
ATOM      8  C   UNL     1      47.427   5.840  13.844  0.00  0.00    +0.000 A 
ATOM      9  C   UNL     1      47.405   5.187  15.092  0.00  0.00    +0.000 A 
BRANCH   8  10
ATOM     10  C   UNL     1      46.470   5.471  12.776  0.00  0.00    +0.000 A 
ATOM     11  C   UNL     1      46.452   6.142  11.539  0.00  0.00    +0.000 A 
ATOM     12  C   UNL     1      45.544   5.794  10.532  0.00  0.00    +0.000 A 
ATOM     13  C   UNL     1      44.643   4.754  10.736  0.00  0.00    +0.000 A 
ATOM     14  C   UNL     1      44.652   4.068  11.945  0.00  0.00    +0.000 A 
ATOM     15 CL   UNL     1      43.551   2.771  12.201  0.00  0.00    +0.000 Cl
ATOM     16  C   UNL     1      45.550   4.422  12.955  0.00  0.00    +0.000 A 
ENDBRANCH   8  10
ENDBRANCH   1   4
BRANCH   1  17
ATOM     17  N   UNL     1      49.890   4.417  17.695  0.00  0.00    +0.000 N 
ATOM     18  H   UNL     1      50.406   5.269  17.882  0.00  0.00    +0.000 HD
BRANCH  17  22
ATOM     19  C   UNL     1      52.568   1.341  17.745  0.00  0.00    +0.000 A 
ATOM     20  C   UNL     1      52.883   2.622  18.161  0.00  0.00    +0.000 A 
ATOM     21  N   UNL     1      51.999   3.642  18.088  0.00  0.00    +0.000 NA
ATOM     22  C   UNL     1      50.768   3.357  17.607  0.00  0.00    +0.000 A 
ATOM     23  C   UNL     1      50.474   2.069  17.162  0.00  0.00    +0.000 A 
ATOM     24  N   UNL     1      51.359   1.034  17.218  0.00  0.00    +0.000 NA
BRANCH  19  26
ATOM     25  N   UNL     1      54.300  -0.563  18.088  0.00  0.00    +0.000 NA
ATOM     26  C   UNL     1      53.520   0.286  17.897  0.00  0.00    +0.000 C 
ENDBRANCH  19  26
ENDBRANCH  17  22
ENDBRANCH   1  17
TORSDOF 5
ENDMDL
MODEL 9
REMARK VINA RESULT:    -6.667      3.137      4.960
REMARK INTER + INTRA:          -8.819
REMARK INTER:                  -8.172
REMARK INTRA:                  -0.647
REMARK UNBOUND:                -0.203
REMARK  Name = 
REMARK  5 active torsions:
REMARK  status: ('A' for Active; 'I' for Inactive)
REMARK    1  A    between atoms: C_2  and  C_3
REMARK    2  A    between atoms: C_6  and  N_7
REMARK    3  A    between atoms: N_7  and  C_8
REMARK    4  A    between atoms: C_8  and  C_9
REMARK    5  A    between atoms: C_13  and  C_14
REMARK                            x       y       z     vdW  Elec       q    Type
REMARK                         _______ _______ _______ _____ _____    ______ ____
ROOT
ATOM      1  C   UNL     1      47.555   8.255  13.201  0.00  0.00    +0.000 C 
ATOM      2  C   UNL     1      47.805   9.527  12.405  0.00  0.00    +0.000 C 
ATOM      3  C   UNL     1      48.378   8.232  11.933  0.00  0.00    +0.000 C 
ENDROOT
BRANCH   1   4
ATOM      4  C   UNL     1      48.214   8.086  14.557  0.00  0.00    +0.000 A 
ATOM      5  C   UNL     1      48.229   9.134  15.491  0.00  0.00    +0.000 A 
ATOM      6  C   UNL     1      48.535   8.900  16.828  0.00  0.00    +0.000 A 
ATOM      7  C   UNL     1      48.867   7.611  17.252  0.00  0.00    +0.000 A 
ATOM      8  C   UNL     1      48.948   6.544  16.343  0.00  0.00    +0.000 A 
ATOM      9  C   UNL     1      48.627   6.816  14.999  0.00  0.00    +0.000 A 
BRANCH   8  10
ATOM     10  C   UNL     1      49.303   5.173  16.777  0.00  0.00    +0.000 A 
ATOM     11  C   UNL     1      48.387   4.109  16.678  0.00  0.00    +0.000 A 
ATOM     12  C   UNL     1      48.723   2.815  17.092  0.00  0.00    +0.000 A 
ATOM     13  C   UNL     1      49.991   2.554  17.601  0.00  0.00    +0.000 A 
ATOM     14  C   UNL     1      50.916   3.587  17.695  0.00  0.00    +0.000 A 
ATOM     15 CL   UNL     1      52.492   3.270  18.309  0.00  0.00    +0.000 Cl
ATOM     16  C   UNL     1      50.579   4.881  17.293  0.00  0.00    +0.000 A 
ENDBRANCH   8  10
ENDBRANCH   1   4
BRANCH   1  17
ATOM     17  N   UNL     1      46.157   7.856  13.250  0.00  0.00    +0.000 N 
ATOM     18  H   UNL     1      45.533   8.312  13.906  0.00  0.00    +0.000 HD
BRANCH  17  22
ATOM     19  C   UNL     1      44.255   4.449  12.061  0.00  0.00    +0.000 A 
ATOM     20  C   UNL     1      45.155   4.483  13.111  0.00  0.00    +0.000 A 
ATOM     21  N   UNL     1      45.817   5.609  13.458  0.00  0.00    +0.000 NA
ATOM     22  C   UNL     1      45.547   6.727  12.746  0.00  0.00    +0.000 A 
ATOM     23  C   UNL     1      44.661   6.671  11.670  0.00  0.00    +0.000 A 
ATOM     24  N   UNL     1      43.996   5.540  11.301  0.00  0.00    +0.000 NA
BRANCH  19  26
ATOM     25  N   UNL     1      42.996   2.252  11.484  0.00  0.00    +0.000 NA
ATOM     26  C   UNL     1      43.539   3.246  11.772  0.00  0.00    +0.000 C 
ENDBRANCH  19  26
ENDBRANCH  17  22
ENDBRANCH   1  17
TORSDOF 5
ENDMDL
