MODEL 1
REMARK VINA RESULT:    -7.907      0.000      0.000
REMARK INTER + INTRA:          -9.573
REMARK INTER:                  -9.756
REMARK INTRA:                   0.182
REMARK UNBOUND:                 0.182
REMARK  Name = 
REMARK  4 active torsions:
REMARK  status: ('A' for Active; 'I' for Inactive)
REMARK    1  A    between atoms: C_2  and  C_3
REMARK    2  A    between atoms: C_6  and  C_7
REMARK    3  A    between atoms: C_7  and  N_8
REMARK    4  A    between atoms: C_12  and  C_13
REMARK                            x       y       z     vdW  Elec       q    Type
REMARK                         _______ _______ _______ _____ _____    ______ ____
ROOT
ATOM      1  N   UNL     1      44.029   3.529  10.775  0.00  0.00    +0.000 N 
ATOM      2  C   UNL     1      44.843   3.411   9.645  0.00  0.00    +0.000 A 
ATOM      3  C   UNL     1      45.145   4.453   8.760  0.00  0.00    +0.000 A 
ATOM      4  N   UNL     1      45.917   4.310   7.642  0.00  0.00    +0.000 NA
ATOM      5  C   UNL     1      46.385   3.049   7.442  0.00  0.00    +0.000 A 
ATOM      6  C   UNL     1      46.103   2.010   8.313  0.00  0.00    +0.000 A 
ATOM      7  N   UNL     1      45.329   2.170   9.420  0.00  0.00    +0.000 NA
ATOM      8  H   UNL     1      44.069   2.643  11.273  0.00  0.00    +0.000 HD
ENDROOT
BRANCH   5   9
ATOM      9  C   UNL     1      47.215   2.785   6.235  0.00  0.00    +0.000 C 
ATOM     10  N   UNL     1      48.512   2.410   6.459  0.00  0.00    +0.000 N 
ATOM     11  O   UNL     1      46.769   2.904   5.100  0.00  0.00    +0.000 OA
ATOM     12  H   UNL     1      48.868   2.333   7.405  0.00  0.00    +0.000 HD
ATOM     13  H   UNL     1      49.119   2.243   5.670  0.00  0.00    +0.000 HD
ENDBRANCH   5   9
BRANCH   1  14
ATOM     14  C   UNL     1      43.901   4.778  11.544  0.00  0.00    +0.000 C 
ATOM     15  C   UNL     1      42.907   5.831  11.065  0.00  0.00    +0.000 C 
ATOM     16  C   UNL     1      42.610   5.044  12.299  0.00  0.00    +0.000 C 
BRANCH  14  20
ATOM     17  C   UNL     1      47.587   6.222  13.238  0.00  0.00    +0.000 A 
ATOM     18  C   UNL     1      47.116   6.802  12.065  0.00  0.00    +0.000 A 
ATOM     19  C   UNL     1      45.925   6.336  11.505  0.00  0.00    +0.000 A 
ATOM     20  C   UNL     1      45.217   5.303  12.130  0.00  0.00    +0.000 A 
ATOM     21  N   UNL     1      45.683   4.737  13.276  0.00  0.00    +0.000 NA
ATOM     22  C   UNL     1      46.843   5.198  13.798  0.00  0.00    +0.000 A 
BRANCH  17  24
ATOM     23  N   UNL     1      49.769   7.026  14.371  0.00  0.00    +0.000 NA
ATOM     24  C   UNL     1      48.792   6.662  13.859  0.00  0.00    +0.000 C 
ENDBRANCH  17  24
ENDBRANCH  14  20
ENDBRANCH   1  14
TORSDOF 4
ENDMDL
MODEL 2
REMARK VINA RESULT:    -7.664      2.908      6.592
REMARK INTER + INTRA:          -9.274
REMARK INTER:                  -9.005
REMARK INTRA:                  -0.269
REMARK UNBOUND:                 0.182
REMARK  Name = 
REMARK  4 active torsions:
REMARK  status: ('A' for Active; 'I' for Inactive)
REMARK    1  A    between atoms: C_2  and  C_3
REMARK    2  A    between atoms: C_6  and  C_7
REMARK    3  A    between atoms: C_7  and  N_8
REMARK    4  A    between atoms: C_12  and  C_13
REMARK                            x       y       z     vdW  Elec       q    Type
REMARK                         _______ _______ _______ _____ _____    ______ ____
ROOT
ATOM      1  N   UNL     1      45.483   3.070  12.524  0.00  0.00    +0.000 N 
ATOM      2  C   UNL     1      46.250   4.045  13.168  0.00  0.00    +0.000 A 
ATOM      3  C   UNL     1      46.676   5.246  12.587  0.00  0.00    +0.000 A 
ATOM      4  N   UNL     1      47.454   6.171  13.223  0.00  0.00    +0.000 NA
ATOM      5  C   UNL     1      47.795   5.837  14.496  0.00  0.00    +0.000 A 
ATOM      6  C   UNL     1      47.374   4.658  15.087  0.00  0.00    +0.000 A 
ATOM      7  N   UNL     1      46.604   3.745  14.438  0.00  0.00    +0.000 NA
ATOM      8  H   UNL     1      45.247   2.362  13.215  0.00  0.00    +0.000 HD
ENDROOT
BRANCH   5   9
ATOM      9  C   UNL     1      48.664   6.770  15.264  0.00  0.00    +0.000 C 
ATOM     10  N   UNL     1      48.126   7.990  15.569  0.00  0.00    +0.000 N 
ATOM     11  O   UNL     1      49.803   6.470  15.600  0.00  0.00    +0.000 OA
ATOM     12  H   UNL     1      47.188   8.227  15.268  0.00  0.00    +0.000 HD
ATOM     13  H   UNL     1      48.687   8.665  16.069  0.00  0.00    +0.000 HD
ENDBRANCH   5   9
BRANCH   1  14
ATOM     14  C   UNL     1      44.513   3.386  11.462  0.00  0.00    +0.000 C 
ATOM     15  C   UNL     1      43.067   2.931  11.636  0.00  0.00    +0.000 C 
ATOM     16  C   UNL     1      43.404   4.381  11.757  0.00  0.00    +0.000 C 
BRANCH  14  20
ATOM     17  C   UNL     1      46.122   3.137   7.475  0.00  0.00    +0.000 A 
ATOM     18  C   UNL     1      45.853   4.391   8.013  0.00  0.00    +0.000 A 
ATOM     19  C   UNL     1      45.325   4.482   9.303  0.00  0.00    +0.000 A 
ATOM     20  C   UNL     1      45.081   3.317  10.040  0.00  0.00    +0.000 A 
ATOM     21  N   UNL     1      45.343   2.093   9.509  0.00  0.00    +0.000 NA
ATOM     22  C   UNL     1      45.847   2.027   8.255  0.00  0.00    +0.000 A 
BRANCH  17  24
ATOM     23  N   UNL     1      47.120   2.864   5.105  0.00  0.00    +0.000 NA
ATOM     24  C   UNL     1      46.667   2.984   6.169  0.00  0.00    +0.000 C 
ENDBRANCH  17  24
ENDBRANCH  14  20
ENDBRANCH   1  14
TORSDOF 4
ENDMDL
MODEL 3
REMARK VINA RESULT:    -6.115      4.444      6.807
REMARK INTER + INTRA:          -7.363
REMARK INTER:                  -7.257
REMARK INTRA:                  -0.105
REMARK UNBOUND:                 0.182
REMARK  Name = 
REMARK  4 active torsions:
REMARK  status: ('A' for Active; 'I' for Inactive)
REMARK    1  A    between atoms: C_2  and  C_3
REMARK    2  A    between atoms: C_6  and  C_7
REMARK    3  A    between atoms: C_7  and  N_8
REMARK    4  A    between atoms: C_12  and  C_13
REMARK                            x       y       z     vdW  Elec       q    Type
REMARK                         _______ _______ _______ _____ _____    ______ ____
ROOT
ATOM      1  N   UNL     1      48.378   5.823  15.696  0.00  0.00    +0.000 N 
ATOM      2  C   UNL     1      47.513   5.382  14.691  0.00  0.00    +0.000 A 
ATOM      3  C   UNL     1      47.041   4.071  14.553  0.00  0.00    +0.000 A 
ATOM      4  N   UNL     1      46.222   3.653  13.543  0.00  0.00    +0.000 NA
ATOM      5  C   UNL     1      45.887   4.625  12.654  0.00  0.00    +0.000 A 
ATOM      6  C   UNL     1      46.339   5.928  12.781  0.00  0.00    +0.000 A 
ATOM      7  N   UNL     1      47.158   6.326  13.790  0.00  0.00    +0.000 NA
ATOM      8  H   UNL     1      48.469   6.831  15.600  0.00  0.00    +0.000 HD
ENDROOT
BRANCH   5   9
ATOM      9  C   UNL     1      45.020   4.262  11.501  0.00  0.00    +0.000 C 
ATOM     10  N   UNL     1      45.008   2.942  11.140  0.00  0.00    +0.000 N 
ATOM     11  O   UNL     1      44.356   5.096  10.897  0.00  0.00    +0.000 OA
ATOM     12  H   UNL     1      45.577   2.269  11.641  0.00  0.00    +0.000 HD
ATOM     13  H   UNL     1      44.452   2.652  10.349  0.00  0.00    +0.000 HD
ENDBRANCH   5   9
BRANCH   1  14
ATOM     14  C   UNL     1      48.412   5.225  17.042  0.00  0.00    +0.000 C 
ATOM     15  C   UNL     1      48.071   6.107  18.239  0.00  0.00    +0.000 C 
ATOM     16  C   UNL     1      47.106   5.055  17.800  0.00  0.00    +0.000 C 
BRANCH  14  20
ATOM     17  C   UNL     1      51.498   2.280  17.627  0.00  0.00    +0.000 A 
ATOM     18  C   UNL     1      51.788   3.615  17.886  0.00  0.00    +0.000 A 
ATOM     19  C   UNL     1      50.795   4.578  17.693  0.00  0.00    +0.000 A 
ATOM     20  C   UNL     1      49.524   4.192  17.252  0.00  0.00    +0.000 A 
ATOM     21  N   UNL     1      49.246   2.885  16.998  0.00  0.00    +0.000 NA
ATOM     22  C   UNL     1      50.224   1.968  17.183  0.00  0.00    +0.000 A 
BRANCH  17  24
ATOM     23  N   UNL     1      53.257   0.416  17.974  0.00  0.00    +0.000 NA
ATOM     24  C   UNL     1      52.468   1.253  17.813  0.00  0.00    +0.000 C 
ENDBRANCH  17  24
ENDBRANCH  14  20
ENDBRANCH   1  14
TORSDOF 4
ENDMDL
MODEL 4
REMARK VINA RESULT:    -5.936      4.786      7.143
REMARK INTER + INTRA:          -7.142
REMARK INTER:                  -6.955
REMARK INTRA:                  -0.187
REMARK UNBOUND:                 0.182
REMARK  Name = 
REMARK  4 active torsions:
REMARK  status: ('A' for Active; 'I' for Inactive)
REMARK    1  A    between atoms: C_2  and  C_3
REMARK    2  A    between atoms: C_6  and  C_7
REMARK    3  A    between atoms: C_7  and  N_8
REMARK    4  A    between atoms: C_12  and  C_13
REMARK                            x       y       z     vdW  Elec       q    Type
REMARK                         _______ _______ _______ _____ _____    ______ ____
ROOT
ATOM      1  N   UNL     1      47.019   3.760  13.556  0.00  0.00    +0.000 N 
ATOM      2  C   UNL     1      47.381   3.865  14.902  0.00  0.00    +0.000 A 
ATOM      3  C   UNL     1      47.271   5.027  15.676  0.00  0.00    +0.000 A 
ATOM      4  N   UNL     1      47.663   5.119  16.981  0.00  0.00    +0.000 NA
ATOM      5  C   UNL     1      48.182   3.971  17.493  0.00  0.00    +0.000 A 
ATOM      6  C   UNL     1      48.290   2.812  16.743  0.00  0.00    +0.000 A 
ATOM      7  N   UNL     1      47.900   2.740  15.442  0.00  0.00    +0.000 NA
ATOM      8  H   UNL     1      47.119   2.784  13.289  0.00  0.00    +0.000 HD
ENDROOT
BRANCH   5   9
ATOM      9  C   UNL     1      48.662   3.977  18.901  0.00  0.00    +0.000 C 
ATOM     10  N   UNL     1      48.315   2.897  19.667  0.00  0.00    +0.000 N 
ATOM     11  O   UNL     1      49.326   4.900  19.359  0.00  0.00    +0.000 OA
ATOM     12  H   UNL     1      47.752   2.151  19.276  0.00  0.00    +0.000 HD
ATOM     13  H   UNL     1      48.599   2.868  20.635  0.00  0.00    +0.000 HD
ENDBRANCH   5   9
BRANCH   1  14
ATOM     14  C   UNL     1      45.941   4.561  12.952  0.00  0.00    +0.000 C 
ATOM     15  C   UNL     1      45.049   3.909  11.902  0.00  0.00    +0.000 C 
ATOM     16  C   UNL     1      44.499   4.198  13.260  0.00  0.00    +0.000 C 
BRANCH  14  20
ATOM     17  C   UNL     1      46.882   8.714  12.310  0.00  0.00    +0.000 A 
ATOM     18  C   UNL     1      47.878   7.763  12.114  0.00  0.00    +0.000 A 
ATOM     19  C   UNL     1      47.584   6.415  12.326  0.00  0.00    +0.000 A 
ATOM     20  C   UNL     1      46.296   6.035  12.723  0.00  0.00    +0.000 A 
ATOM     21  N   UNL     1      45.326   6.969  12.915  0.00  0.00    +0.000 NA
ATOM     22  C   UNL     1      45.634   8.271  12.712  0.00  0.00    +0.000 A 
BRANCH  17  24
ATOM     23  N   UNL     1      47.318  11.234  11.923  0.00  0.00    +0.000 NA
ATOM     24  C   UNL     1      47.122  10.103  12.102  0.00  0.00    +0.000 C 
ENDBRANCH  17  24
ENDBRANCH  14  20
ENDBRANCH   1  14
TORSDOF 4
ENDMDL
MODEL 5
REMARK VINA RESULT:    -5.766      6.192      9.187
REMARK INTER + INTRA:          -6.932
REMARK INTER:                  -6.959
REMARK INTRA:                   0.026
REMARK UNBOUND:                 0.182
REMARK  Name = 
REMARK  4 active torsions:
REMARK  status: ('A' for Active; 'I' for Inactive)
REMARK    1  A    between atoms: C_2  and  C_3
REMARK    2  A    between atoms: C_6  and  C_7
REMARK    3  A    between atoms: C_7  and  N_8
REMARK    4  A    between atoms: C_12  and  C_13
REMARK                            x       y       z     vdW  Elec       q    Type
REMARK                         _______ _______ _______ _____ _____    ______ ____
ROOT
ATOM      1  N   UNL     1      49.315   2.048  16.545  0.00  0.00    +0.000 N 
ATOM      2  C   UNL     1      50.577   2.120  17.142  0.00  0.00    +0.000 A 
ATOM      3  C   UNL     1      51.208   3.301  17.549  0.00  0.00    +0.000 A 
ATOM      4  N   UNL     1      52.457   3.353  18.100  0.00  0.00    +0.000 NA
ATOM      5  C   UNL     1      53.062   2.143  18.231  0.00  0.00    +0.000 A 
ATOM      6  C   UNL     1      52.447   0.964  17.841  0.00  0.00    +0.000 A 
ATOM      7  N   UNL     1      51.205   0.932  17.289  0.00  0.00    +0.000 NA
ATOM      8  H   UNL     1      49.078   1.064  16.449  0.00  0.00    +0.000 HD
ENDROOT
BRANCH   5   9
ATOM      9  C   UNL     1      54.437   2.096  18.797  0.00  0.00    +0.000 C 
ATOM     10  N   UNL     1      54.698   1.082  19.679  0.00  0.00    +0.000 N 
ATOM     11  O   UNL     1      55.292   2.923  18.502  0.00  0.00    +0.000 OA
ATOM     12  H   UNL     1      53.974   0.417  19.924  0.00  0.00    +0.000 HD
ATOM     13  H   UNL     1      55.611   1.024  20.107  0.00  0.00    +0.000 HD
ENDBRANCH   5   9
BRANCH   1  14
ATOM     14  C   UNL     1      48.243   3.019  16.820  0.00  0.00    +0.000 C 
ATOM     15  C   UNL     1      47.145   2.634  17.806  0.00  0.00    +0.000 C 
ATOM     16  C   UNL     1      48.165   3.652  18.198  0.00  0.00    +0.000 C 
BRANCH  14  20
ATOM     17  C   UNL     1      47.011   5.294  13.377  0.00  0.00    +0.000 A 
ATOM     18  C   UNL     1      47.544   5.968  14.470  0.00  0.00    +0.000 A 
ATOM     19  C   UNL     1      47.940   5.240  15.594  0.00  0.00    +0.000 A 
ATOM     20  C   UNL     1      47.806   3.846  15.605  0.00  0.00    +0.000 A 
ATOM     21  N   UNL     1      47.282   3.191  14.534  0.00  0.00    +0.000 NA
ATOM     22  C   UNL     1      46.897   3.917  13.459  0.00  0.00    +0.000 A 
BRANCH  17  24
ATOM     23  N   UNL     1      46.262   6.538  11.236  0.00  0.00    +0.000 NA
ATOM     24  C   UNL     1      46.598   5.983  12.201  0.00  0.00    +0.000 C 
ENDBRANCH  17  24
ENDBRANCH  14  20
ENDBRANCH   1  14
TORSDOF 4
ENDMDL
MODEL 6
REMARK VINA RESULT:    -5.750      1.573      2.144
REMARK INTER + INTRA:          -6.912
REMARK INTER:                  -6.553
REMARK INTRA:                  -0.359
REMARK UNBOUND:                 0.182
REMARK  Name = 
REMARK  4 active torsions:
REMARK  status: ('A' for Active; 'I' for Inactive)
REMARK    1  A    between atoms: C_2  and  C_3
REMARK    2  A    between atoms: C_6  and  C_7
REMARK    3  A    between atoms: C_7  and  N_8
REMARK    4  A    between atoms: C_12  and  C_13
REMARK                            x       y       z     vdW  Elec       q    Type
REMARK                         _______ _______ _______ _____ _____    ______ ____
ROOT
ATOM      1  N   UNL     1      45.123   5.526   9.721  0.00  0.00    +0.000 N 
ATOM      2  C   UNL     1      45.493   4.330   9.100  0.00  0.00    +0.000 A 
ATOM      3  C   UNL     1      45.819   3.143   9.768  0.00  0.00    +0.000 A 
ATOM      4  N   UNL     1      46.211   1.994   9.142  0.00  0.00    +0.000 NA
ATOM      5  C   UNL     1      46.265   2.084   7.787  0.00  0.00    +0.000 A 
ATOM      6  C   UNL     1      45.938   3.248   7.111  0.00  0.00    +0.000 A 
ATOM      7  N   UNL     1      45.554   4.385   7.750  0.00  0.00    +0.000 NA
ATOM      8  H   UNL     1      44.855   6.179   8.990  0.00  0.00    +0.000 HD
ENDROOT
BRANCH   5   9
ATOM      9  C   UNL     1      46.708   0.891   7.015  0.00  0.00    +0.000 C 
ATOM     10  N   UNL     1      46.667  -0.308   7.673  0.00  0.00    +0.000 N 
ATOM     11  O   UNL     1      47.096   0.973   5.856  0.00  0.00    +0.000 OA
ATOM     12  H   UNL     1      46.359  -0.354   8.637  0.00  0.00    +0.000 HD
ATOM     13  H   UNL     1      46.980  -1.142   7.197  0.00  0.00    +0.000 HD
ENDBRANCH   5   9
BRANCH   1  14
ATOM     14  C   UNL     1      44.422   5.571  11.016  0.00  0.00    +0.000 C 
ATOM     15  C   UNL     1      43.218   6.496  11.161  0.00  0.00    +0.000 C 
ATOM     16  C   UNL     1      43.011   5.018  11.104  0.00  0.00    +0.000 C 
BRANCH  14  20
ATOM     17  C   UNL     1      47.032   5.266  14.428  0.00  0.00    +0.000 A 
ATOM     18  C   UNL     1      45.969   4.377  14.315  0.00  0.00    +0.000 A 
ATOM     19  C   UNL     1      45.114   4.472  13.216  0.00  0.00    +0.000 A 
ATOM     20  C   UNL     1      45.338   5.450  12.240  0.00  0.00    +0.000 A 
ATOM     21  N   UNL     1      46.378   6.320  12.356  0.00  0.00    +0.000 NA
ATOM     22  C   UNL     1      47.190   6.215  13.433  0.00  0.00    +0.000 A 
BRANCH  17  24
ATOM     23  N   UNL     1      48.675   5.170  16.423  0.00  0.00    +0.000 NA
ATOM     24  C   UNL     1      47.941   5.212  15.523  0.00  0.00    +0.000 C 
ENDBRANCH  17  24
ENDBRANCH  14  20
ENDBRANCH   1  14
TORSDOF 4
ENDMDL
MODEL 7
REMARK VINA RESULT:    -5.706      3.250      5.578
REMARK INTER + INTRA:          -6.858
REMARK INTER:                  -6.547
REMARK INTRA:                  -0.310
REMARK UNBOUND:                 0.182
REMARK  Name = 
REMARK  4 active torsions:
REMARK  status: ('A' for Active; 'I' for Inactive)
REMARK    1  A    between atoms: C_2  and  C_3
REMARK    2  A    between atoms: C_6  and  C_7
REMARK    3  A    between atoms: C_7  and  N_8
REMARK    4  A    between atoms: C_12  and  C_13
REMARK                            x       y       z     vdW  Elec       q    Type
REMARK                         _______ _______ _______ _____ _____    ______ ____
ROOT
ATOM      1  N   UNL     1      48.008   7.223  11.824  0.00  0.00    +0.000 N 
ATOM      2  C   UNL     1      46.728   6.661  11.801  0.00  0.00    +0.000 A 
ATOM      3  C   UNL     1      45.825   6.673  12.871  0.00  0.00    +0.000 A 
ATOM      4  N   UNL     1      44.591   6.089  12.839  0.00  0.00    +0.000 NA
ATOM      5  C   UNL     1      44.291   5.478  11.663  0.00  0.00    +0.000 A 
ATOM      6  C   UNL     1      45.169   5.465  10.592  0.00  0.00    +0.000 A 
ATOM      7  N   UNL     1      46.397   6.047  10.643  0.00  0.00    +0.000 NA
ATOM      8  H   UNL     1      48.391   7.147  10.886  0.00  0.00    +0.000 HD
ENDROOT
BRANCH   5   9
ATOM      9  C   UNL     1      42.978   4.788  11.538  0.00  0.00    +0.000 C 
ATOM     10  N   UNL     1      41.864   5.569  11.690  0.00  0.00    +0.000 N 
ATOM     11  O   UNL     1      42.892   3.586  11.319  0.00  0.00    +0.000 OA
ATOM     12  H   UNL     1      41.955   6.559  11.887  0.00  0.00    +0.000 HD
ATOM     13  H   UNL     1      40.951   5.140  11.637  0.00  0.00    +0.000 HD
ENDBRANCH   5   9
BRANCH   1  14
ATOM     14  C   UNL     1      48.354   8.394  12.648  0.00  0.00    +0.000 C 
ATOM     15  C   UNL     1      49.206   9.496  12.027  0.00  0.00    +0.000 C 
ATOM     16  C   UNL     1      47.756   9.743  12.289  0.00  0.00    +0.000 C 
BRANCH  14  20
ATOM     17  C   UNL     1      49.121   7.450  16.779  0.00  0.00    +0.000 A 
ATOM     18  C   UNL     1      48.475   8.643  16.472  0.00  0.00    +0.000 A 
ATOM     19  C   UNL     1      48.227   8.960  15.135  0.00  0.00    +0.000 A 
ATOM     20  C   UNL     1      48.622   8.077  14.124  0.00  0.00    +0.000 A 
ATOM     21  N   UNL     1      49.256   6.913  14.428  0.00  0.00    +0.000 NA
ATOM     22  C   UNL     1      49.493   6.628  15.729  0.00  0.00    +0.000 A 
BRANCH  17  24
ATOM     23  N   UNL     1      49.611   6.751  19.221  0.00  0.00    +0.000 NA
ATOM     24  C   UNL     1      49.393   7.070  18.124  0.00  0.00    +0.000 C 
ENDBRANCH  17  24
ENDBRANCH  14  20
ENDBRANCH   1  14
TORSDOF 4
ENDMDL
MODEL 8
REMARK VINA RESULT:    -5.660      2.083      2.469
REMARK INTER + INTRA:          -6.801
REMARK INTER:                  -6.491
REMARK INTRA:                  -0.310
REMARK UNBOUND:                 0.182
REMARK  Name = 
REMARK  4 active torsions:
REMARK  status: ('A' for Active; 'I' for Inactive)
REMARK    1  A    between atoms: C_2  and  C_3
REMARK    2  A    between atoms: C_6  and  C_7
REMARK    3  A    between atoms: C_7  and  N_8
REMARK    4  A    between atoms: C_12  and  C_13
REMARK                            x       y       z     vdW  Elec       q    Type
REMARK                         _______ _______ _______ _____ _____    ______ ____
ROOT
ATOM      1  N   UNL     1      43.772   5.035  10.219  0.00  0.00    +0.000 N 
ATOM      2  C   UNL     1      44.649   4.560   9.239  0.00  0.00    +0.000 A 
ATOM      3  C   UNL     1      46.001   4.908   9.133  0.00  0.00    +0.000 A 
ATOM      4  N   UNL     1      46.833   4.458   8.148  0.00  0.00    +0.000 NA
ATOM      5  C   UNL     1      46.241   3.625   7.251  0.00  0.00    +0.000 A 
ATOM      6  C   UNL     1      44.907   3.265   7.347  0.00  0.00    +0.000 A 
ATOM      7  N   UNL     1      44.092   3.727   8.332  0.00  0.00    +0.000 NA
ATOM      8  H   UNL     1      42.891   4.542  10.104  0.00  0.00    +0.000 HD
ENDROOT
BRANCH   5   9
ATOM      9  C   UNL     1      47.059   3.103   6.123  0.00  0.00    +0.000 C 
ATOM     10  N   UNL     1      48.383   2.877   6.386  0.00  0.00    +0.000 N 
ATOM     11  O   UNL     1      46.582   2.892   5.015  0.00  0.00    +0.000 OA
ATOM     12  H   UNL     1      48.765   3.073   7.304  0.00  0.00    +0.000 HD
ATOM     13  H   UNL     1      48.983   2.544   5.644  0.00  0.00    +0.000 HD
ENDBRANCH   5   9
BRANCH   1  14
ATOM     14  C   UNL     1      44.212   5.412  11.573  0.00  0.00    +0.000 C 
ATOM     15  C   UNL     1      43.353   4.994  12.761  0.00  0.00    +0.000 C 
ATOM     16  C   UNL     1      44.664   4.319  12.525  0.00  0.00    +0.000 C 
BRANCH  14  20
ATOM     17  C   UNL     1      46.123   9.260  11.865  0.00  0.00    +0.000 A 
ATOM     18  C   UNL     1      44.825   9.192  11.371  0.00  0.00    +0.000 A 
ATOM     19  C   UNL     1      44.199   7.948  11.266  0.00  0.00    +0.000 A 
ATOM     20  C   UNL     1      44.877   6.790  11.665  0.00  0.00    +0.000 A 
ATOM     21  N   UNL     1      46.148   6.861  12.146  0.00  0.00    +0.000 NA
ATOM     22  C   UNL     1      46.739   8.076  12.231  0.00  0.00    +0.000 A 
BRANCH  17  24
ATOM     23  N   UNL     1      47.376  11.509  12.111  0.00  0.00    +0.000 NA
ATOM     24  C   UNL     1      46.808  10.501  12.001  0.00  0.00    +0.000 C 
ENDBRANCH  17  24
ENDBRANCH  14  20
ENDBRANCH   1  14
TORSDOF 4
ENDMDL
