MODEL 1
REMARK VINA RESULT:    -7.778      0.000      0.000
REMARK INTER + INTRA:         -12.701
REMARK INTER:                 -11.416
REMARK INTRA:                  -1.285
REMARK UNBOUND:                -1.285
REMARK  Name = 
REMARK  9 active torsions:
REMARK  status: ('A' for Active; 'I' for Inactive)
REMARK    1  A    between atoms: C_1  and  C_2
REMARK    2  A    between atoms: C_2  and  C_3
REMARK    3  A    between atoms: C_3  and  N_4
REMARK    4  A    between atoms: C_10  and  C_11
REMARK    5  A    between atoms: N_13  and  C_14
REMARK    6  A    between atoms: C_14  and  C_15
REMARK    7  A    between atoms: C_18  and  C_19
REMARK    8  A    between atoms: C_19  and  N_20
REMARK    9  A    between atoms: C_21  and  C_23
REMARK                            x       y       z     vdW  Elec       q    Type
REMARK                         _______ _______ _______ _____ _____    ______ ____
ROOT
ATOM      1  C   UNL     1      46.381   8.571  12.950  0.00  0.00    +0.000 C 
ENDROOT
BRANCH   1   2
ATOM      2  C   UNL     1      45.811   7.249  12.494  0.00  0.00    +0.000 A 
ATOM      3  C   UNL     1      46.386   6.051  12.938  0.00  0.00    +0.000 A 
ATOM      4  C   UNL     1      45.875   4.810  12.530  0.00  0.00    +0.000 A 
ATOM      5  C   UNL     1      44.791   4.744  11.643  0.00  0.00    +0.000 A 
ATOM      6  C   UNL     1      44.225   5.945  11.193  0.00  0.00    +0.000 A 
ATOM      7  C   UNL     1      44.721   7.184  11.622  0.00  0.00    +0.000 A 
BRANCH   5   8
ATOM      8  C   UNL     1      44.222   3.431  11.160  0.00  0.00    +0.000 C 
BRANCH   8   9
ATOM      9  N   UNL     1      45.091   2.760  10.225  0.00  0.00    +0.000 N 
ATOM     10  C   UNL     1      45.104   3.088   8.886  0.00  0.00    +0.000 C 
ATOM     11  O   UNL     1      44.368   3.934   8.398  0.00  0.00    +0.000 OA
ATOM     12  H   UNL     1      45.782   2.124  10.588  0.00  0.00    +0.000 HD
BRANCH  10  13
ATOM     13  C   UNL     1      46.076   2.358   8.110  0.00  0.00    +0.000 A 
ATOM     14  C   UNL     1      46.335   1.008   7.974  0.00  0.00    +0.000 A 
ATOM     15  N   UNL     1      47.405   0.782   7.153  0.00  0.00    +0.000 NA
ATOM     16  C   UNL     1      47.795   1.973   6.762  0.00  0.00    +0.000 A 
ATOM     17  N   UNL     1      47.009   2.954   7.292  0.00  0.00    +0.000 N 
ATOM     18  H   UNL     1      47.102   3.951   7.137  0.00  0.00    +0.000 HD
ENDBRANCH  10  13
ENDBRANCH   8   9
ENDBRANCH   5   8
ENDBRANCH   1   2
BRANCH   1  21
ATOM     19  C   UNL     1      48.166   8.858  14.603  0.00  0.00    +0.000 C 
ATOM     20  O   UNL     1      48.999   9.106  13.727  0.00  0.00    +0.000 OA
ATOM     21  N   UNL     1      46.864   8.520  14.308  0.00  0.00    +0.000 N 
ATOM     22  H   UNL     1      46.166   8.578  15.043  0.00  0.00    +0.000 HD
BRANCH  19  29
ATOM     23  N   UNL     1      49.461   5.548  17.598  0.00  0.00    +0.000 N 
ATOM     24  C   UNL     1      49.711   6.076  18.848  0.00  0.00    +0.000 A 
ATOM     25  N   UNL     1      49.598   7.322  19.178  0.00  0.00    +0.000 NA
ATOM     26  C   UNL     1      49.195   8.134  18.162  0.00  0.00    +0.000 A 
ATOM     27  S   UNL     1      48.994   9.803  18.403  0.00  0.00    +0.000 S 
ATOM     28  C   UNL     1      48.515  10.035  16.777  0.00  0.00    +0.000 A 
ATOM     29  C   UNL     1      48.526   8.867  16.027  0.00  0.00    +0.000 A 
ATOM     30  C   UNL     1      48.911   7.758  16.867  0.00  0.00    +0.000 A 
ATOM     31  C   UNL     1      49.013   6.346  16.555  0.00  0.00    +0.000 A 
ATOM     32  O   UNL     1      48.740   5.901  15.440  0.00  0.00    +0.000 OA
BRANCH  23  33
ATOM     33  C   UNL     1      49.634   4.121  17.356  0.00  0.00    +0.000 C 
BRANCH  33  35
ATOM     34  C   UNL     1      47.294   3.172  17.308  0.00  0.00    +0.000 C 
ATOM     35  C   UNL     1      48.599   3.259  18.085  0.00  0.00    +0.000 C 
ENDBRANCH  33  35
ENDBRANCH  23  33
ENDBRANCH  19  29
ENDBRANCH   1  21
TORSDOF 8
ENDMDL
MODEL 2
REMARK VINA RESULT:    -7.620      4.398      8.151
REMARK INTER + INTRA:         -12.469
REMARK INTER:                 -11.241
REMARK INTRA:                  -1.228
REMARK UNBOUND:                -1.285
REMARK  Name = 
REMARK  9 active torsions:
REMARK  status: ('A' for Active; 'I' for Inactive)
REMARK    1  A    between atoms: C_1  and  C_2
REMARK    2  A    between atoms: C_2  and  C_3
REMARK    3  A    between atoms: C_3  and  N_4
REMARK    4  A    between atoms: C_10  and  C_11
REMARK    5  A    between atoms: N_13  and  C_14
REMARK    6  A    between atoms: C_14  and  C_15
REMARK    7  A    between atoms: C_18  and  C_19
REMARK    8  A    between atoms: C_19  and  N_20
REMARK    9  A    between atoms: C_21  and  C_23
REMARK                            x       y       z     vdW  Elec       q    Type
REMARK                         _______ _______ _______ _____ _____    ______ ____
ROOT
ATOM      1  C   UNL     1      46.481   8.220  12.996  0.00  0.00    +0.000 C 
ENDROOT
BRANCH   1   2
ATOM      2  C   UNL     1      47.885   8.361  12.460  0.00  0.00    +0.000 A 
ATOM      3  C   UNL     1      48.355   9.617  12.056  0.00  0.00    +0.000 A 
ATOM      4  C   UNL     1      49.656   9.775  11.556  0.00  0.00    +0.000 A 
ATOM      5  C   UNL     1      50.506   8.667  11.422  0.00  0.00    +0.000 A 
ATOM      6  C   UNL     1      50.028   7.410  11.817  0.00  0.00    +0.000 A 
ATOM      7  C   UNL     1      48.737   7.259  12.341  0.00  0.00    +0.000 A 
BRANCH   5   8
ATOM      8  C   UNL     1      51.906   8.787  10.868  0.00  0.00    +0.000 C 
BRANCH   8   9
ATOM      9  N   UNL     1      52.130   7.923   9.735  0.00  0.00    +0.000 N 
ATOM     10  C   UNL     1      53.135   6.979   9.733  0.00  0.00    +0.000 C 
ATOM     11  O   UNL     1      53.916   6.832  10.664  0.00  0.00    +0.000 OA
ATOM     12  H   UNL     1      51.460   7.939   8.984  0.00  0.00    +0.000 HD
BRANCH  10  13
ATOM     13  C   UNL     1      53.177   6.165   8.544  0.00  0.00    +0.000 A 
ATOM     14  C   UNL     1      52.589   6.301   7.302  0.00  0.00    +0.000 A 
ATOM     15  N   UNL     1      52.876   5.238   6.491  0.00  0.00    +0.000 NA
ATOM     16  C   UNL     1      53.652   4.459   7.208  0.00  0.00    +0.000 A 
ATOM     17  N   UNL     1      53.883   4.988   8.445  0.00  0.00    +0.000 N 
ATOM     18  H   UNL     1      54.453   4.582   9.177  0.00  0.00    +0.000 HD
ENDBRANCH  10  13
ENDBRANCH   8   9
ENDBRANCH   5   8
ENDBRANCH   1   2
BRANCH   1  21
ATOM     19  C   UNL     1      44.943   6.697  11.847  0.00  0.00    +0.000 C 
ATOM     20  O   UNL     1      44.396   7.629  11.250  0.00  0.00    +0.000 OA
ATOM     21  N   UNL     1      45.939   6.902  12.776  0.00  0.00    +0.000 N 
ATOM     22  H   UNL     1      46.525   6.117  13.043  0.00  0.00    +0.000 HD
BRANCH  19  29
ATOM     23  N   UNL     1      45.668   3.638   8.424  0.00  0.00    +0.000 N 
ATOM     24  C   UNL     1      45.074   2.425   8.705  0.00  0.00    +0.000 A 
ATOM     25  N   UNL     1      44.390   2.147   9.768  0.00  0.00    +0.000 NA
ATOM     26  C   UNL     1      44.281   3.181  10.648  0.00  0.00    +0.000 A 
ATOM     27  S   UNL     1      43.423   3.004  12.101  0.00  0.00    +0.000 S 
ATOM     28  C   UNL     1      43.752   4.621  12.555  0.00  0.00    +0.000 A 
ATOM     29  C   UNL     1      44.533   5.304  11.632  0.00  0.00    +0.000 A 
ATOM     30  C   UNL     1      44.816   4.443  10.509  0.00  0.00    +0.000 A 
ATOM     31  C   UNL     1      45.541   4.719   9.284  0.00  0.00    +0.000 A 
ATOM     32  O   UNL     1      46.021   5.827   9.045  0.00  0.00    +0.000 OA
BRANCH  23  33
ATOM     33  C   UNL     1      46.421   3.819   7.189  0.00  0.00    +0.000 C 
BRANCH  33  35
ATOM     34  C   UNL     1      48.171   2.136   6.493  0.00  0.00    +0.000 C 
ATOM     35  C   UNL     1      46.696   2.501   6.456  0.00  0.00    +0.000 C 
ENDBRANCH  33  35
ENDBRANCH  23  33
ENDBRANCH  19  29
ENDBRANCH   1  21
TORSDOF 8
ENDMDL
MODEL 3
REMARK VINA RESULT:    -7.328      2.112      4.006
REMARK INTER + INTRA:         -12.040
REMARK INTER:                 -10.655
REMARK INTRA:                  -1.385
REMARK UNBOUND:                -1.285
REMARK  Name = 
REMARK  9 active torsions:
REMARK  status: ('A' for Active; 'I' for Inactive)
REMARK    1  A    between atoms: C_1  and  C_2
REMARK    2  A    between atoms: C_2  and  C_3
REMARK    3  A    between atoms: C_3  and  N_4
REMARK    4  A    between atoms: C_10  and  C_11
REMARK    5  A    between atoms: N_13  and  C_14
REMARK    6  A    between atoms: C_14  and  C_15
REMARK    7  A    between atoms: C_18  and  C_19
REMARK    8  A    between atoms: C_19  and  N_20
REMARK    9  A    between atoms: C_21  and  C_23
REMARK                            x       y       z     vdW  Elec       q    Type
REMARK                         _______ _______ _______ _____ _____    ______ ____
ROOT
ATOM      1  C   UNL     1      46.991   4.375  15.134  0.00  0.00    +0.000 C 
ENDROOT
BRANCH   1   2
ATOM      2  C   UNL     1      46.290   4.399  13.797  0.00  0.00    +0.000 A 
ATOM      3  C   UNL     1      45.937   5.624  13.216  0.00  0.00    +0.000 A 
ATOM      4  C   UNL     1      45.287   5.674  11.974  0.00  0.00    +0.000 A 
ATOM      5  C   UNL     1      44.949   4.490  11.300  0.00  0.00    +0.000 A 
ATOM      6  C   UNL     1      45.295   3.267  11.890  0.00  0.00    +0.000 A 
ATOM      7  C   UNL     1      45.968   3.220  13.118  0.00  0.00    +0.000 A 
BRANCH   5   8
ATOM      8  C   UNL     1      44.230   4.496   9.973  0.00  0.00    +0.000 C 
BRANCH   8   9
ATOM      9  N   UNL     1      44.897   3.696   8.975  0.00  0.00    +0.000 N 
ATOM     10  C   UNL     1      45.954   4.190   8.240  0.00  0.00    +0.000 C 
ATOM     11  O   UNL     1      46.373   5.334   8.357  0.00  0.00    +0.000 OA
ATOM     12  H   UNL     1      44.655   2.722   8.906  0.00  0.00    +0.000 HD
BRANCH  10  13
ATOM     13  C   UNL     1      46.538   3.235   7.333  0.00  0.00    +0.000 A 
ATOM     14  C   UNL     1      46.833   1.891   7.458  0.00  0.00    +0.000 A 
ATOM     15  N   UNL     1      47.437   1.402   6.333  0.00  0.00    +0.000 NA
ATOM     16  C   UNL     1      47.498   2.420   5.506  0.00  0.00    +0.000 A 
ATOM     17  N   UNL     1      46.945   3.541   6.054  0.00  0.00    +0.000 N 
ATOM     18  H   UNL     1      46.865   4.450   5.614  0.00  0.00    +0.000 HD
ENDBRANCH  10  13
ENDBRANCH   8   9
ENDBRANCH   5   8
ENDBRANCH   1   2
BRANCH   1  21
ATOM     19  C   UNL     1      48.758   5.690  16.207  0.00  0.00    +0.000 C 
ATOM     20  O   UNL     1      49.249   4.686  16.731  0.00  0.00    +0.000 OA
ATOM     21  N   UNL     1      47.606   5.639  15.454  0.00  0.00    +0.000 N 
ATOM     22  H   UNL     1      47.388   6.420  14.842  0.00  0.00    +0.000 HD
BRANCH  19  29
ATOM     23  N   UNL     1      50.199   8.986  13.264  0.00  0.00    +0.000 N 
ATOM     24  C   UNL     1      50.679  10.087  13.944  0.00  0.00    +0.000 A 
ATOM     25  N   UNL     1      50.743  10.211  15.230  0.00  0.00    +0.000 NA
ATOM     26  C   UNL     1      50.282   9.130  15.919  0.00  0.00    +0.000 A 
ATOM     27  S   UNL     1      50.283   9.111  17.617  0.00  0.00    +0.000 S 
ATOM     28  C   UNL     1      49.611   7.538  17.653  0.00  0.00    +0.000 A 
ATOM     29  C   UNL     1      49.354   7.019  16.391  0.00  0.00    +0.000 A 
ATOM     30  C   UNL     1      49.774   7.966  15.385  0.00  0.00    +0.000 A 
ATOM     31  C   UNL     1      49.759   7.857  13.940  0.00  0.00    +0.000 A 
ATOM     32  O   UNL     1      49.364   6.843  13.365  0.00  0.00    +0.000 OA
BRANCH  23  33
ATOM     33  C   UNL     1      50.175   8.976  11.807  0.00  0.00    +0.000 C 
BRANCH  33  35
ATOM     34  C   UNL     1      48.110  10.376  11.414  0.00  0.00    +0.000 C 
ATOM     35  C   UNL     1      49.612  10.269  11.207  0.00  0.00    +0.000 C 
ENDBRANCH  33  35
ENDBRANCH  23  33
ENDBRANCH  19  29
ENDBRANCH   1  21
TORSDOF 8
ENDMDL
MODEL 4
REMARK VINA RESULT:    -7.085      3.110      9.254
REMARK INTER + INTRA:         -11.684
REMARK INTER:                 -10.596
REMARK INTRA:                  -1.088
REMARK UNBOUND:                -1.285
REMARK  Name = 
REMARK  9 active torsions:
REMARK  status: ('A' for Active; 'I' for Inactive)
REMARK    1  A    between atoms: C_1  and  C_2
REMARK    2  A    between atoms: C_2  and  C_3
REMARK    3  A    between atoms: C_3  and  N_4
REMARK    4  A    between atoms: C_10  and  C_11
REMARK    5  A    between atoms: N_13  and  C_14
REMARK    6  A    between atoms: C_14  and  C_15
REMARK    7  A    between atoms: C_18  and  C_19
REMARK    8  A    between atoms: C_19  and  N_20
REMARK    9  A    between atoms: C_21  and  C_23
REMARK                            x       y       z     vdW  Elec       q    Type
REMARK                         _______ _______ _______ _____ _____    ______ ____
ROOT
ATOM      1  C   UNL     1      47.648   7.466  12.118  0.00  0.00    +0.000 C 
ENDROOT
BRANCH   1   2
ATOM      2  C   UNL     1      48.586   7.342  13.294  0.00  0.00    +0.000 A 
ATOM      3  C   UNL     1      48.182   6.641  14.438  0.00  0.00    +0.000 A 
ATOM      4  C   UNL     1      49.035   6.511  15.544  0.00  0.00    +0.000 A 
ATOM      5  C   UNL     1      50.305   7.108  15.537  0.00  0.00    +0.000 A 
ATOM      6  C   UNL     1      50.700   7.817  14.395  0.00  0.00    +0.000 A 
ATOM      7  C   UNL     1      49.857   7.924  13.281  0.00  0.00    +0.000 A 
BRANCH   5   8
ATOM      8  C   UNL     1      51.247   7.012  16.713  0.00  0.00    +0.000 C 
BRANCH   8   9
ATOM      9  N   UNL     1      51.690   5.662  16.962  0.00  0.00    +0.000 N 
ATOM     10  C   UNL     1      51.088   4.868  17.915  0.00  0.00    +0.000 C 
ATOM     11  O   UNL     1      50.172   5.257  18.628  0.00  0.00    +0.000 OA
ATOM     12  H   UNL     1      52.374   5.263  16.341  0.00  0.00    +0.000 HD
BRANCH  10  13
ATOM     13  C   UNL     1      51.619   3.530  17.988  0.00  0.00    +0.000 A 
ATOM     14  C   UNL     1      52.823   3.029  18.442  0.00  0.00    +0.000 A 
ATOM     15  N   UNL     1      52.904   1.676  18.264  0.00  0.00    +0.000 NA
ATOM     16  C   UNL     1      51.758   1.331  17.726  0.00  0.00    +0.000 A 
ATOM     17  N   UNL     1      50.939   2.411  17.563  0.00  0.00    +0.000 N 
ATOM     18  H   UNL     1      50.003   2.404  17.176  0.00  0.00    +0.000 HD
ENDBRANCH  10  13
ENDBRANCH   8   9
ENDBRANCH   5   8
ENDBRANCH   1   2
BRANCH   1  21
ATOM     19  C   UNL     1      45.507   6.308  11.834  0.00  0.00    +0.000 C 
ATOM     20  O   UNL     1      44.868   7.337  12.068  0.00  0.00    +0.000 OA
ATOM     21  N   UNL     1      46.883   6.263  11.899  0.00  0.00    +0.000 N 
ATOM     22  H   UNL     1      47.367   5.488  11.456  0.00  0.00    +0.000 HD
BRANCH  19  29
ATOM     23  N   UNL     1      45.577   3.502   8.129  0.00  0.00    +0.000 N 
ATOM     24  C   UNL     1      44.765   2.403   8.320  0.00  0.00    +0.000 A 
ATOM     25  N   UNL     1      44.056   2.162   9.375  0.00  0.00    +0.000 NA
ATOM     26  C   UNL     1      44.162   3.110  10.347  0.00  0.00    +0.000 A 
ATOM     27  S   UNL     1      43.307   2.964  11.807  0.00  0.00    +0.000 S 
ATOM     28  C   UNL     1      43.949   4.439  12.392  0.00  0.00    +0.000 A 
ATOM     29  C   UNL     1      44.833   5.044  11.509  0.00  0.00    +0.000 A 
ATOM     30  C   UNL     1      44.928   4.254  10.305  0.00  0.00    +0.000 A 
ATOM     31  C   UNL     1      45.675   4.502   9.086  0.00  0.00    +0.000 A 
ATOM     32  O   UNL     1      46.355   5.514   8.931  0.00  0.00    +0.000 OA
BRANCH  23  33
ATOM     33  C   UNL     1      46.332   3.651   6.891  0.00  0.00    +0.000 C 
BRANCH  33  35
ATOM     34  C   UNL     1      47.701   2.474   5.124  0.00  0.00    +0.000 C 
ATOM     35  C   UNL     1      47.175   2.417   6.550  0.00  0.00    +0.000 C 
ENDBRANCH  33  35
ENDBRANCH  23  33
ENDBRANCH  19  29
ENDBRANCH   1  21
TORSDOF 8
ENDMDL
MODEL 5
REMARK VINA RESULT:    -6.373      3.375      9.580
REMARK INTER + INTRA:         -10.639
REMARK INTER:                  -9.568
REMARK INTRA:                  -1.071
REMARK UNBOUND:                -1.285
REMARK  Name = 
REMARK  9 active torsions:
REMARK  status: ('A' for Active; 'I' for Inactive)
REMARK    1  A    between atoms: C_1  and  C_2
REMARK    2  A    between atoms: C_2  and  C_3
REMARK    3  A    between atoms: C_3  and  N_4
REMARK    4  A    between atoms: C_10  and  C_11
REMARK    5  A    between atoms: N_13  and  C_14
REMARK    6  A    between atoms: C_14  and  C_15
REMARK    7  A    between atoms: C_18  and  C_19
REMARK    8  A    between atoms: C_19  and  N_20
REMARK    9  A    between atoms: C_21  and  C_23
REMARK                            x       y       z     vdW  Elec       q    Type
REMARK                         _______ _______ _______ _____ _____    ______ ____
ROOT
ATOM      1  C   UNL     1      46.363   8.079  12.009  0.00  0.00    +0.000 C 
ENDROOT
BRANCH   1   2
ATOM      2  C   UNL     1      47.770   8.181  12.546  0.00  0.00    +0.000 A 
ATOM      3  C   UNL     1      48.859   7.921  11.704  0.00  0.00    +0.000 A 
ATOM      4  C   UNL     1      50.177   8.010  12.177  0.00  0.00    +0.000 A 
ATOM      5  C   UNL     1      50.430   8.335  13.518  0.00  0.00    +0.000 A 
ATOM      6  C   UNL     1      49.337   8.584  14.360  0.00  0.00    +0.000 A 
ATOM      7  C   UNL     1      48.023   8.520  13.879  0.00  0.00    +0.000 A 
BRANCH   5   8
ATOM      8  C   UNL     1      51.830   8.420  14.076  0.00  0.00    +0.000 C 
BRANCH   8   9
ATOM      9  N   UNL     1      52.076   7.446  15.111  0.00  0.00    +0.000 N 
ATOM     10  C   UNL     1      52.434   7.823  16.389  0.00  0.00    +0.000 C 
ATOM     11  O   UNL     1      52.598   8.989  16.721  0.00  0.00    +0.000 OA
ATOM     12  H   UNL     1      51.865   6.482  14.917  0.00  0.00    +0.000 HD
BRANCH  10  13
ATOM     13  C   UNL     1      52.582   6.722  17.307  0.00  0.00    +0.000 A 
ATOM     14  C   UNL     1      52.309   5.373  17.196  0.00  0.00    +0.000 A 
ATOM     15  N   UNL     1      52.566   4.709  18.363  0.00  0.00    +0.000 NA
ATOM     16  C   UNL     1      53.016   5.627  19.187  0.00  0.00    +0.000 A 
ATOM     17  N   UNL     1      53.068   6.852  18.589  0.00  0.00    +0.000 N 
ATOM     18  H   UNL     1      53.384   7.716  19.011  0.00  0.00    +0.000 HD
ENDBRANCH  10  13
ENDBRANCH   8   9
ENDBRANCH   5   8
ENDBRANCH   1   2
BRANCH   1  21
ATOM     19  C   UNL     1      44.640   6.414  11.498  0.00  0.00    +0.000 C 
ATOM     20  O   UNL     1      43.756   7.274  11.462  0.00  0.00    +0.000 OA
ATOM     21  N   UNL     1      45.945   6.711  11.822  0.00  0.00    +0.000 N 
ATOM     22  H   UNL     1      46.671   6.040  11.591  0.00  0.00    +0.000 HD
BRANCH  19  29
ATOM     23  N   UNL     1      45.884   3.457   8.134  0.00  0.00    +0.000 N 
ATOM     24  C   UNL     1      45.348   2.204   8.348  0.00  0.00    +0.000 A 
ATOM     25  N   UNL     1      44.586   1.867   9.338  0.00  0.00    +0.000 NA
ATOM     26  C   UNL     1      44.327   2.879  10.212  0.00  0.00    +0.000 A 
ATOM     27  S   UNL     1      43.349   2.626  11.576  0.00  0.00    +0.000 S 
ATOM     28  C   UNL     1      43.527   4.254  12.073  0.00  0.00    +0.000 A 
ATOM     29  C   UNL     1      44.345   5.000  11.234  0.00  0.00    +0.000 A 
ATOM     30  C   UNL     1      44.789   4.175  10.135  0.00  0.00    +0.000 A 
ATOM     31  C   UNL     1      45.606   4.516   8.987  0.00  0.00    +0.000 A 
ATOM     32  O   UNL     1      46.033   5.655   8.804  0.00  0.00    +0.000 OA
BRANCH  23  33
ATOM     33  C   UNL     1      46.736   3.704   6.978  0.00  0.00    +0.000 C 
BRANCH  33  35
ATOM     34  C   UNL     1      47.893   2.296   5.228  0.00  0.00    +0.000 C 
ATOM     35  C   UNL     1      46.563   2.658   5.871  0.00  0.00    +0.000 C 
ENDBRANCH  33  35
ENDBRANCH  23  33
ENDBRANCH  19  29
ENDBRANCH   1  21
TORSDOF 8
ENDMDL
MODEL 6
REMARK VINA RESULT:    -6.183      5.226      7.435
REMARK INTER + INTRA:         -10.359
REMARK INTER:                  -9.242
REMARK INTRA:                  -1.118
REMARK UNBOUND:                -1.285
REMARK  Name = 
REMARK  9 active torsions:
REMARK  status: ('A' for Active; 'I' for Inactive)
REMARK    1  A    between atoms: C_1  and  C_2
REMARK    2  A    between atoms: C_2  and  C_3
REMARK    3  A    between atoms: C_3  and  N_4
REMARK    4  A    between atoms: C_10  and  C_11
REMARK    5  A    between atoms: N_13  and  C_14
REMARK    6  A    between atoms: C_14  and  C_15
REMARK    7  A    between atoms: C_18  and  C_19
REMARK    8  A    between atoms: C_19  and  N_20
REMARK    9  A    between atoms: C_21  and  C_23
REMARK                            x       y       z     vdW  Elec       q    Type
REMARK                         _______ _______ _______ _____ _____    ______ ____
ROOT
ATOM      1  C   UNL     1      49.865   8.879  12.178  0.00  0.00    +0.000 C 
ENDROOT
BRANCH   1   2
ATOM      2  C   UNL     1      50.949   8.666  11.149  0.00  0.00    +0.000 A 
ATOM      3  C   UNL     1      51.653   9.764  10.639  0.00  0.00    +0.000 A 
ATOM      4  C   UNL     1      52.666   9.593   9.684  0.00  0.00    +0.000 A 
ATOM      5  C   UNL     1      52.976   8.314   9.197  0.00  0.00    +0.000 A 
ATOM      6  C   UNL     1      52.262   7.219   9.703  0.00  0.00    +0.000 A 
ATOM      7  C   UNL     1      51.269   7.390  10.676  0.00  0.00    +0.000 A 
BRANCH   5   8
ATOM      8  C   UNL     1      54.043   8.086   8.153  0.00  0.00    +0.000 C 
BRANCH   8   9
ATOM      9  N   UNL     1      54.156   6.700   7.769  0.00  0.00    +0.000 N 
ATOM     10  C   UNL     1      53.921   6.287   6.475  0.00  0.00    +0.000 C 
ATOM     11  O   UNL     1      53.573   7.048   5.582  0.00  0.00    +0.000 OA
ATOM     12  H   UNL     1      54.530   6.049   8.439  0.00  0.00    +0.000 HD
BRANCH  10  13
ATOM     13  C   UNL     1      54.138   4.878   6.258  0.00  0.00    +0.000 A 
ATOM     14  C   UNL     1      54.802   4.180   5.267  0.00  0.00    +0.000 A 
ATOM     15  N   UNL     1      54.701   2.829   5.451  0.00  0.00    +0.000 NA
ATOM     16  C   UNL     1      54.004   2.684   6.554  0.00  0.00    +0.000 A 
ATOM     17  N   UNL     1      53.663   3.891   7.091  0.00  0.00    +0.000 N 
ATOM     18  H   UNL     1      53.133   4.045   7.941  0.00  0.00    +0.000 HD
ENDBRANCH  10  13
ENDBRANCH   8   9
ENDBRANCH   5   8
ENDBRANCH   1   2
BRANCH   1  21
ATOM     19  C   UNL     1      48.289   7.633  13.581  0.00  0.00    +0.000 C 
ATOM     20  O   UNL     1      47.920   8.661  14.156  0.00  0.00    +0.000 OA
ATOM     21  N   UNL     1      49.291   7.638  12.635  0.00  0.00    +0.000 N 
ATOM     22  H   UNL     1      49.381   6.838  12.016  0.00  0.00    +0.000 HD
BRANCH  19  29
ATOM     23  N   UNL     1      45.338   4.809  11.363  0.00  0.00    +0.000 N 
ATOM     24  C   UNL     1      45.109   3.659  12.089  0.00  0.00    +0.000 A 
ATOM     25  N   UNL     1      45.622   3.378  13.243  0.00  0.00    +0.000 NA
ATOM     26  C   UNL     1      46.455   4.339  13.732  0.00  0.00    +0.000 A 
ATOM     27  S   UNL     1      47.226   4.146  15.232  0.00  0.00    +0.000 S 
ATOM     28  C   UNL     1      47.999   5.666  15.090  0.00  0.00    +0.000 A 
ATOM     29  C   UNL     1      47.708   6.324  13.902  0.00  0.00    +0.000 A 
ATOM     30  C   UNL     1      46.782   5.533  13.127  0.00  0.00    +0.000 A 
ATOM     31  C   UNL     1      46.151   5.821  11.854  0.00  0.00    +0.000 A 
ATOM     32  O   UNL     1      46.344   6.878  11.254  0.00  0.00    +0.000 OA
BRANCH  23  33
ATOM     33  C   UNL     1      44.699   5.001  10.067  0.00  0.00    +0.000 C 
BRANCH  33  35
ATOM     34  C   UNL     1      45.863   3.958   8.083  0.00  0.00    +0.000 C 
ATOM     35  C   UNL     1      44.805   3.771   9.159  0.00  0.00    +0.000 C 
ENDBRANCH  33  35
ENDBRANCH  23  33
ENDBRANCH  19  29
ENDBRANCH   1  21
TORSDOF 8
ENDMDL
MODEL 7
REMARK VINA RESULT:    -6.010      2.539      3.377
REMARK INTER + INTRA:         -10.106
REMARK INTER:                  -9.606
REMARK INTRA:                  -0.499
REMARK UNBOUND:                -1.285
REMARK  Name = 
REMARK  9 active torsions:
REMARK  status: ('A' for Active; 'I' for Inactive)
REMARK    1  A    between atoms: C_1  and  C_2
REMARK    2  A    between atoms: C_2  and  C_3
REMARK    3  A    between atoms: C_3  and  N_4
REMARK    4  A    between atoms: C_10  and  C_11
REMARK    5  A    between atoms: N_13  and  C_14
REMARK    6  A    between atoms: C_14  and  C_15
REMARK    7  A    between atoms: C_18  and  C_19
REMARK    8  A    between atoms: C_19  and  N_20
REMARK    9  A    between atoms: C_21  and  C_23
REMARK                            x       y       z     vdW  Elec       q    Type
REMARK                         _______ _______ _______ _____ _____    ______ ____
ROOT
ATOM      1  C   UNL     1      46.767   4.376  14.789  0.00  0.00    +0.000 C 
ENDROOT
BRANCH   1   2
ATOM      2  C   UNL     1      46.122   4.350  13.424  0.00  0.00    +0.000 A 
ATOM      3  C   UNL     1      45.809   5.552  12.776  0.00  0.00    +0.000 A 
ATOM      4  C   UNL     1      45.211   5.555  11.507  0.00  0.00    +0.000 A 
ATOM      5  C   UNL     1      44.888   4.347  10.871  0.00  0.00    +0.000 A 
ATOM      6  C   UNL     1      45.194   3.147  11.527  0.00  0.00    +0.000 A 
ATOM      7  C   UNL     1      45.814   3.146  12.783  0.00  0.00    +0.000 A 
BRANCH   5   8
ATOM      8  C   UNL     1      44.224   4.303   9.515  0.00  0.00    +0.000 C 
BRANCH   8   9
ATOM      9  N   UNL     1      44.997   3.573   8.541  0.00  0.00    +0.000 N 
ATOM     10  C   UNL     1      46.101   4.129   7.929  0.00  0.00    +0.000 C 
ATOM     11  O   UNL     1      46.476   5.274   8.141  0.00  0.00    +0.000 OA
ATOM     12  H   UNL     1      44.789   2.598   8.401  0.00  0.00    +0.000 HD
BRANCH  10  13
ATOM     13  C   UNL     1      46.787   3.237   7.029  0.00  0.00    +0.000 A 
ATOM     14  C   UNL     1      47.494   2.068   7.235  0.00  0.00    +0.000 A 
ATOM     15  N   UNL     1      48.022   1.587   6.069  0.00  0.00    +0.000 NA
ATOM     16  C   UNL     1      47.631   2.431   5.142  0.00  0.00    +0.000 A 
ATOM     17  N   UNL     1      46.863   3.429   5.668  0.00  0.00    +0.000 N 
ATOM     18  H   UNL     1      46.438   4.195   5.159  0.00  0.00    +0.000 HD
ENDBRANCH  10  13
ENDBRANCH   8   9
ENDBRANCH   5   8
ENDBRANCH   1   2
BRANCH   1  21
ATOM     19  C   UNL     1      48.217   5.781  16.177  0.00  0.00    +0.000 C 
ATOM     20  O   UNL     1      48.311   4.906  17.042  0.00  0.00    +0.000 OA
ATOM     21  N   UNL     1      47.424   5.630  15.060  0.00  0.00    +0.000 N 
ATOM     22  H   UNL     1      47.575   6.248  14.268  0.00  0.00    +0.000 HD
BRANCH  19  29
ATOM     23  N   UNL     1      52.570   6.954  17.307  0.00  0.00    +0.000 N 
ATOM     24  C   UNL     1      52.743   8.322  17.270  0.00  0.00    +0.000 A 
ATOM     25  N   UNL     1      51.832   9.191  16.975  0.00  0.00    +0.000 NA
ATOM     26  C   UNL     1      50.617   8.649  16.684  0.00  0.00    +0.000 A 
ATOM     27  S   UNL     1      49.297   9.633  16.269  0.00  0.00    +0.000 S 
ATOM     28  C   UNL     1      48.273   8.275  16.084  0.00  0.00    +0.000 A 
ATOM     29  C   UNL     1      48.917   7.065  16.306  0.00  0.00    +0.000 A 
ATOM     30  C   UNL     1      50.291   7.310  16.676  0.00  0.00    +0.000 A 
ATOM     31  C   UNL     1      51.334   6.376  17.052  0.00  0.00    +0.000 A 
ATOM     32  O   UNL     1      51.133   5.164  17.117  0.00  0.00    +0.000 OA
BRANCH  23  33
ATOM     33  C   UNL     1      53.685   6.081  17.650  0.00  0.00    +0.000 C 
BRANCH  33  35
ATOM     34  C   UNL     1      55.775   6.555  16.312  0.00  0.00    +0.000 C 
ATOM     35  C   UNL     1      54.534   5.686  16.436  0.00  0.00    +0.000 C 
ENDBRANCH  33  35
ENDBRANCH  23  33
ENDBRANCH  19  29
ENDBRANCH   1  21
TORSDOF 8
ENDMDL
MODEL 8
REMARK VINA RESULT:    -5.960      3.035      3.748
REMARK INTER + INTRA:         -10.033
REMARK INTER:                  -9.471
REMARK INTRA:                  -0.561
REMARK UNBOUND:                -1.285
REMARK  Name = 
REMARK  9 active torsions:
REMARK  status: ('A' for Active; 'I' for Inactive)
REMARK    1  A    between atoms: C_1  and  C_2
REMARK    2  A    between atoms: C_2  and  C_3
REMARK    3  A    between atoms: C_3  and  N_4
REMARK    4  A    between atoms: C_10  and  C_11
REMARK    5  A    between atoms: N_13  and  C_14
REMARK    6  A    between atoms: C_14  and  C_15
REMARK    7  A    between atoms: C_18  and  C_19
REMARK    8  A    between atoms: C_19  and  N_20
REMARK    9  A    between atoms: C_21  and  C_23
REMARK                            x       y       z     vdW  Elec       q    Type
REMARK                         _______ _______ _______ _____ _____    ______ ____
ROOT
ATOM      1  C   UNL     1      45.913   7.974  13.147  0.00  0.00    +0.000 C 
ENDROOT
BRANCH   1   2
ATOM      2  C   UNL     1      45.434   6.702  12.490  0.00  0.00    +0.000 A 
ATOM      3  C   UNL     1      46.076   5.488  12.768  0.00  0.00    +0.000 A 
ATOM      4  C   UNL     1      45.650   4.292  12.171  0.00  0.00    +0.000 A 
ATOM      5  C   UNL     1      44.585   4.294  11.258  0.00  0.00    +0.000 A 
ATOM      6  C   UNL     1      43.953   5.512  10.975  0.00  0.00    +0.000 A 
ATOM      7  C   UNL     1      44.363   6.701  11.591  0.00  0.00    +0.000 A 
BRANCH   5   8
ATOM      8  C   UNL     1      44.107   3.034  10.575  0.00  0.00    +0.000 C 
BRANCH   8   9
ATOM      9  N   UNL     1      45.064   2.520   9.626  0.00  0.00    +0.000 N 
ATOM     10  C   UNL     1      45.292   3.144   8.418  0.00  0.00    +0.000 C 
ATOM     11  O   UNL     1      44.686   4.145   8.058  0.00  0.00    +0.000 OA
ATOM     12  H   UNL     1      45.655   1.757   9.912  0.00  0.00    +0.000 HD
BRANCH  10  13
ATOM     13  C   UNL     1      46.323   2.527   7.621  0.00  0.00    +0.000 A 
ATOM     14  C   UNL     1      46.827   1.242   7.585  0.00  0.00    +0.000 A 
ATOM     15  N   UNL     1      47.853   1.130   6.688  0.00  0.00    +0.000 NA
ATOM     16  C   UNL     1      47.973   2.323   6.154  0.00  0.00    +0.000 A 
ATOM     17  N   UNL     1      47.056   3.194   6.666  0.00  0.00    +0.000 N 
ATOM     18  H   UNL     1      46.942   4.168   6.412  0.00  0.00    +0.000 HD
ENDBRANCH  10  13
ENDBRANCH   8   9
ENDBRANCH   5   8
ENDBRANCH   1   2
BRANCH   1  21
ATOM     19  C   UNL     1      48.136   8.932  13.526  0.00  0.00    +0.000 C 
ATOM     20  O   UNL     1      47.871   9.196  14.702  0.00  0.00    +0.000 OA
ATOM     21  N   UNL     1      47.209   8.386  12.667  0.00  0.00    +0.000 N 
ATOM     22  H   UNL     1      47.535   7.954  11.807  0.00  0.00    +0.000 HD
BRANCH  19  29
ATOM     23  N   UNL     1      52.475   7.781  14.731  0.00  0.00    +0.000 N 
ATOM     24  C   UNL     1      53.394   8.300  13.841  0.00  0.00    +0.000 A 
ATOM     25  N   UNL     1      53.117   9.025  12.806  0.00  0.00    +0.000 NA
ATOM     26  C   UNL     1      51.787   9.262  12.630  0.00  0.00    +0.000 A 
ATOM     27  S   UNL     1      51.231  10.190  11.323  0.00  0.00    +0.000 S 
ATOM     28  C   UNL     1      49.603  10.008  11.816  0.00  0.00    +0.000 A 
ATOM     29  C   UNL     1      49.456   9.225  12.954  0.00  0.00    +0.000 A 
ATOM     30  C   UNL     1      50.756   8.813  13.426  0.00  0.00    +0.000 A 
ATOM     31  C   UNL     1      51.118   8.038  14.597  0.00  0.00    +0.000 A 
ATOM     32  O   UNL     1      50.276   7.627  15.394  0.00  0.00    +0.000 OA
BRANCH  23  33
ATOM     33  C   UNL     1      52.920   6.971  15.858  0.00  0.00    +0.000 C 
BRANCH  33  35
ATOM     34  C   UNL     1      54.902   7.737  17.223  0.00  0.00    +0.000 C 
ATOM     35  C   UNL     1      54.444   6.941  16.011  0.00  0.00    +0.000 C 
ENDBRANCH  33  35
ENDBRANCH  23  33
ENDBRANCH  19  29
ENDBRANCH   1  21
TORSDOF 8
ENDMDL
MODEL 9
REMARK VINA RESULT:    -5.655      3.035      4.315
REMARK INTER + INTRA:          -9.585
REMARK INTER:                  -8.411
REMARK INTRA:                  -1.174
REMARK UNBOUND:                -1.285
REMARK  Name = 
REMARK  9 active torsions:
REMARK  status: ('A' for Active; 'I' for Inactive)
REMARK    1  A    between atoms: C_1  and  C_2
REMARK    2  A    between atoms: C_2  and  C_3
REMARK    3  A    between atoms: C_3  and  N_4
REMARK    4  A    between atoms: C_10  and  C_11
REMARK    5  A    between atoms: N_13  and  C_14
REMARK    6  A    between atoms: C_14  and  C_15
REMARK    7  A    between atoms: C_18  and  C_19
REMARK    8  A    between atoms: C_19  and  N_20
REMARK    9  A    between atoms: C_21  and  C_23
REMARK                            x       y       z     vdW  Elec       q    Type
REMARK                         _______ _______ _______ _____ _____    ______ ____
ROOT
ATOM      1  C   UNL     1      47.487   5.161  15.480  0.00  0.00    +0.000 C 
ENDROOT
BRANCH   1   2
ATOM      2  C   UNL     1      46.776   5.125  14.148  0.00  0.00    +0.000 A 
ATOM      3  C   UNL     1      46.694   6.287  13.369  0.00  0.00    +0.000 A 
ATOM      4  C   UNL     1      46.042   6.281  12.128  0.00  0.00    +0.000 A 
ATOM      5  C   UNL     1      45.430   5.111  11.652  0.00  0.00    +0.000 A 
ATOM      6  C   UNL     1      45.506   3.954  12.439  0.00  0.00    +0.000 A 
ATOM      7  C   UNL     1      46.180   3.956  13.666  0.00  0.00    +0.000 A 
BRANCH   5   8
ATOM      8  C   UNL     1      44.698   5.064  10.332  0.00  0.00    +0.000 C 
BRANCH   8   9
ATOM      9  N   UNL     1      45.485   4.467   9.281  0.00  0.00    +0.000 N 
ATOM     10  C   UNL     1      45.239   3.187   8.831  0.00  0.00    +0.000 C 
ATOM     11  O   UNL     1      44.371   2.467   9.306  0.00  0.00    +0.000 OA
ATOM     12  H   UNL     1      46.147   5.048   8.794  0.00  0.00    +0.000 HD
BRANCH  10  13
ATOM     13  C   UNL     1      46.083   2.775   7.737  0.00  0.00    +0.000 A 
ATOM     14  C   UNL     1      46.407   3.373   6.535  0.00  0.00    +0.000 A 
ATOM     15  N   UNL     1      47.218   2.574   5.779  0.00  0.00    +0.000 NA
ATOM     16  C   UNL     1      47.417   1.500   6.507  0.00  0.00    +0.000 A 
ATOM     17  N   UNL     1      46.774   1.585   7.708  0.00  0.00    +0.000 N 
ATOM     18  H   UNL     1      46.778   0.891   8.445  0.00  0.00    +0.000 HD
ENDBRANCH  10  13
ENDBRANCH   8   9
ENDBRANCH   5   8
ENDBRANCH   1   2
BRANCH   1  21
ATOM     19  C   UNL     1      49.210   6.729  16.236  0.00  0.00    +0.000 C 
ATOM     20  O   UNL     1      48.436   7.261  17.039  0.00  0.00    +0.000 OA
ATOM     21  N   UNL     1      48.809   5.727  15.381  0.00  0.00    +0.000 N 
ATOM     22  H   UNL     1      49.519   5.154  14.934  0.00  0.00    +0.000 HD
BRANCH  19  29
ATOM     23  N   UNL     1      51.726   8.468  12.737  0.00  0.00    +0.000 N 
ATOM     24  C   UNL     1      53.017   8.741  13.138  0.00  0.00    +0.000 A 
ATOM     25  N   UNL     1      53.499   8.539  14.322  0.00  0.00    +0.000 NA
ATOM     26  C   UNL     1      52.606   8.012  15.206  0.00  0.00    +0.000 A 
ATOM     27  S   UNL     1      53.054   7.682  16.809  0.00  0.00    +0.000 S 
ATOM     28  C   UNL     1      51.491   7.096  17.182  0.00  0.00    +0.000 A 
ATOM     29  C   UNL     1      50.606   7.165  16.114  0.00  0.00    +0.000 A 
ATOM     30  C   UNL     1      51.290   7.690  14.956  0.00  0.00    +0.000 A 
ATOM     31  C   UNL     1      50.806   7.896  13.605  0.00  0.00    +0.000 A 
ATOM     32  O   UNL     1      49.660   7.601  13.269  0.00  0.00    +0.000 OA
BRANCH  23  33
ATOM     33  C   UNL     1      51.307   8.750  11.369  0.00  0.00    +0.000 C 
BRANCH  33  35
ATOM     34  C   UNL     1      52.729   7.476   9.716  0.00  0.00    +0.000 C 
ATOM     35  C   UNL     1      51.399   7.527  10.450  0.00  0.00    +0.000 C 
ENDBRANCH  33  35
ENDBRANCH  23  33
ENDBRANCH  19  29
ENDBRANCH   1  21
TORSDOF 8
ENDMDL
