MODEL 1
REMARK VINA RESULT:    -7.389      0.000      0.000
REMARK INTER + INTRA:         -11.455
REMARK INTER:                 -10.413
REMARK INTRA:                  -1.042
REMARK UNBOUND:                -1.042
REMARK  Name = 
REMARK  7 active torsions:
REMARK  status: ('A' for Active; 'I' for Inactive)
REMARK    1  A    between atoms: C_2  and  C_4
REMARK    2  A    between atoms: C_7  and  N_8
REMARK    3  A    between atoms: N_8  and  C_9
REMARK    4  A    between atoms: C_9  and  C_10
REMARK    5  A    between atoms: C_10  and  C_11
REMARK    6  A    between atoms: C_16  and  O_17
REMARK    7  A    between atoms: O_17  and  C_18
REMARK                            x       y       z     vdW  Elec       q    Type
REMARK                         _______ _______ _______ _____ _____    ______ ____
ROOT
ATOM      1  C   UNL     1      46.348   4.428  13.087  0.00  0.00    +0.000 A 
ATOM      2  C   UNL     1      45.573   3.365  12.580  0.00  0.00    +0.000 A 
ATOM      3  C   UNL     1      44.890   3.476  11.367  0.00  0.00    +0.000 A 
ATOM      4  C   UNL     1      44.978   4.641  10.613  0.00  0.00    +0.000 A 
ATOM      5  C   UNL     1      45.712   5.706  11.139  0.00  0.00    +0.000 A 
ATOM      6  C   UNL     1      46.434   5.616  12.339  0.00  0.00    +0.000 A 
ENDROOT
BRANCH   1   8
ATOM      7  N   UNL     1      47.021   5.185  15.317  0.00  0.00    +0.000 N 
ATOM      8  C   UNL     1      46.996   4.174  14.407  0.00  0.00    +0.000 C 
ATOM      9  O   UNL     1      47.480   3.083  14.694  0.00  0.00    +0.000 OA
ATOM     10  H   UNL     1      47.420   4.995  16.227  0.00  0.00    +0.000 HD
ATOM     11  H   UNL     1      46.618   6.085  15.124  0.00  0.00    +0.000 HD
ENDBRANCH   1   8
BRANCH   4  12
ATOM     12  N   UNL     1      44.250   4.728   9.417  0.00  0.00    +0.000 N 
ATOM     13  H   UNL     1      44.284   5.692   9.085  0.00  0.00    +0.000 HD
BRANCH  12  14
ATOM     14  C   UNL     1      44.550   3.782   8.341  0.00  0.00    +0.000 C 
BRANCH  14  15
ATOM     15  C   UNL     1      46.031   3.845   7.958  0.00  0.00    +0.000 C 
BRANCH  15  16
ATOM     16  C   UNL     1      46.402   2.676   7.061  0.00  0.00    +0.000 C 
ATOM     17  C   UNL     1      46.627   1.342   7.786  0.00  0.00    +0.000 C 
ATOM     18  O   UNL     1      47.905   1.160   7.128  0.00  0.00    +0.000 OA
ATOM     19  C   UNL     1      47.874   2.525   6.653  0.00  0.00    +0.000 C 
ENDBRANCH  15  16
ENDBRANCH  14  15
ENDBRANCH  12  14
ENDBRANCH   4  12
BRANCH   6  20
ATOM     20  O   UNL     1      47.188   6.687  12.791  0.00  0.00    +0.000 OA
BRANCH  20  21
ATOM     21  C   UNL     1      47.711   7.624  11.804  0.00  0.00    +0.000 C 
ATOM     22  C   UNL     1      49.250   7.714  11.689  0.00  0.00    +0.000 C 
ATOM     23  C   UNL     1      49.148   9.242  11.704  0.00  0.00    +0.000 C 
ATOM     24  C   UNL     1      47.695   9.115  12.191  0.00  0.00    +0.000 C 
ENDBRANCH  20  21
ENDBRANCH   6  20
TORSDOF 7
ENDMDL
MODEL 2
REMARK VINA RESULT:    -6.510      2.080      4.036
REMARK INTER + INTRA:         -10.217
REMARK INTER:                  -9.412
REMARK INTRA:                  -0.805
REMARK UNBOUND:                -1.042
REMARK  Name = 
REMARK  7 active torsions:
REMARK  status: ('A' for Active; 'I' for Inactive)
REMARK    1  A    between atoms: C_2  and  C_4
REMARK    2  A    between atoms: C_7  and  N_8
REMARK    3  A    between atoms: N_8  and  C_9
REMARK    4  A    between atoms: C_9  and  C_10
REMARK    5  A    between atoms: C_10  and  C_11
REMARK    6  A    between atoms: C_16  and  O_17
REMARK    7  A    between atoms: O_17  and  C_18
REMARK                            x       y       z     vdW  Elec       q    Type
REMARK                         _______ _______ _______ _____ _____    ______ ____
ROOT
ATOM      1  C   UNL     1      46.885   6.246  13.204  0.00  0.00    +0.000 A 
ATOM      2  C   UNL     1      46.015   6.336  12.098  0.00  0.00    +0.000 A 
ATOM      3  C   UNL     1      45.327   5.218  11.620  0.00  0.00    +0.000 A 
ATOM      4  C   UNL     1      45.470   3.984  12.243  0.00  0.00    +0.000 A 
ATOM      5  C   UNL     1      46.365   3.889  13.311  0.00  0.00    +0.000 A 
ATOM      6  C   UNL     1      47.046   4.999  13.835  0.00  0.00    +0.000 A 
ENDROOT
BRANCH   1   8
ATOM      7  N   UNL     1      46.831   8.496  14.168  0.00  0.00    +0.000 N 
ATOM      8  C   UNL     1      47.570   7.515  13.583  0.00  0.00    +0.000 C 
ATOM      9  O   UNL     1      48.772   7.684  13.401  0.00  0.00    +0.000 OA
ATOM     10  H   UNL     1      47.309   9.338  14.465  0.00  0.00    +0.000 HD
ATOM     11  H   UNL     1      45.849   8.387  14.349  0.00  0.00    +0.000 HD
ENDBRANCH   1   8
BRANCH   4  12
ATOM     12  N   UNL     1      44.789   2.877  11.713  0.00  0.00    +0.000 N 
ATOM     13  H   UNL     1      44.123   2.541  12.410  0.00  0.00    +0.000 HD
BRANCH  12  14
ATOM     14  C   UNL     1      44.167   2.999  10.394  0.00  0.00    +0.000 C 
BRANCH  14  15
ATOM     15  C   UNL     1      44.954   2.206   9.347  0.00  0.00    +0.000 C 
BRANCH  15  16
ATOM     16  C   UNL     1      45.170   3.041   8.095  0.00  0.00    +0.000 C 
ATOM     17  C   UNL     1      46.540   2.872   7.426  0.00  0.00    +0.000 C 
ATOM     18  O   UNL     1      46.742   4.306   7.397  0.00  0.00    +0.000 OA
ATOM     19  C   UNL     1      45.610   4.500   8.275  0.00  0.00    +0.000 C 
ENDBRANCH  15  16
ENDBRANCH  14  15
ENDBRANCH  12  14
ENDBRANCH   4  12
BRANCH   6  20
ATOM     20  O   UNL     1      47.885   4.860  14.929  0.00  0.00    +0.000 OA
BRANCH  20  21
ATOM     21  C   UNL     1      47.342   4.253  16.138  0.00  0.00    +0.000 C 
ATOM     22  C   UNL     1      47.740   4.913  17.478  0.00  0.00    +0.000 C 
ATOM     23  C   UNL     1      48.054   3.527  18.051  0.00  0.00    +0.000 C 
ATOM     24  C   UNL     1      48.019   2.956  16.624  0.00  0.00    +0.000 C 
ENDBRANCH  20  21
ENDBRANCH   6  20
TORSDOF 7
ENDMDL
MODEL 3
REMARK VINA RESULT:    -6.357      2.329      4.455
REMARK INTER + INTRA:         -10.001
REMARK INTER:                  -8.731
REMARK INTRA:                  -1.270
REMARK UNBOUND:                -1.042
REMARK  Name = 
REMARK  7 active torsions:
REMARK  status: ('A' for Active; 'I' for Inactive)
REMARK    1  A    between atoms: C_2  and  C_4
REMARK    2  A    between atoms: C_7  and  N_8
REMARK    3  A    between atoms: N_8  and  C_9
REMARK    4  A    between atoms: C_9  and  C_10
REMARK    5  A    between atoms: C_10  and  C_11
REMARK    6  A    between atoms: C_16  and  O_17
REMARK    7  A    between atoms: O_17  and  C_18
REMARK                            x       y       z     vdW  Elec       q    Type
REMARK                         _______ _______ _______ _____ _____    ______ ____
ROOT
ATOM      1  C   UNL     1      47.448   6.371  13.139  0.00  0.00    +0.000 A 
ATOM      2  C   UNL     1      46.507   6.969  12.276  0.00  0.00    +0.000 A 
ATOM      3  C   UNL     1      45.195   6.499  12.191  0.00  0.00    +0.000 A 
ATOM      4  C   UNL     1      44.776   5.433  12.979  0.00  0.00    +0.000 A 
ATOM      5  C   UNL     1      45.721   4.816  13.800  0.00  0.00    +0.000 A 
ATOM      6  C   UNL     1      47.039   5.283  13.932  0.00  0.00    +0.000 A 
ENDROOT
BRANCH   1   8
ATOM      7  N   UNL     1      49.463   7.164  14.282  0.00  0.00    +0.000 N 
ATOM      8  C   UNL     1      48.817   6.962  13.101  0.00  0.00    +0.000 C 
ATOM      9  O   UNL     1      49.373   7.246  12.045  0.00  0.00    +0.000 OA
ATOM     10  H   UNL     1      50.409   7.522  14.250  0.00  0.00    +0.000 HD
ATOM     11  H   UNL     1      49.047   6.926  15.164  0.00  0.00    +0.000 HD
ENDBRANCH   1   8
BRANCH   4  12
ATOM     12  N   UNL     1      43.459   4.967  12.840  0.00  0.00    +0.000 N 
ATOM     13  H   UNL     1      42.820   5.706  13.138  0.00  0.00    +0.000 HD
BRANCH  12  14
ATOM     14  C   UNL     1      43.049   4.389  11.560  0.00  0.00    +0.000 C 
BRANCH  14  15
ATOM     15  C   UNL     1      43.671   3.003  11.365  0.00  0.00    +0.000 C 
BRANCH  15  16
ATOM     16  C   UNL     1      44.758   3.050  10.304  0.00  0.00    +0.000 C 
ATOM     17  C   UNL     1      44.589   4.146   9.244  0.00  0.00    +0.000 C 
ATOM     18  O   UNL     1      44.759   3.186   8.173  0.00  0.00    +0.000 OA
ATOM     19  C   UNL     1      44.635   2.093   9.110  0.00  0.00    +0.000 C 
ENDBRANCH  15  16
ENDBRANCH  14  15
ENDBRANCH  12  14
ENDBRANCH   4  12
BRANCH   6  20
ATOM     20  O   UNL     1      47.923   4.664  14.800  0.00  0.00    +0.000 OA
BRANCH  20  21
ATOM     21  C   UNL     1      47.378   3.991  15.973  0.00  0.00    +0.000 C 
ATOM     22  C   UNL     1      47.584   4.700  17.331  0.00  0.00    +0.000 C 
ATOM     23  C   UNL     1      48.037   3.369  17.940  0.00  0.00    +0.000 C 
ATOM     24  C   UNL     1      48.183   2.797  16.521  0.00  0.00    +0.000 C 
ENDBRANCH  20  21
ENDBRANCH   6  20
TORSDOF 7
ENDMDL
MODEL 4
REMARK VINA RESULT:    -5.754      3.304      7.269
REMARK INTER + INTRA:          -9.151
REMARK INTER:                  -8.650
REMARK INTRA:                  -0.500
REMARK UNBOUND:                -1.042
REMARK  Name = 
REMARK  7 active torsions:
REMARK  status: ('A' for Active; 'I' for Inactive)
REMARK    1  A    between atoms: C_2  and  C_4
REMARK    2  A    between atoms: C_7  and  N_8
REMARK    3  A    between atoms: N_8  and  C_9
REMARK    4  A    between atoms: C_9  and  C_10
REMARK    5  A    between atoms: C_10  and  C_11
REMARK    6  A    between atoms: C_16  and  O_17
REMARK    7  A    between atoms: O_17  and  C_18
REMARK                            x       y       z     vdW  Elec       q    Type
REMARK                         _______ _______ _______ _____ _____    ______ ____
ROOT
ATOM      1  C   UNL     1      45.379   6.811  12.481  0.00  0.00    +0.000 A 
ATOM      2  C   UNL     1      46.689   6.876  12.998  0.00  0.00    +0.000 A 
ATOM      3  C   UNL     1      47.235   5.820  13.731  0.00  0.00    +0.000 A 
ATOM      4  C   UNL     1      46.501   4.660  13.950  0.00  0.00    +0.000 A 
ATOM      5  C   UNL     1      45.189   4.617  13.473  0.00  0.00    +0.000 A 
ATOM      6  C   UNL     1      44.621   5.648  12.707  0.00  0.00    +0.000 A 
ENDROOT
BRANCH   1   8
ATOM      7  N   UNL     1      43.759   7.952  11.042  0.00  0.00    +0.000 N 
ATOM      8  C   UNL     1      44.922   8.026  11.745  0.00  0.00    +0.000 C 
ATOM      9  O   UNL     1      45.549   9.080  11.777  0.00  0.00    +0.000 OA
ATOM     10  H   UNL     1      43.429   8.791  10.582  0.00  0.00    +0.000 HD
ATOM     11  H   UNL     1      43.209   7.112  11.008  0.00  0.00    +0.000 HD
ENDBRANCH   1   8
BRANCH   4  12
ATOM     12  N   UNL     1      47.071   3.634  14.719  0.00  0.00    +0.000 N 
ATOM     13  H   UNL     1      47.784   3.166  14.158  0.00  0.00    +0.000 HD
BRANCH  12  14
ATOM     14  C   UNL     1      47.568   3.953  16.058  0.00  0.00    +0.000 C 
BRANCH  14  15
ATOM     15  C   UNL     1      48.252   2.735  16.687  0.00  0.00    +0.000 C 
BRANCH  15  16
ATOM     16  C   UNL     1      49.033   3.142  17.927  0.00  0.00    +0.000 C 
ATOM     17  C   UNL     1      48.487   4.369  18.668  0.00  0.00    +0.000 C 
ATOM     18  O   UNL     1      49.794   4.993  18.671  0.00  0.00    +0.000 OA
ATOM     19  C   UNL     1      50.284   4.008  17.732  0.00  0.00    +0.000 C 
ENDBRANCH  15  16
ENDBRANCH  14  15
ENDBRANCH  12  14
ENDBRANCH   4  12
BRANCH   6  20
ATOM     20  O   UNL     1      43.331   5.532  12.215  0.00  0.00    +0.000 OA
BRANCH  20  21
ATOM     21  C   UNL     1      43.081   4.549  11.169  0.00  0.00    +0.000 C 
ATOM     22  C   UNL     1      43.368   3.074  11.527  0.00  0.00    +0.000 C 
ATOM     23  C   UNL     1      44.114   2.911  10.199  0.00  0.00    +0.000 C 
ATOM     24  C   UNL     1      44.140   4.441  10.055  0.00  0.00    +0.000 C 
ENDBRANCH  20  21
ENDBRANCH   6  20
TORSDOF 7
ENDMDL
MODEL 5
REMARK VINA RESULT:    -5.744      3.173      6.166
REMARK INTER + INTRA:          -9.137
REMARK INTER:                  -8.244
REMARK INTRA:                  -0.893
REMARK UNBOUND:                -1.042
REMARK  Name = 
REMARK  7 active torsions:
REMARK  status: ('A' for Active; 'I' for Inactive)
REMARK    1  A    between atoms: C_2  and  C_4
REMARK    2  A    between atoms: C_7  and  N_8
REMARK    3  A    between atoms: N_8  and  C_9
REMARK    4  A    between atoms: C_9  and  C_10
REMARK    5  A    between atoms: C_10  and  C_11
REMARK    6  A    between atoms: C_16  and  O_17
REMARK    7  A    between atoms: O_17  and  C_18
REMARK                            x       y       z     vdW  Elec       q    Type
REMARK                         _______ _______ _______ _____ _____    ______ ____
ROOT
ATOM      1  C   UNL     1      46.480   5.191  13.478  0.00  0.00    +0.000 A 
ATOM      2  C   UNL     1      47.561   6.006  13.871  0.00  0.00    +0.000 A 
ATOM      3  C   UNL     1      47.507   7.396  13.750  0.00  0.00    +0.000 A 
ATOM      4  C   UNL     1      46.366   8.016  13.254  0.00  0.00    +0.000 A 
ATOM      5  C   UNL     1      45.314   7.204  12.826  0.00  0.00    +0.000 A 
ATOM      6  C   UNL     1      45.324   5.807  12.963  0.00  0.00    +0.000 A 
ENDROOT
BRANCH   1   8
ATOM      7  N   UNL     1      45.963   2.878  12.864  0.00  0.00    +0.000 N 
ATOM      8  C   UNL     1      46.693   3.724  13.640  0.00  0.00    +0.000 C 
ATOM      9  O   UNL     1      47.515   3.270  14.430  0.00  0.00    +0.000 OA
ATOM     10  H   UNL     1      46.143   1.886  12.944  0.00  0.00    +0.000 HD
ATOM     11  H   UNL     1      45.294   3.213  12.193  0.00  0.00    +0.000 HD
ENDBRANCH   1   8
BRANCH   4  12
ATOM     12  N   UNL     1      46.363   9.413  13.115  0.00  0.00    +0.000 N 
ATOM     13  H   UNL     1      47.226   9.781  13.516  0.00  0.00    +0.000 HD
BRANCH  12  14
ATOM     14  C   UNL     1      46.099   9.987  11.795  0.00  0.00    +0.000 C 
BRANCH  14  15
ATOM     15  C   UNL     1      44.684  10.570  11.729  0.00  0.00    +0.000 C 
BRANCH  15  16
ATOM     16  C   UNL     1      43.887   9.913  10.614  0.00  0.00    +0.000 C 
ATOM     17  C   UNL     1      43.793  10.722   9.314  0.00  0.00    +0.000 C 
ATOM     18  O   UNL     1      42.352  10.575   9.285  0.00  0.00    +0.000 OA
ATOM     19  C   UNL     1      42.360  10.067  10.639  0.00  0.00    +0.000 C 
ENDBRANCH  15  16
ENDBRANCH  14  15
ENDBRANCH  12  14
ENDBRANCH   4  12
BRANCH   6  20
ATOM     20  O   UNL     1      44.232   5.051  12.568  0.00  0.00    +0.000 OA
BRANCH  20  21
ATOM     21  C   UNL     1      43.911   4.998  11.147  0.00  0.00    +0.000 C 
ATOM     22  C   UNL     1      43.608   3.600  10.562  0.00  0.00    +0.000 C 
ATOM     23  C   UNL     1      44.535   3.908   9.383  0.00  0.00    +0.000 C 
ATOM     24  C   UNL     1      45.096   5.105  10.168  0.00  0.00    +0.000 C 
ENDBRANCH  20  21
ENDBRANCH   6  20
TORSDOF 7
ENDMDL
MODEL 6
REMARK VINA RESULT:    -5.744      2.440      6.113
REMARK INTER + INTRA:          -9.136
REMARK INTER:                  -8.048
REMARK INTRA:                  -1.088
REMARK UNBOUND:                -1.042
REMARK  Name = 
REMARK  7 active torsions:
REMARK  status: ('A' for Active; 'I' for Inactive)
REMARK    1  A    between atoms: C_2  and  C_4
REMARK    2  A    between atoms: C_7  and  N_8
REMARK    3  A    between atoms: N_8  and  C_9
REMARK    4  A    between atoms: C_9  and  C_10
REMARK    5  A    between atoms: C_10  and  C_11
REMARK    6  A    between atoms: C_16  and  O_17
REMARK    7  A    between atoms: O_17  and  C_18
REMARK                            x       y       z     vdW  Elec       q    Type
REMARK                         _______ _______ _______ _____ _____    ______ ____
ROOT
ATOM      1  C   UNL     1      45.133   4.893  12.338  0.00  0.00    +0.000 A 
ATOM      2  C   UNL     1      45.735   5.903  13.116  0.00  0.00    +0.000 A 
ATOM      3  C   UNL     1      45.540   7.256  12.831  0.00  0.00    +0.000 A 
ATOM      4  C   UNL     1      44.721   7.643  11.776  0.00  0.00    +0.000 A 
ATOM      5  C   UNL     1      44.162   6.640  10.981  0.00  0.00    +0.000 A 
ATOM      6  C   UNL     1      44.313   5.273  11.259  0.00  0.00    +0.000 A 
ENDROOT
BRANCH   1   8
ATOM      7  N   UNL     1      44.568   2.513  12.432  0.00  0.00    +0.000 N 
ATOM      8  C   UNL     1      45.456   3.495  12.744  0.00  0.00    +0.000 C 
ATOM      9  O   UNL     1      46.499   3.211  13.325  0.00  0.00    +0.000 OA
ATOM     10  H   UNL     1      44.811   1.560  12.668  0.00  0.00    +0.000 HD
ATOM     11  H   UNL     1      43.713   2.704  11.941  0.00  0.00    +0.000 HD
ENDBRANCH   1   8
BRANCH   4  12
ATOM     12  N   UNL     1      44.577   9.011  11.499  0.00  0.00    +0.000 N 
ATOM     13  H   UNL     1      43.581   9.233  11.471  0.00  0.00    +0.000 HD
BRANCH  12  14
ATOM     14  C   UNL     1      45.316   9.975  12.315  0.00  0.00    +0.000 C 
BRANCH  14  15
ATOM     15  C   UNL     1      46.367  10.705  11.474  0.00  0.00    +0.000 C 
BRANCH  15  16
ATOM     16  C   UNL     1      47.756  10.498  12.056  0.00  0.00    +0.000 C 
ATOM     17  C   UNL     1      48.905  11.093  11.233  0.00  0.00    +0.000 C 
ATOM     18  O   UNL     1      49.624   9.835  11.263  0.00  0.00    +0.000 OA
ATOM     19  C   UNL     1      48.455   9.160  11.780  0.00  0.00    +0.000 C 
ENDBRANCH  15  16
ENDBRANCH  14  15
ENDBRANCH  12  14
ENDBRANCH   4  12
BRANCH   6  20
ATOM     20  O   UNL     1      43.694   4.319  10.468  0.00  0.00    +0.000 OA
BRANCH  20  21
ATOM     21  C   UNL     1      44.183   4.133   9.107  0.00  0.00    +0.000 C 
ATOM     22  C   UNL     1      44.604   2.698   8.717  0.00  0.00    +0.000 C 
ATOM     23  C   UNL     1      45.890   3.259   8.101  0.00  0.00    +0.000 C 
ATOM     24  C   UNL     1      45.627   4.590   8.824  0.00  0.00    +0.000 C 
ENDBRANCH  20  21
ENDBRANCH   6  20
TORSDOF 7
ENDMDL
MODEL 7
REMARK VINA RESULT:    -5.662      2.929      6.274
REMARK INTER + INTRA:          -9.021
REMARK INTER:                  -8.257
REMARK INTRA:                  -0.764
REMARK UNBOUND:                -1.042
REMARK  Name = 
REMARK  7 active torsions:
REMARK  status: ('A' for Active; 'I' for Inactive)
REMARK    1  A    between atoms: C_2  and  C_4
REMARK    2  A    between atoms: C_7  and  N_8
REMARK    3  A    between atoms: N_8  and  C_9
REMARK    4  A    between atoms: C_9  and  C_10
REMARK    5  A    between atoms: C_10  and  C_11
REMARK    6  A    between atoms: C_16  and  O_17
REMARK    7  A    between atoms: O_17  and  C_18
REMARK                            x       y       z     vdW  Elec       q    Type
REMARK                         _______ _______ _______ _____ _____    ______ ____
ROOT
ATOM      1  C   UNL     1      45.144   4.706  11.648  0.00  0.00    +0.000 A 
ATOM      2  C   UNL     1      45.529   3.644  12.491  0.00  0.00    +0.000 A 
ATOM      3  C   UNL     1      46.302   3.864  13.633  0.00  0.00    +0.000 A 
ATOM      4  C   UNL     1      46.696   5.151  13.980  0.00  0.00    +0.000 A 
ATOM      5  C   UNL     1      46.350   6.195  13.120  0.00  0.00    +0.000 A 
ATOM      6  C   UNL     1      45.547   6.012  11.982  0.00  0.00    +0.000 A 
ENDROOT
BRANCH   1   8
ATOM      7  N   UNL     1      44.640   4.901   9.260  0.00  0.00    +0.000 N 
ATOM      8  C   UNL     1      44.343   4.315  10.452  0.00  0.00    +0.000 C 
ATOM      9  O   UNL     1      43.452   3.474  10.513  0.00  0.00    +0.000 OA
ATOM     10  H   UNL     1      44.126   4.599   8.442  0.00  0.00    +0.000 HD
ATOM     11  H   UNL     1      45.375   5.579   9.168  0.00  0.00    +0.000 HD
ENDBRANCH   1   8
BRANCH   4  12
ATOM     12  N   UNL     1      47.502   5.328  15.115  0.00  0.00    +0.000 N 
ATOM     13  H   UNL     1      47.391   6.288  15.445  0.00  0.00    +0.000 HD
BRANCH  12  14
ATOM     14  C   UNL     1      47.389   4.369  16.214  0.00  0.00    +0.000 C 
BRANCH  14  15
ATOM     15  C   UNL     1      48.584   4.488  17.165  0.00  0.00    +0.000 C 
BRANCH  15  16
ATOM     16  C   UNL     1      49.118   3.112  17.528  0.00  0.00    +0.000 C 
ATOM     17  C   UNL     1      50.634   2.939  17.376  0.00  0.00    +0.000 C 
ATOM     18  O   UNL     1      50.453   1.733  16.592  0.00  0.00    +0.000 OA
ATOM     19  C   UNL     1      49.040   2.010  16.463  0.00  0.00    +0.000 C 
ENDBRANCH  15  16
ENDBRANCH  14  15
ENDBRANCH  12  14
ENDBRANCH   4  12
BRANCH   6  20
ATOM     20  O   UNL     1      45.190   7.091  11.190  0.00  0.00    +0.000 OA
BRANCH  20  21
ATOM     21  C   UNL     1      44.795   8.328  11.851  0.00  0.00    +0.000 C 
ATOM     22  C   UNL     1      44.008   9.346  10.995  0.00  0.00    +0.000 C 
ATOM     23  C   UNL     1      44.921  10.464  11.509  0.00  0.00    +0.000 C 
ATOM     24  C   UNL     1      45.893   9.394  12.034  0.00  0.00    +0.000 C 
ENDBRANCH  20  21
ENDBRANCH   6  20
TORSDOF 7
ENDMDL
MODEL 8
REMARK VINA RESULT:    -5.467      3.700      6.722
REMARK INTER + INTRA:          -8.747
REMARK INTER:                  -7.465
REMARK INTRA:                  -1.282
REMARK UNBOUND:                -1.042
REMARK  Name = 
REMARK  7 active torsions:
REMARK  status: ('A' for Active; 'I' for Inactive)
REMARK    1  A    between atoms: C_2  and  C_4
REMARK    2  A    between atoms: C_7  and  N_8
REMARK    3  A    between atoms: N_8  and  C_9
REMARK    4  A    between atoms: C_9  and  C_10
REMARK    5  A    between atoms: C_10  and  C_11
REMARK    6  A    between atoms: C_16  and  O_17
REMARK    7  A    between atoms: O_17  and  C_18
REMARK                            x       y       z     vdW  Elec       q    Type
REMARK                         _______ _______ _______ _____ _____    ______ ____
ROOT
ATOM      1  C   UNL     1      45.261   4.870  12.791  0.00  0.00    +0.000 A 
ATOM      2  C   UNL     1      45.318   5.745  11.688  0.00  0.00    +0.000 A 
ATOM      3  C   UNL     1      46.402   6.605  11.496  0.00  0.00    +0.000 A 
ATOM      4  C   UNL     1      47.470   6.601  12.386  0.00  0.00    +0.000 A 
ATOM      5  C   UNL     1      47.390   5.764  13.500  0.00  0.00    +0.000 A 
ATOM      6  C   UNL     1      46.330   4.866  13.705  0.00  0.00    +0.000 A 
ENDROOT
BRANCH   1   8
ATOM      7  N   UNL     1      44.142   2.696  12.646  0.00  0.00    +0.000 N 
ATOM      8  C   UNL     1      44.029   4.032  12.879  0.00  0.00    +0.000 C 
ATOM      9  O   UNL     1      42.938   4.510  13.174  0.00  0.00    +0.000 OA
ATOM     10  H   UNL     1      43.313   2.125  12.752  0.00  0.00    +0.000 HD
ATOM     11  H   UNL     1      45.021   2.267  12.421  0.00  0.00    +0.000 HD
ENDBRANCH   1   8
BRANCH   4  12
ATOM     12  N   UNL     1      48.525   7.504  12.179  0.00  0.00    +0.000 N 
ATOM     13  H   UNL     1      48.147   8.452  12.188  0.00  0.00    +0.000 HD
BRANCH  12  14
ATOM     14  C   UNL     1      49.718   7.395  13.019  0.00  0.00    +0.000 C 
BRANCH  14  15
ATOM     15  C   UNL     1      49.999   8.719  13.737  0.00  0.00    +0.000 C 
BRANCH  15  16
ATOM     16  C   UNL     1      49.988   8.522  15.244  0.00  0.00    +0.000 C 
ATOM     17  C   UNL     1      50.044   7.063  15.713  0.00  0.00    +0.000 C 
ATOM     18  O   UNL     1      48.898   7.259  16.577  0.00  0.00    +0.000 OA
ATOM     19  C   UNL     1      48.630   8.538  15.958  0.00  0.00    +0.000 C 
ENDBRANCH  15  16
ENDBRANCH  14  15
ENDBRANCH  12  14
ENDBRANCH   4  12
BRANCH   6  20
ATOM     20  O   UNL     1      46.324   4.020  14.802  0.00  0.00    +0.000 OA
BRANCH  20  21
ATOM     21  C   UNL     1      47.427   4.117  15.751  0.00  0.00    +0.000 C 
ATOM     22  C   UNL     1      48.148   2.797  16.106  0.00  0.00    +0.000 C 
ATOM     23  C   UNL     1      48.074   3.173  17.590  0.00  0.00    +0.000 C 
ATOM     24  C   UNL     1      47.048   4.262  17.237  0.00  0.00    +0.000 C 
ENDBRANCH  20  21
ENDBRANCH   6  20
TORSDOF 7
ENDMDL
MODEL 9
REMARK VINA RESULT:    -5.463      3.014      6.981
REMARK INTER + INTRA:          -8.741
REMARK INTER:                  -7.473
REMARK INTRA:                  -1.268
REMARK UNBOUND:                -1.042
REMARK  Name = 
REMARK  7 active torsions:
REMARK  status: ('A' for Active; 'I' for Inactive)
REMARK    1  A    between atoms: C_2  and  C_4
REMARK    2  A    between atoms: C_7  and  N_8
REMARK    3  A    between atoms: N_8  and  C_9
REMARK    4  A    between atoms: C_9  and  C_10
REMARK    5  A    between atoms: C_10  and  C_11
REMARK    6  A    between atoms: C_16  and  O_17
REMARK    7  A    between atoms: O_17  and  C_18
REMARK                            x       y       z     vdW  Elec       q    Type
REMARK                         _______ _______ _______ _____ _____    ______ ____
ROOT
ATOM      1  C   UNL     1      45.488   7.885  11.949  0.00  0.00    +0.000 A 
ATOM      2  C   UNL     1      46.031   8.784  12.889  0.00  0.00    +0.000 A 
ATOM      3  C   UNL     1      47.178   8.469  13.620  0.00  0.00    +0.000 A 
ATOM      4  C   UNL     1      47.831   7.258  13.419  0.00  0.00    +0.000 A 
ATOM      5  C   UNL     1      47.266   6.352  12.519  0.00  0.00    +0.000 A 
ATOM      6  C   UNL     1      46.132   6.651  11.747  0.00  0.00    +0.000 A 
ENDROOT
BRANCH   1   8
ATOM      7  N   UNL     1      43.216   7.466  11.138  0.00  0.00    +0.000 N 
ATOM      8  C   UNL     1      44.244   8.347  11.267  0.00  0.00    +0.000 C 
ATOM      9  O   UNL     1      44.122   9.493  10.845  0.00  0.00    +0.000 OA
ATOM     10  H   UNL     1      42.358   7.796  10.716  0.00  0.00    +0.000 HD
ATOM     11  H   UNL     1      43.272   6.526  11.487  0.00  0.00    +0.000 HD
ENDBRANCH   1   8
BRANCH   4  12
ATOM     12  N   UNL     1      48.961   6.963  14.197  0.00  0.00    +0.000 N 
ATOM     13  H   UNL     1      49.767   7.443  13.794  0.00  0.00    +0.000 HD
BRANCH  12  14
ATOM     14  C   UNL     1      48.890   7.161  15.645  0.00  0.00    +0.000 C 
BRANCH  14  15
ATOM     15  C   UNL     1      49.199   5.858  16.388  0.00  0.00    +0.000 C 
BRANCH  15  16
ATOM     16  C   UNL     1      47.914   5.155  16.791  0.00  0.00    +0.000 C 
ATOM     17  C   UNL     1      48.102   3.856  17.585  0.00  0.00    +0.000 C 
ATOM     18  O   UNL     1      47.220   3.138  16.687  0.00  0.00    +0.000 OA
ATOM     19  C   UNL     1      47.242   4.243  15.755  0.00  0.00    +0.000 C 
ENDBRANCH  15  16
ENDBRANCH  14  15
ENDBRANCH  12  14
ENDBRANCH   4  12
BRANCH   6  20
ATOM     20  O   UNL     1      45.642   5.735  10.830  0.00  0.00    +0.000 OA
BRANCH  20  21
ATOM     21  C   UNL     1      45.197   4.438  11.326  0.00  0.00    +0.000 C 
ATOM     22  C   UNL     1      44.003   3.792  10.588  0.00  0.00    +0.000 C 
ATOM     23  C   UNL     1      43.354   3.480  11.941  0.00  0.00    +0.000 C 
ATOM     24  C   UNL     1      44.347   4.444  12.611  0.00  0.00    +0.000 C 
ENDBRANCH  20  21
ENDBRANCH   6  20
TORSDOF 7
ENDMDL
