MODEL 1
REMARK VINA RESULT:    -9.603      0.000      0.000
REMARK INTER + INTRA:         -13.517
REMARK INTER:                 -12.410
REMARK INTRA:                  -1.106
REMARK UNBOUND:                -1.106
REMARK  Name = 
REMARK  5 active torsions:
REMARK  status: ('A' for Active; 'I' for Inactive)
REMARK    1  A    between atoms: C_2  and  C_4
REMARK    2  A    between atoms: N_8  and  C_9
REMARK    3  A    between atoms: C_9  and  C_10
REMARK    4  A    between atoms: C_10  and  C_13
REMARK    5  A    between atoms: C_17  and  C_18
REMARK                            x       y       z     vdW  Elec       q    Type
REMARK                         _______ _______ _______ _____ _____    ______ ____
ROOT
ATOM      1  C   UNL     1      43.237   5.736  11.973  0.00  0.00    +0.000 C 
ATOM      2  F   UNL     1      42.875   6.975  11.529  0.00  0.00    +0.000 F 
ATOM      3  F   UNL     1      42.265   5.365  12.856  0.00  0.00    +0.000 F 
ENDROOT
BRANCH   1   4
ATOM      4  C   UNL     1      44.622   5.732  12.596  0.00  0.00    +0.000 A 
ATOM      5  C   UNL     1      45.092   4.611  13.289  0.00  0.00    +0.000 A 
ATOM      6  C   UNL     1      46.401   4.581  13.760  0.00  0.00    +0.000 A 
ATOM      7  C   UNL     1      47.258   5.659  13.519  0.00  0.00    +0.000 A 
ATOM      8  C   UNL     1      46.837   6.787  12.792  0.00  0.00    +0.000 A 
ATOM      9  C   UNL     1      45.494   6.814  12.372  0.00  0.00    +0.000 A 
BRANCH   8  10
ATOM     10  C   UNL     1      47.785   7.850  12.382  0.00  0.00    +0.000 A 
ATOM     11  C   UNL     1      49.110   7.530  12.021  0.00  0.00    +0.000 A 
ATOM     12  C   UNL     1      49.987   8.495  11.521  0.00  0.00    +0.000 A 
ATOM     13  C   UNL     1      49.549   9.800  11.370  0.00  0.00    +0.000 A 
ATOM     14  F   UNL     1      50.375  10.719  10.854  0.00  0.00    +0.000 F 
ATOM     15  C   UNL     1      48.260  10.163  11.734  0.00  0.00    +0.000 A 
ATOM     16  C   UNL     1      47.388   9.196  12.248  0.00  0.00    +0.000 A 
ENDBRANCH   8  10
ENDBRANCH   1   4
BRANCH   1  17
ATOM     17  C   UNL     1      43.236   4.753  10.776  0.00  0.00    +0.000 C 
BRANCH  17  22
ATOM     18  C   UNL     1      46.491   2.331   7.644  0.00  0.00    +0.000 A 
ATOM     19  C   UNL     1      45.709   1.866   8.694  0.00  0.00    +0.000 A 
ATOM     20  C   UNL     1      44.931   2.777   9.407  0.00  0.00    +0.000 A 
ATOM     21  C   UNL     1      44.941   4.128   9.066  0.00  0.00    +0.000 A 
ATOM     22  N   UNL     1      44.189   5.068   9.718  0.00  0.00    +0.000 N 
ATOM     23  N   UNL     1      45.714   4.587   8.065  0.00  0.00    +0.000 NA
ATOM     24  C   UNL     1      46.481   3.693   7.384  0.00  0.00    +0.000 A 
ATOM     25  H   UNL     1      44.267   6.013   9.359  0.00  0.00    +0.000 HD
BRANCH  18  27
ATOM     26  N   UNL     1      48.426   1.981   6.223  0.00  0.00    +0.000 N 
ATOM     27  C   UNL     1      47.326   1.432   6.825  0.00  0.00    +0.000 C 
ATOM     28  O   UNL     1      47.070   0.240   6.717  0.00  0.00    +0.000 OA
ATOM     29  H   UNL     1      49.049   1.337   5.752  0.00  0.00    +0.000 HD
ATOM     30  H   UNL     1      48.802   2.877   6.497  0.00  0.00    +0.000 HD
ENDBRANCH  18  27
ENDBRANCH  17  22
ENDBRANCH   1  17
TORSDOF 5
ENDMDL
MODEL 2
REMARK VINA RESULT:    -9.492      2.760      4.044
REMARK INTER + INTRA:         -13.373
REMARK INTER:                 -12.213
REMARK INTRA:                  -1.160
REMARK UNBOUND:                -1.106
REMARK  Name = 
REMARK  5 active torsions:
REMARK  status: ('A' for Active; 'I' for Inactive)
REMARK    1  A    between atoms: C_2  and  C_4
REMARK    2  A    between atoms: N_8  and  C_9
REMARK    3  A    between atoms: C_9  and  C_10
REMARK    4  A    between atoms: C_10  and  C_13
REMARK    5  A    between atoms: C_17  and  C_18
REMARK                            x       y       z     vdW  Elec       q    Type
REMARK                         _______ _______ _______ _____ _____    ______ ____
ROOT
ATOM      1  C   UNL     1      43.626   4.618  12.506  0.00  0.00    +0.000 C 
ATOM      2  F   UNL     1      42.720   5.530  12.965  0.00  0.00    +0.000 F 
ATOM      3  F   UNL     1      43.367   3.467  13.193  0.00  0.00    +0.000 F 
ENDROOT
BRANCH   1   4
ATOM      4  C   UNL     1      45.057   5.092  12.684  0.00  0.00    +0.000 A 
ATOM      5  C   UNL     1      45.624   6.009  11.792  0.00  0.00    +0.000 A 
ATOM      6  C   UNL     1      46.898   6.516  12.030  0.00  0.00    +0.000 A 
ATOM      7  C   UNL     1      47.604   6.131  13.173  0.00  0.00    +0.000 A 
ATOM      8  C   UNL     1      47.054   5.242  14.114  0.00  0.00    +0.000 A 
ATOM      9  C   UNL     1      45.787   4.705  13.825  0.00  0.00    +0.000 A 
BRANCH   8  10
ATOM     10  C   UNL     1      47.720   4.968  15.410  0.00  0.00    +0.000 A 
ATOM     11  C   UNL     1      47.510   3.746  16.081  0.00  0.00    +0.000 A 
ATOM     12  C   UNL     1      48.213   3.417  17.242  0.00  0.00    +0.000 A 
ATOM     13  C   UNL     1      49.146   4.307  17.748  0.00  0.00    +0.000 A 
ATOM     14  F   UNL     1      49.850   3.977  18.839  0.00  0.00    +0.000 F 
ATOM     15  C   UNL     1      49.367   5.530  17.132  0.00  0.00    +0.000 A 
ATOM     16  C   UNL     1      48.651   5.863  15.977  0.00  0.00    +0.000 A 
ENDBRANCH   8  10
ENDBRANCH   1   4
BRANCH   1  17
ATOM     17  C   UNL     1      43.374   4.374  10.997  0.00  0.00    +0.000 C 
BRANCH  17  22
ATOM     18  C   UNL     1      46.539   2.579   7.389  0.00  0.00    +0.000 A 
ATOM     19  C   UNL     1      46.107   3.868   7.673  0.00  0.00    +0.000 A 
ATOM     20  C   UNL     1      45.199   4.059   8.713  0.00  0.00    +0.000 A 
ATOM     21  C   UNL     1      44.738   2.971   9.450  0.00  0.00    +0.000 A 
ATOM     22  N   UNL     1      43.857   3.094  10.492  0.00  0.00    +0.000 N 
ATOM     23  N   UNL     1      45.135   1.717   9.165  0.00  0.00    +0.000 NA
ATOM     24  C   UNL     1      46.011   1.540   8.139  0.00  0.00    +0.000 A 
ATOM     25  H   UNL     1      43.617   2.229  10.963  0.00  0.00    +0.000 HD
BRANCH  18  27
ATOM     26  N   UNL     1      47.534   3.143   5.249  0.00  0.00    +0.000 N 
ATOM     27  C   UNL     1      47.516   2.291   6.320  0.00  0.00    +0.000 C 
ATOM     28  O   UNL     1      48.300   1.355   6.402  0.00  0.00    +0.000 OA
ATOM     29  H   UNL     1      48.275   3.001   4.574  0.00  0.00    +0.000 HD
ATOM     30  H   UNL     1      47.093   4.051   5.272  0.00  0.00    +0.000 HD
ENDBRANCH  18  27
ENDBRANCH  17  22
ENDBRANCH   1  17
TORSDOF 5
ENDMDL
MODEL 3
REMARK VINA RESULT:    -8.999      1.907      2.553
REMARK INTER + INTRA:         -12.735
REMARK INTER:                 -11.432
REMARK INTRA:                  -1.304
REMARK UNBOUND:                -1.106
REMARK  Name = 
REMARK  5 active torsions:
REMARK  status: ('A' for Active; 'I' for Inactive)
REMARK    1  A    between atoms: C_2  and  C_4
REMARK    2  A    between atoms: N_8  and  C_9
REMARK    3  A    between atoms: C_9  and  C_10
REMARK    4  A    between atoms: C_10  and  C_13
REMARK    5  A    between atoms: C_17  and  C_18
REMARK                            x       y       z     vdW  Elec       q    Type
REMARK                         _______ _______ _______ _____ _____    ______ ____
ROOT
ATOM      1  C   UNL     1      44.189   3.932  12.398  0.00  0.00    +0.000 C 
ATOM      2  F   UNL     1      43.361   3.963  13.483  0.00  0.00    +0.000 F 
ATOM      3  F   UNL     1      45.197   3.073  12.729  0.00  0.00    +0.000 F 
ENDROOT
BRANCH   1   4
ATOM      4  C   UNL     1      44.700   5.313  12.027  0.00  0.00    +0.000 A 
ATOM      5  C   UNL     1      43.834   6.283  11.509  0.00  0.00    +0.000 A 
ATOM      6  C   UNL     1      44.293   7.575  11.277  0.00  0.00    +0.000 A 
ATOM      7  C   UNL     1      45.613   7.916  11.584  0.00  0.00    +0.000 A 
ATOM      8  C   UNL     1      46.504   6.983  12.143  0.00  0.00    +0.000 A 
ATOM      9  C   UNL     1      46.030   5.670  12.320  0.00  0.00    +0.000 A 
BRANCH   8  10
ATOM     10  C   UNL     1      47.845   7.381  12.633  0.00  0.00    +0.000 A 
ATOM     11  C   UNL     1      48.233   7.111  13.962  0.00  0.00    +0.000 A 
ATOM     12  C   UNL     1      49.529   7.370  14.414  0.00  0.00    +0.000 A 
ATOM     13  C   UNL     1      50.462   7.902  13.539  0.00  0.00    +0.000 A 
ATOM     14  F   UNL     1      51.715   8.116  13.959  0.00  0.00    +0.000 F 
ATOM     15  C   UNL     1      50.115   8.204  12.230  0.00  0.00    +0.000 A 
ATOM     16  C   UNL     1      48.813   7.956  11.783  0.00  0.00    +0.000 A 
ENDBRANCH   8  10
ENDBRANCH   1   4
BRANCH   1  17
ATOM     17  C   UNL     1      43.412   3.356  11.188  0.00  0.00    +0.000 C 
BRANCH  17  22
ATOM     18  C   UNL     1      46.550   2.695   7.190  0.00  0.00    +0.000 A 
ATOM     19  C   UNL     1      45.905   3.827   7.675  0.00  0.00    +0.000 A 
ATOM     20  C   UNL     1      45.067   3.700   8.781  0.00  0.00    +0.000 A 
ATOM     21  C   UNL     1      44.885   2.459   9.386  0.00  0.00    +0.000 A 
ATOM     22  N   UNL     1      44.086   2.272  10.483  0.00  0.00    +0.000 N 
ATOM     23  N   UNL     1      45.488   1.355   8.907  0.00  0.00    +0.000 NA
ATOM     24  C   UNL     1      46.293   1.486   7.818  0.00  0.00    +0.000 A 
ATOM     25  H   UNL     1      44.055   1.325  10.843  0.00  0.00    +0.000 HD
BRANCH  18  27
ATOM     26  N   UNL     1      48.788   2.470   6.282  0.00  0.00    +0.000 N 
ATOM     27  C   UNL     1      47.471   2.745   6.038  0.00  0.00    +0.000 C 
ATOM     28  O   UNL     1      47.069   2.984   4.906  0.00  0.00    +0.000 OA
ATOM     29  H   UNL     1      49.392   2.403   5.472  0.00  0.00    +0.000 HD
ATOM     30  H   UNL     1      49.099   2.025   7.132  0.00  0.00    +0.000 HD
ENDBRANCH  18  27
ENDBRANCH  17  22
ENDBRANCH   1  17
TORSDOF 5
ENDMDL
MODEL 4
REMARK VINA RESULT:    -8.707      4.054      7.189
REMARK INTER + INTRA:         -12.359
REMARK INTER:                 -11.168
REMARK INTRA:                  -1.191
REMARK UNBOUND:                -1.106
REMARK  Name = 
REMARK  5 active torsions:
REMARK  status: ('A' for Active; 'I' for Inactive)
REMARK    1  A    between atoms: C_2  and  C_4
REMARK    2  A    between atoms: N_8  and  C_9
REMARK    3  A    between atoms: C_9  and  C_10
REMARK    4  A    between atoms: C_10  and  C_13
REMARK    5  A    between atoms: C_17  and  C_18
REMARK                            x       y       z     vdW  Elec       q    Type
REMARK                         _______ _______ _______ _____ _____    ______ ____
ROOT
ATOM      1  C   UNL     1      45.704   7.644  12.036  0.00  0.00    +0.000 C 
ATOM      2  F   UNL     1      45.334   8.060  13.283  0.00  0.00    +0.000 F 
ATOM      3  F   UNL     1      45.513   8.720  11.219  0.00  0.00    +0.000 F 
ENDROOT
BRANCH   1   4
ATOM      4  C   UNL     1      44.922   6.423  11.584  0.00  0.00    +0.000 A 
ATOM      5  C   UNL     1      43.575   6.267  11.925  0.00  0.00    +0.000 A 
ATOM      6  C   UNL     1      42.844   5.201  11.413  0.00  0.00    +0.000 A 
ATOM      7  C   UNL     1      43.446   4.296  10.534  0.00  0.00    +0.000 A 
ATOM      8  C   UNL     1      44.787   4.439  10.134  0.00  0.00    +0.000 A 
ATOM      9  C   UNL     1      45.517   5.496  10.706  0.00  0.00    +0.000 A 
BRANCH   8  10
ATOM     10  C   UNL     1      45.378   3.591   9.072  0.00  0.00    +0.000 A 
ATOM     11  C   UNL     1      46.050   4.175   7.978  0.00  0.00    +0.000 A 
ATOM     12  C   UNL     1      46.715   3.399   7.026  0.00  0.00    +0.000 A 
ATOM     13  C   UNL     1      46.722   2.020   7.158  0.00  0.00    +0.000 A 
ATOM     14  F   UNL     1      47.392   1.275   6.269  0.00  0.00    +0.000 F 
ATOM     15  C   UNL     1      46.055   1.403   8.206  0.00  0.00    +0.000 A 
ATOM     16  C   UNL     1      45.378   2.183   9.150  0.00  0.00    +0.000 A 
ENDBRANCH   8  10
ENDBRANCH   1   4
BRANCH   1  17
ATOM     17  C   UNL     1      47.210   7.282  12.052  0.00  0.00    +0.000 C 
BRANCH  17  22
ATOM     18  C   UNL     1      47.878   4.330  16.188  0.00  0.00    +0.000 A 
ATOM     19  C   UNL     1      47.134   4.134  15.030  0.00  0.00    +0.000 A 
ATOM     20  C   UNL     1      47.109   5.145  14.070  0.00  0.00    +0.000 A 
ATOM     21  C   UNL     1      47.819   6.325  14.274  0.00  0.00    +0.000 A 
ATOM     22  N   UNL     1      47.845   7.348  13.364  0.00  0.00    +0.000 N 
ATOM     23  N   UNL     1      48.522   6.529  15.404  0.00  0.00    +0.000 NA
ATOM     24  C   UNL     1      48.529   5.543  16.341  0.00  0.00    +0.000 A 
ATOM     25  H   UNL     1      48.418   8.144  13.620  0.00  0.00    +0.000 HD
BRANCH  18  27
ATOM     26  N   UNL     1      46.803   2.779  17.713  0.00  0.00    +0.000 N 
ATOM     27  C   UNL     1      47.976   3.303  17.244  0.00  0.00    +0.000 C 
ATOM     28  O   UNL     1      49.059   2.910  17.658  0.00  0.00    +0.000 OA
ATOM     29  H   UNL     1      46.883   2.003  18.359  0.00  0.00    +0.000 HD
ATOM     30  H   UNL     1      45.927   2.888  17.222  0.00  0.00    +0.000 HD
ENDBRANCH  18  27
ENDBRANCH  17  22
ENDBRANCH   1  17
TORSDOF 5
ENDMDL
MODEL 5
REMARK VINA RESULT:    -7.970      3.578      6.827
REMARK INTER + INTRA:         -11.406
REMARK INTER:                 -10.337
REMARK INTRA:                  -1.070
REMARK UNBOUND:                -1.106
REMARK  Name = 
REMARK  5 active torsions:
REMARK  status: ('A' for Active; 'I' for Inactive)
REMARK    1  A    between atoms: C_2  and  C_4
REMARK    2  A    between atoms: N_8  and  C_9
REMARK    3  A    between atoms: C_9  and  C_10
REMARK    4  A    between atoms: C_10  and  C_13
REMARK    5  A    between atoms: C_17  and  C_18
REMARK                            x       y       z     vdW  Elec       q    Type
REMARK                         _______ _______ _______ _____ _____    ______ ____
ROOT
ATOM      1  C   UNL     1      43.897   6.293  11.451  0.00  0.00    +0.000 C 
ATOM      2  F   UNL     1      42.584   6.656  11.541  0.00  0.00    +0.000 F 
ATOM      3  F   UNL     1      44.437   7.105  10.496  0.00  0.00    +0.000 F 
ENDROOT
BRANCH   1   4
ATOM      4  C   UNL     1      44.064   4.820  11.124  0.00  0.00    +0.000 A 
ATOM      5  C   UNL     1      43.293   3.849  11.774  0.00  0.00    +0.000 A 
ATOM      6  C   UNL     1      43.379   2.516  11.387  0.00  0.00    +0.000 A 
ATOM      7  C   UNL     1      44.215   2.145  10.329  0.00  0.00    +0.000 A 
ATOM      8  C   UNL     1      44.976   3.095   9.624  0.00  0.00    +0.000 A 
ATOM      9  C   UNL     1      44.910   4.428  10.068  0.00  0.00    +0.000 A 
BRANCH   8  10
ATOM     10  C   UNL     1      45.725   2.737   8.395  0.00  0.00    +0.000 A 
ATOM     11  C   UNL     1      45.982   3.707   7.404  0.00  0.00    +0.000 A 
ATOM     12  C   UNL     1      46.783   3.426   6.295  0.00  0.00    +0.000 A 
ATOM     13  C   UNL     1      47.345   2.167   6.162  0.00  0.00    +0.000 A 
ATOM     14  F   UNL     1      48.145   1.906   5.120  0.00  0.00    +0.000 F 
ATOM     15  C   UNL     1      47.099   1.177   7.103  0.00  0.00    +0.000 A 
ATOM     16  C   UNL     1      46.285   1.457   8.206  0.00  0.00    +0.000 A 
ENDBRANCH   8  10
ENDBRANCH   1   4
BRANCH   1  17
ATOM     17  C   UNL     1      44.592   6.575  12.806  0.00  0.00    +0.000 C 
BRANCH  17  22
ATOM     18  C   UNL     1      49.164   8.655  11.787  0.00  0.00    +0.000 A 
ATOM     19  C   UNL     1      48.720   7.339  11.730  0.00  0.00    +0.000 A 
ATOM     20  C   UNL     1      47.407   7.057  12.106  0.00  0.00    +0.000 A 
ATOM     21  C   UNL     1      46.562   8.080  12.529  0.00  0.00    +0.000 A 
ATOM     22  N   UNL     1      45.260   7.868  12.898  0.00  0.00    +0.000 N 
ATOM     23  N   UNL     1      46.994   9.352  12.609  0.00  0.00    +0.000 NA
ATOM     24  C   UNL     1      48.281   9.615  12.254  0.00  0.00    +0.000 A 
ATOM     25  H   UNL     1      44.743   8.699  13.164  0.00  0.00    +0.000 HD
BRANCH  18  27
ATOM     26  N   UNL     1      50.827  10.379  11.404  0.00  0.00    +0.000 N 
ATOM     27  C   UNL     1      50.530   9.044  11.387  0.00  0.00    +0.000 C 
ATOM     28  O   UNL     1      51.374   8.208  11.089  0.00  0.00    +0.000 OA
ATOM     29  H   UNL     1      51.793  10.628  11.231  0.00  0.00    +0.000 HD
ATOM     30  H   UNL     1      50.251  11.055  11.883  0.00  0.00    +0.000 HD
ENDBRANCH  18  27
ENDBRANCH  17  22
ENDBRANCH   1  17
TORSDOF 5
ENDMDL
MODEL 6
REMARK VINA RESULT:    -7.505      4.656      7.965
REMARK INTER + INTRA:         -10.805
REMARK INTER:                  -9.917
REMARK INTRA:                  -0.888
REMARK UNBOUND:                -1.106
REMARK  Name = 
REMARK  5 active torsions:
REMARK  status: ('A' for Active; 'I' for Inactive)
REMARK    1  A    between atoms: C_2  and  C_4
REMARK    2  A    between atoms: N_8  and  C_9
REMARK    3  A    between atoms: C_9  and  C_10
REMARK    4  A    between atoms: C_10  and  C_13
REMARK    5  A    between atoms: C_17  and  C_18
REMARK                            x       y       z     vdW  Elec       q    Type
REMARK                         _______ _______ _______ _____ _____    ______ ____
ROOT
ATOM      1  C   UNL     1      45.592   7.524  12.005  0.00  0.00    +0.000 C 
ATOM      2  F   UNL     1      45.217   7.914  13.258  0.00  0.00    +0.000 F 
ATOM      3  F   UNL     1      45.291   8.575  11.187  0.00  0.00    +0.000 F 
ENDROOT
BRANCH   1   4
ATOM      4  C   UNL     1      44.907   6.239  11.575  0.00  0.00    +0.000 A 
ATOM      5  C   UNL     1      43.609   5.940  12.004  0.00  0.00    +0.000 A 
ATOM      6  C   UNL     1      42.954   4.814  11.516  0.00  0.00    +0.000 A 
ATOM      7  C   UNL     1      43.581   3.991  10.575  0.00  0.00    +0.000 A 
ATOM      8  C   UNL     1      44.869   4.277  10.089  0.00  0.00    +0.000 A 
ATOM      9  C   UNL     1      45.528   5.393  10.636  0.00  0.00    +0.000 A 
BRANCH   8  10
ATOM     10  C   UNL     1      45.467   3.514   8.967  0.00  0.00    +0.000 A 
ATOM     11  C   UNL     1      46.051   4.185   7.873  0.00  0.00    +0.000 A 
ATOM     12  C   UNL     1      46.722   3.492   6.862  0.00  0.00    +0.000 A 
ATOM     13  C   UNL     1      46.823   2.113   6.934  0.00  0.00    +0.000 A 
ATOM     14  F   UNL     1      47.499   1.450   5.987  0.00  0.00    +0.000 F 
ATOM     15  C   UNL     1      46.242   1.411   7.981  0.00  0.00    +0.000 A 
ATOM     16  C   UNL     1      45.559   2.107   8.985  0.00  0.00    +0.000 A 
ENDBRANCH   8  10
ENDBRANCH   1   4
BRANCH   1  17
ATOM     17  C   UNL     1      47.124   7.292  11.986  0.00  0.00    +0.000 C 
BRANCH  17  22
ATOM     18  C   UNL     1      49.064   7.538  16.723  0.00  0.00    +0.000 A 
ATOM     19  C   UNL     1      48.725   8.535  15.817  0.00  0.00    +0.000 A 
ATOM     20  C   UNL     1      48.242   8.166  14.562  0.00  0.00    +0.000 A 
ATOM     21  C   UNL     1      48.104   6.820  14.231  0.00  0.00    +0.000 A 
ATOM     22  N   UNL     1      47.623   6.394  13.022  0.00  0.00    +0.000 N 
ATOM     23  N   UNL     1      48.452   5.850  15.097  0.00  0.00    +0.000 NA
ATOM     24  C   UNL     1      48.936   6.221  16.314  0.00  0.00    +0.000 A 
ATOM     25  H   UNL     1      47.548   5.389  12.913  0.00  0.00    +0.000 HD
BRANCH  18  27
ATOM     26  N   UNL     1      49.039   8.941  18.702  0.00  0.00    +0.000 N 
ATOM     27  C   UNL     1      49.562   7.842  18.079  0.00  0.00    +0.000 C 
ATOM     28  O   UNL     1      50.379   7.122  18.639  0.00  0.00    +0.000 OA
ATOM     29  H   UNL     1      49.306   9.081  19.669  0.00  0.00    +0.000 HD
ATOM     30  H   UNL     1      48.195   9.394  18.383  0.00  0.00    +0.000 HD
ENDBRANCH  18  27
ENDBRANCH  17  22
ENDBRANCH   1  17
TORSDOF 5
ENDMDL
MODEL 7
REMARK VINA RESULT:    -7.411      4.224      7.580
REMARK INTER + INTRA:         -10.683
REMARK INTER:                  -9.435
REMARK INTRA:                  -1.249
REMARK UNBOUND:                -1.106
REMARK  Name = 
REMARK  5 active torsions:
REMARK  status: ('A' for Active; 'I' for Inactive)
REMARK    1  A    between atoms: C_2  and  C_4
REMARK    2  A    between atoms: N_8  and  C_9
REMARK    3  A    between atoms: C_9  and  C_10
REMARK    4  A    between atoms: C_10  and  C_13
REMARK    5  A    between atoms: C_17  and  C_18
REMARK                            x       y       z     vdW  Elec       q    Type
REMARK                         _______ _______ _______ _____ _____    ______ ____
ROOT
ATOM      1  C   UNL     1      48.314   8.854  12.513  0.00  0.00    +0.000 C 
ATOM      2  F   UNL     1      48.328   9.549  13.687  0.00  0.00    +0.000 F 
ATOM      3  F   UNL     1      48.835   9.702  11.579  0.00  0.00    +0.000 F 
ENDROOT
BRANCH   1   4
ATOM      4  C   UNL     1      46.921   8.372  12.148  0.00  0.00    +0.000 A 
ATOM      5  C   UNL     1      45.834   9.254  12.146  0.00  0.00    +0.000 A 
ATOM      6  C   UNL     1      44.587   8.824  11.705  0.00  0.00    +0.000 A 
ATOM      7  C   UNL     1      44.422   7.517  11.237  0.00  0.00    +0.000 A 
ATOM      8  C   UNL     1      45.496   6.611  11.184  0.00  0.00    +0.000 A 
ATOM      9  C   UNL     1      46.734   7.056  11.684  0.00  0.00    +0.000 A 
BRANCH   8  10
ATOM     10  C   UNL     1      45.370   5.288  10.528  0.00  0.00    +0.000 A 
ATOM     11  C   UNL     1      44.846   4.185  11.232  0.00  0.00    +0.000 A 
ATOM     12  C   UNL     1      44.609   2.960  10.604  0.00  0.00    +0.000 A 
ATOM     13  C   UNL     1      44.890   2.821   9.255  0.00  0.00    +0.000 A 
ATOM     14  F   UNL     1      44.627   1.660   8.641  0.00  0.00    +0.000 F 
ATOM     15  C   UNL     1      45.428   3.875   8.530  0.00  0.00    +0.000 A 
ATOM     16  C   UNL     1      45.677   5.097   9.165  0.00  0.00    +0.000 A 
ENDBRANCH   8  10
ENDBRANCH   1   4
BRANCH   1  17
ATOM     17  C   UNL     1      49.239   7.620  12.647  0.00  0.00    +0.000 C 
BRANCH  17  22
ATOM     18  C   UNL     1      47.957   4.680  16.645  0.00  0.00    +0.000 A 
ATOM     19  C   UNL     1      47.325   4.901  15.427  0.00  0.00    +0.000 A 
ATOM     20  C   UNL     1      47.897   5.799  14.527  0.00  0.00    +0.000 A 
ATOM     21  C   UNL     1      49.081   6.458  14.849  0.00  0.00    +0.000 A 
ATOM     22  N   UNL     1      49.699   7.340  14.003  0.00  0.00    +0.000 N 
ATOM     23  N   UNL     1      49.685   6.265  16.036  0.00  0.00    +0.000 NA
ATOM     24  C   UNL     1      49.112   5.398  16.914  0.00  0.00    +0.000 A 
ATOM     25  H   UNL     1      50.568   7.735  14.345  0.00  0.00    +0.000 HD
BRANCH  18  27
ATOM     26  N   UNL     1      47.992   3.767  18.893  0.00  0.00    +0.000 N 
ATOM     27  C   UNL     1      47.431   3.730  17.645  0.00  0.00    +0.000 C 
ATOM     28  O   UNL     1      46.509   2.969  17.384  0.00  0.00    +0.000 OA
ATOM     29  H   UNL     1      47.555   3.188  19.599  0.00  0.00    +0.000 HD
ATOM     30  H   UNL     1      48.558   4.540  19.208  0.00  0.00    +0.000 HD
ENDBRANCH  18  27
ENDBRANCH  17  22
ENDBRANCH   1  17
TORSDOF 5
ENDMDL
MODEL 8
REMARK VINA RESULT:    -7.264      4.867      8.415
REMARK INTER + INTRA:         -10.493
REMARK INTER:                  -9.237
REMARK INTRA:                  -1.257
REMARK UNBOUND:                -1.106
REMARK  Name = 
REMARK  5 active torsions:
REMARK  status: ('A' for Active; 'I' for Inactive)
REMARK    1  A    between atoms: C_2  and  C_4
REMARK    2  A    between atoms: N_8  and  C_9
REMARK    3  A    between atoms: C_9  and  C_10
REMARK    4  A    between atoms: C_10  and  C_13
REMARK    5  A    between atoms: C_17  and  C_18
REMARK                            x       y       z     vdW  Elec       q    Type
REMARK                         _______ _______ _______ _____ _____    ______ ____
ROOT
ATOM      1  C   UNL     1      49.398   8.441  11.887  0.00  0.00    +0.000 C 
ATOM      2  F   UNL     1      49.527   9.622  11.215  0.00  0.00    +0.000 F 
ATOM      3  F   UNL     1      50.044   7.512  11.124  0.00  0.00    +0.000 F 
ENDROOT
BRANCH   1   4
ATOM      4  C   UNL     1      47.945   8.080  12.138  0.00  0.00    +0.000 A 
ATOM      5  C   UNL     1      47.090   8.966  12.803  0.00  0.00    +0.000 A 
ATOM      6  C   UNL     1      45.737   8.668  12.929  0.00  0.00    +0.000 A 
ATOM      7  C   UNL     1      45.223   7.495  12.369  0.00  0.00    +0.000 A 
ATOM      8  C   UNL     1      46.040   6.597  11.660  0.00  0.00    +0.000 A 
ATOM      9  C   UNL     1      47.412   6.897  11.590  0.00  0.00    +0.000 A 
BRANCH   8  10
ATOM     10  C   UNL     1      45.472   5.447  10.916  0.00  0.00    +0.000 A 
ATOM     11  C   UNL     1      45.640   5.342   9.520  0.00  0.00    +0.000 A 
ATOM     12  C   UNL     1      45.218   4.213   8.814  0.00  0.00    +0.000 A 
ATOM     13  C   UNL     1      44.622   3.166   9.497  0.00  0.00    +0.000 A 
ATOM     14  F   UNL     1      44.251   2.067   8.829  0.00  0.00    +0.000 F 
ATOM     15  C   UNL     1      44.417   3.239  10.868  0.00  0.00    +0.000 A 
ATOM     16  C   UNL     1      44.829   4.377  11.571  0.00  0.00    +0.000 A 
ENDBRANCH   8  10
ENDBRANCH   1   4
BRANCH   1  17
ATOM     17  C   UNL     1      50.117   8.559  13.254  0.00  0.00    +0.000 C 
BRANCH  17  22
ATOM     18  C   UNL     1      48.452   6.861  17.794  0.00  0.00    +0.000 A 
ATOM     19  C   UNL     1      48.432   8.128  17.224  0.00  0.00    +0.000 A 
ATOM     20  C   UNL     1      49.000   8.306  15.963  0.00  0.00    +0.000 A 
ATOM     21  C   UNL     1      49.574   7.228  15.293  0.00  0.00    +0.000 A 
ATOM     22  N   UNL     1      50.135   7.336  14.048  0.00  0.00    +0.000 N 
ATOM     23  N   UNL     1      49.617   6.004  15.850  0.00  0.00    +0.000 NA
ATOM     24  C   UNL     1      49.073   5.843  17.087  0.00  0.00    +0.000 A 
ATOM     25  H   UNL     1      50.498   6.474  13.658  0.00  0.00    +0.000 HD
BRANCH  18  27
ATOM     26  N   UNL     1      47.243   5.367  19.276  0.00  0.00    +0.000 N 
ATOM     27  C   UNL     1      47.855   6.580  19.114  0.00  0.00    +0.000 C 
ATOM     28  O   UNL     1      47.934   7.381  20.037  0.00  0.00    +0.000 OA
ATOM     29  H   UNL     1      46.931   5.142  20.212  0.00  0.00    +0.000 HD
ATOM     30  H   UNL     1      47.385   4.600  18.635  0.00  0.00    +0.000 HD
ENDBRANCH  18  27
ENDBRANCH  17  22
ENDBRANCH   1  17
TORSDOF 5
ENDMDL
MODEL 9
REMARK VINA RESULT:    -7.001      6.239      7.782
REMARK INTER + INTRA:         -10.154
REMARK INTER:                  -9.361
REMARK INTRA:                  -0.793
REMARK UNBOUND:                -1.106
REMARK  Name = 
REMARK  5 active torsions:
REMARK  status: ('A' for Active; 'I' for Inactive)
REMARK    1  A    between atoms: C_2  and  C_4
REMARK    2  A    between atoms: N_8  and  C_9
REMARK    3  A    between atoms: C_9  and  C_10
REMARK    4  A    between atoms: C_10  and  C_13
REMARK    5  A    between atoms: C_17  and  C_18
REMARK                            x       y       z     vdW  Elec       q    Type
REMARK                         _______ _______ _______ _____ _____    ______ ____
ROOT
ATOM      1  C   UNL     1      47.525   4.278  17.561  0.00  0.00    +0.000 C 
ATOM      2  F   UNL     1      46.576   5.076  18.131  0.00  0.00    +0.000 F 
ATOM      3  F   UNL     1      47.055   3.003  17.686  0.00  0.00    +0.000 F 
ENDROOT
BRANCH   1   4
ATOM      4  C   UNL     1      48.889   4.461  18.202  0.00  0.00    +0.000 A 
ATOM      5  C   UNL     1      49.035   5.212  19.374  0.00  0.00    +0.000 A 
ATOM      6  C   UNL     1      50.271   5.280  20.009  0.00  0.00    +0.000 A 
ATOM      7  C   UNL     1      51.364   4.577  19.494  0.00  0.00    +0.000 A 
ATOM      8  C   UNL     1      51.250   3.779  18.341  0.00  0.00    +0.000 A 
ATOM      9  C   UNL     1      50.003   3.768  17.690  0.00  0.00    +0.000 A 
BRANCH   8  10
ATOM     10  C   UNL     1      52.352   2.895  17.892  0.00  0.00    +0.000 A 
ATOM     11  C   UNL     1      53.670   3.385  17.793  0.00  0.00    +0.000 A 
ATOM     12  C   UNL     1      54.743   2.546  17.485  0.00  0.00    +0.000 A 
ATOM     13  C   UNL     1      54.513   1.196  17.275  0.00  0.00    +0.000 A 
ATOM     14  F   UNL     1      55.544   0.382  17.018  0.00  0.00    +0.000 F 
ATOM     15  C   UNL     1      53.228   0.677  17.340  0.00  0.00    +0.000 A 
ATOM     16  C   UNL     1      52.153   1.523  17.636  0.00  0.00    +0.000 A 
ENDBRANCH   8  10
ENDBRANCH   1   4
BRANCH   1  17
ATOM     17  C   UNL     1      47.641   4.629  16.056  0.00  0.00    +0.000 C 
BRANCH  17  22
ATOM     18  C   UNL     1      45.581   4.745  11.365  0.00  0.00    +0.000 A 
ATOM     19  C   UNL     1      46.197   5.733  12.122  0.00  0.00    +0.000 A 
ATOM     20  C   UNL     1      46.639   5.418  13.407  0.00  0.00    +0.000 A 
ATOM     21  C   UNL     1      46.463   4.133  13.914  0.00  0.00    +0.000 A 
ATOM     22  N   UNL     1      46.887   3.758  15.161  0.00  0.00    +0.000 N 
ATOM     23  N   UNL     1      45.846   3.178  13.194  0.00  0.00    +0.000 NA
ATOM     24  C   UNL     1      45.406   3.499  11.947  0.00  0.00    +0.000 A 
ATOM     25  H   UNL     1      46.721   2.788  15.404  0.00  0.00    +0.000 HD
BRANCH  18  27
ATOM     26  N   UNL     1      43.766   4.822   9.757  0.00  0.00    +0.000 N 
ATOM     27  C   UNL     1      45.104   4.987   9.990  0.00  0.00    +0.000 C 
ATOM     28  O   UNL     1      45.863   5.356   9.103  0.00  0.00    +0.000 OA
ATOM     29  H   UNL     1      43.431   5.092   8.840  0.00  0.00    +0.000 HD
ATOM     30  H   UNL     1      43.089   4.775  10.504  0.00  0.00    +0.000 HD
ENDBRANCH  18  27
ENDBRANCH  17  22
ENDBRANCH   1  17
TORSDOF 5
ENDMDL
