MODEL 1
REMARK VINA RESULT:    -8.238      0.000      0.000
REMARK INTER + INTRA:         -10.243
REMARK INTER:                 -10.164
REMARK INTRA:                  -0.079
REMARK UNBOUND:                -0.079
REMARK  Name = 
REMARK  4 active torsions:
REMARK  status: ('A' for Active; 'I' for Inactive)
REMARK    1  A    between atoms: C_2  and  C_4
REMARK    2  A    between atoms: C_7  and  C_8
REMARK    3  A    between atoms: C_8  and  C_9
REMARK    4  A    between atoms: C_9  and  C_10
REMARK                            x       y       z     vdW  Elec       q    Type
REMARK                         _______ _______ _______ _____ _____    ______ ____
ROOT
ATOM      1  C   UNL     1      46.461   2.467   7.688  0.00  0.00    +0.000 A 
ATOM      2  C   UNL     1      45.698   1.775   8.628  0.00  0.00    +0.000 A 
ATOM      3  C   UNL     1      44.799   2.478   9.429  0.00  0.00    +0.000 A 
ATOM      4  C   UNL     1      44.692   3.861   9.278  0.00  0.00    +0.000 A 
ATOM      5  N   UNL     1      45.469   4.551   8.407  0.00  0.00    +0.000 NA
ATOM      6  C   UNL     1      46.328   3.844   7.630  0.00  0.00    +0.000 A 
ENDROOT
BRANCH   1   8
ATOM      7  N   UNL     1      48.491   2.526   6.362  0.00  0.00    +0.000 N 
ATOM      8  C   UNL     1      47.403   1.801   6.764  0.00  0.00    +0.000 C 
ATOM      9  O   UNL     1      47.248   0.643   6.413  0.00  0.00    +0.000 OA
ATOM     10  H   UNL     1      49.191   2.023   5.829  0.00  0.00    +0.000 HD
ATOM     11  H   UNL     1      48.783   3.373   6.829  0.00  0.00    +0.000 HD
ENDBRANCH   1   8
BRANCH   4  12
ATOM     12  C   UNL     1      43.765   4.655  10.174  0.00  0.00    +0.000 C 
BRANCH  12  13
ATOM     13  C   UNL     1      44.083   4.693  11.677  0.00  0.00    +0.000 C 
ATOM     14  C   UNL     1      43.434   3.672  12.600  0.00  0.00    +0.000 C 
ATOM     15  C   UNL     1      43.031   5.114  12.693  0.00  0.00    +0.000 C 
BRANCH  13  16
ATOM     16  C   UNL     1      45.518   5.135  12.018  0.00  0.00    +0.000 C 
ATOM     17  C   UNL     1      45.810   5.093  13.524  0.00  0.00    +0.000 C 
ATOM     18  C   UNL     1      47.233   5.551  13.805  0.00  0.00    +0.000 C 
ATOM     19  O   UNL     1      47.456   6.855  13.270  0.00  0.00    +0.000 OA
ATOM     20  C   UNL     1      47.294   6.893  11.852  0.00  0.00    +0.000 C 
ATOM     21  C   UNL     1      45.867   6.520  11.460  0.00  0.00    +0.000 C 
ENDBRANCH  13  16
ENDBRANCH  12  13
ENDBRANCH   4  12
TORSDOF 4
ENDMDL
MODEL 2
REMARK VINA RESULT:    -6.503      2.929      6.308
REMARK INTER + INTRA:          -8.102
REMARK INTER:                  -7.736
REMARK INTRA:                  -0.366
REMARK UNBOUND:                -0.079
REMARK  Name = 
REMARK  4 active torsions:
REMARK  status: ('A' for Active; 'I' for Inactive)
REMARK    1  A    between atoms: C_2  and  C_4
REMARK    2  A    between atoms: C_7  and  C_8
REMARK    3  A    between atoms: C_8  and  C_9
REMARK    4  A    between atoms: C_9  and  C_10
REMARK                            x       y       z     vdW  Elec       q    Type
REMARK                         _______ _______ _______ _____ _____    ______ ____
ROOT
ATOM      1  C   UNL     1      47.556   5.324  14.994  0.00  0.00    +0.000 A 
ATOM      2  C   UNL     1      46.827   4.294  14.402  0.00  0.00    +0.000 A 
ATOM      3  C   UNL     1      46.234   4.504  13.157  0.00  0.00    +0.000 A 
ATOM      4  C   UNL     1      46.379   5.745  12.537  0.00  0.00    +0.000 A 
ATOM      5  N   UNL     1      47.039   6.772  13.128  0.00  0.00    +0.000 NA
ATOM      6  C   UNL     1      47.616   6.540  14.334  0.00  0.00    +0.000 A 
ENDROOT
BRANCH   1   8
ATOM      7  N   UNL     1      47.478   5.122  17.409  0.00  0.00    +0.000 N 
ATOM      8  C   UNL     1      48.257   5.178  16.287  0.00  0.00    +0.000 C 
ATOM      9  O   UNL     1      49.470   5.063  16.351  0.00  0.00    +0.000 OA
ATOM     10  H   UNL     1      47.956   4.900  18.275  0.00  0.00    +0.000 HD
ATOM     11  H   UNL     1      46.482   4.953  17.373  0.00  0.00    +0.000 HD
ENDBRANCH   1   8
BRANCH   4  12
ATOM     12  C   UNL     1      45.700   6.018  11.211  0.00  0.00    +0.000 C 
BRANCH  12  13
ATOM     13  C   UNL     1      44.391   5.271  10.911  0.00  0.00    +0.000 C 
ATOM     14  C   UNL     1      43.064   5.989  11.106  0.00  0.00    +0.000 C 
ATOM     15  C   UNL     1      43.441   4.868  12.030  0.00  0.00    +0.000 C 
BRANCH  13  16
ATOM     16  C   UNL     1      44.480   4.263   9.750  0.00  0.00    +0.000 C 
ATOM     17  C   UNL     1      44.591   2.810  10.232  0.00  0.00    +0.000 C 
ATOM     18  C   UNL     1      44.690   1.861   9.048  0.00  0.00    +0.000 C 
ATOM     19  O   UNL     1      45.789   2.215   8.210  0.00  0.00    +0.000 OA
ATOM     20  C   UNL     1      45.653   3.527   7.664  0.00  0.00    +0.000 C 
ATOM     21  C   UNL     1      45.619   4.574   8.772  0.00  0.00    +0.000 C 
ENDBRANCH  13  16
ENDBRANCH  12  13
ENDBRANCH   4  12
TORSDOF 4
ENDMDL
MODEL 3
REMARK VINA RESULT:    -6.228      3.997      7.067
REMARK INTER + INTRA:          -7.763
REMARK INTER:                  -6.885
REMARK INTRA:                  -0.878
REMARK UNBOUND:                -0.079
REMARK  Name = 
REMARK  4 active torsions:
REMARK  status: ('A' for Active; 'I' for Inactive)
REMARK    1  A    between atoms: C_2  and  C_4
REMARK    2  A    between atoms: C_7  and  C_8
REMARK    3  A    between atoms: C_8  and  C_9
REMARK    4  A    between atoms: C_9  and  C_10
REMARK                            x       y       z     vdW  Elec       q    Type
REMARK                         _______ _______ _______ _____ _____    ______ ____
ROOT
ATOM      1  C   UNL     1      48.097   5.060  16.404  0.00  0.00    +0.000 A 
ATOM      2  C   UNL     1      47.148   4.347  15.672  0.00  0.00    +0.000 A 
ATOM      3  C   UNL     1      46.900   4.704  14.346  0.00  0.00    +0.000 A 
ATOM      4  C   UNL     1      47.601   5.772  13.787  0.00  0.00    +0.000 A 
ATOM      5  N   UNL     1      48.485   6.507  14.507  0.00  0.00    +0.000 NA
ATOM      6  C   UNL     1      48.718   6.135  15.791  0.00  0.00    +0.000 A 
ENDROOT
BRANCH   1   8
ATOM      7  N   UNL     1      47.441   4.685  18.709  0.00  0.00    +0.000 N 
ATOM      8  C   UNL     1      48.460   4.724  17.797  0.00  0.00    +0.000 C 
ATOM      9  O   UNL     1      49.605   4.447  18.114  0.00  0.00    +0.000 OA
ATOM     10  H   UNL     1      47.679   4.337  19.630  0.00  0.00    +0.000 HD
ATOM     11  H   UNL     1      46.469   4.651  18.437  0.00  0.00    +0.000 HD
ENDBRANCH   1   8
BRANCH   4  12
ATOM     12  C   UNL     1      47.311   6.216  12.369  0.00  0.00    +0.000 C 
BRANCH  12  13
ATOM     13  C   UNL     1      46.088   7.117  12.138  0.00  0.00    +0.000 C 
ATOM     14  C   UNL     1      46.300   8.575  11.757  0.00  0.00    +0.000 C 
ATOM     15  C   UNL     1      45.741   8.237  13.108  0.00  0.00    +0.000 C 
BRANCH  13  16
ATOM     16  C   UNL     1      44.871   6.400  11.522  0.00  0.00    +0.000 C 
ATOM     17  C   UNL     1      43.866   5.923  12.579  0.00  0.00    +0.000 C 
ATOM     18  C   UNL     1      42.694   5.212  11.920  0.00  0.00    +0.000 C 
ATOM     19  O   UNL     1      43.154   4.127  11.113  0.00  0.00    +0.000 OA
ATOM     20  C   UNL     1      44.008   4.563  10.056  0.00  0.00    +0.000 C 
ATOM     21  C   UNL     1      45.263   5.230  10.612  0.00  0.00    +0.000 C 
ENDBRANCH  13  16
ENDBRANCH  12  13
ENDBRANCH   4  12
TORSDOF 4
ENDMDL
MODEL 4
REMARK VINA RESULT:    -5.866      3.266      5.205
REMARK INTER + INTRA:          -7.316
REMARK INTER:                  -6.458
REMARK INTRA:                  -0.859
REMARK UNBOUND:                -0.079
REMARK  Name = 
REMARK  4 active torsions:
REMARK  status: ('A' for Active; 'I' for Inactive)
REMARK    1  A    between atoms: C_2  and  C_4
REMARK    2  A    between atoms: C_7  and  C_8
REMARK    3  A    between atoms: C_8  and  C_9
REMARK    4  A    between atoms: C_9  and  C_10
REMARK                            x       y       z     vdW  Elec       q    Type
REMARK                         _______ _______ _______ _____ _____    ______ ____
ROOT
ATOM      1  C   UNL     1      44.782   4.459  11.633  0.00  0.00    +0.000 A 
ATOM      2  C   UNL     1      45.601   4.448  12.761  0.00  0.00    +0.000 A 
ATOM      3  C   UNL     1      46.127   5.650  13.235  0.00  0.00    +0.000 A 
ATOM      4  C   UNL     1      45.827   6.835  12.563  0.00  0.00    +0.000 A 
ATOM      5  N   UNL     1      45.077   6.850  11.433  0.00  0.00    +0.000 NA
ATOM      6  C   UNL     1      44.567   5.670  10.997  0.00  0.00    +0.000 A 
ENDROOT
BRANCH   1   8
ATOM      7  N   UNL     1      44.894   2.476  10.241  0.00  0.00    +0.000 N 
ATOM      8  C   UNL     1      44.142   3.243  11.088  0.00  0.00    +0.000 C 
ATOM      9  O   UNL     1      43.015   2.909  11.413  0.00  0.00    +0.000 OA
ATOM     10  H   UNL     1      44.494   1.586   9.971  0.00  0.00    +0.000 HD
ATOM     11  H   UNL     1      45.896   2.578  10.160  0.00  0.00    +0.000 HD
ENDBRANCH   1   8
BRANCH   4  12
ATOM     12  C   UNL     1      46.430   8.145  13.023  0.00  0.00    +0.000 C 
BRANCH  12  13
ATOM     13  C   UNL     1      47.937   8.352  12.811  0.00  0.00    +0.000 C 
ATOM     14  C   UNL     1      48.413   9.229  11.661  0.00  0.00    +0.000 C 
ATOM     15  C   UNL     1      48.653   7.749  11.611  0.00  0.00    +0.000 C 
BRANCH  13  16
ATOM     16  C   UNL     1      48.769   8.383  14.107  0.00  0.00    +0.000 C 
ATOM     17  C   UNL     1      49.361   7.013  14.464  0.00  0.00    +0.000 C 
ATOM     18  C   UNL     1      50.159   7.096  15.756  0.00  0.00    +0.000 C 
ATOM     19  O   UNL     1      49.348   7.604  16.816  0.00  0.00    +0.000 OA
ATOM     20  C   UNL     1      48.874   8.923  16.549  0.00  0.00    +0.000 C 
ATOM     21  C   UNL     1      47.992   8.941  15.304  0.00  0.00    +0.000 C 
ENDBRANCH  13  16
ENDBRANCH  12  13
ENDBRANCH   4  12
TORSDOF 4
ENDMDL
MODEL 5
REMARK VINA RESULT:    -5.590      4.303      6.267
REMARK INTER + INTRA:          -6.976
REMARK INTER:                  -6.133
REMARK INTRA:                  -0.843
REMARK UNBOUND:                -0.079
REMARK  Name = 
REMARK  4 active torsions:
REMARK  status: ('A' for Active; 'I' for Inactive)
REMARK    1  A    between atoms: C_2  and  C_4
REMARK    2  A    between atoms: C_7  and  C_8
REMARK    3  A    between atoms: C_8  and  C_9
REMARK    4  A    between atoms: C_9  and  C_10
REMARK                            x       y       z     vdW  Elec       q    Type
REMARK                         _______ _______ _______ _____ _____    ______ ____
ROOT
ATOM      1  C   UNL     1      45.341   4.893  12.778  0.00  0.00    +0.000 A 
ATOM      2  C   UNL     1      45.516   5.969  11.908  0.00  0.00    +0.000 A 
ATOM      3  C   UNL     1      46.735   6.646  11.895  0.00  0.00    +0.000 A 
ATOM      4  C   UNL     1      47.749   6.236  12.760  0.00  0.00    +0.000 A 
ATOM      5  N   UNL     1      47.571   5.227  13.649  0.00  0.00    +0.000 NA
ATOM      6  C   UNL     1      46.381   4.576  13.636  0.00  0.00    +0.000 A 
ENDROOT
BRANCH   1   8
ATOM      7  N   UNL     1      44.221   2.755  12.544  0.00  0.00    +0.000 N 
ATOM      8  C   UNL     1      44.103   4.088  12.827  0.00  0.00    +0.000 C 
ATOM      9  O   UNL     1      43.033   4.575  13.153  0.00  0.00    +0.000 OA
ATOM     10  H   UNL     1      43.395   2.190  12.700  0.00  0.00    +0.000 HD
ATOM     11  H   UNL     1      45.112   2.279  12.530  0.00  0.00    +0.000 HD
ENDBRANCH   1   8
BRANCH   4  12
ATOM     12  C   UNL     1      49.062   6.989  12.806  0.00  0.00    +0.000 C 
BRANCH  12  13
ATOM     13  C   UNL     1      49.121   8.274  13.647  0.00  0.00    +0.000 C 
ATOM     14  C   UNL     1      49.888   8.267  14.962  0.00  0.00    +0.000 C 
ATOM     15  C   UNL     1      48.392   8.376  14.979  0.00  0.00    +0.000 C 
BRANCH  13  16
ATOM     16  C   UNL     1      49.145   9.576  12.826  0.00  0.00    +0.000 C 
ATOM     17  C   UNL     1      47.740  10.122  12.537  0.00  0.00    +0.000 C 
ATOM     18  C   UNL     1      47.822  11.398  11.714  0.00  0.00    +0.000 C 
ATOM     19  O   UNL     1      48.550  11.172  10.507  0.00  0.00    +0.000 OA
ATOM     20  C   UNL     1      49.896  10.766  10.755  0.00  0.00    +0.000 C 
ATOM     21  C   UNL     1      49.931   9.445  11.517  0.00  0.00    +0.000 C 
ENDBRANCH  13  16
ENDBRANCH  12  13
ENDBRANCH   4  12
TORSDOF 4
ENDMDL
MODEL 6
REMARK VINA RESULT:    -5.417      2.518      6.303
REMARK INTER + INTRA:          -6.763
REMARK INTER:                  -6.972
REMARK INTRA:                   0.209
REMARK UNBOUND:                -0.079
REMARK  Name = 
REMARK  4 active torsions:
REMARK  status: ('A' for Active; 'I' for Inactive)
REMARK    1  A    between atoms: C_2  and  C_4
REMARK    2  A    between atoms: C_7  and  C_8
REMARK    3  A    between atoms: C_8  and  C_9
REMARK    4  A    between atoms: C_9  and  C_10
REMARK                            x       y       z     vdW  Elec       q    Type
REMARK                         _______ _______ _______ _____ _____    ______ ____
ROOT
ATOM      1  C   UNL     1      47.189   8.111  12.723  0.00  0.00    +0.000 A 
ATOM      2  C   UNL     1      45.825   8.280  12.956  0.00  0.00    +0.000 A 
ATOM      3  C   UNL     1      44.914   7.428  12.332  0.00  0.00    +0.000 A 
ATOM      4  C   UNL     1      45.391   6.431  11.480  0.00  0.00    +0.000 A 
ATOM      5  N   UNL     1      46.711   6.293  11.203  0.00  0.00    +0.000 NA
ATOM      6  C   UNL     1      47.579   7.126  11.831  0.00  0.00    +0.000 A 
ENDROOT
BRANCH   1   8
ATOM      7  N   UNL     1      47.808  10.069  14.012  0.00  0.00    +0.000 N 
ATOM      8  C   UNL     1      48.228   8.934  13.377  0.00  0.00    +0.000 C 
ATOM      9  O   UNL     1      49.400   8.595  13.393  0.00  0.00    +0.000 OA
ATOM     10  H   UNL     1      48.505  10.560  14.559  0.00  0.00    +0.000 HD
ATOM     11  H   UNL     1      46.838  10.238  14.239  0.00  0.00    +0.000 HD
ENDBRANCH   1   8
BRANCH   4  12
ATOM     12  C   UNL     1      44.421   5.529  10.746  0.00  0.00    +0.000 C 
BRANCH  12  13
ATOM     13  C   UNL     1      44.674   4.014  10.799  0.00  0.00    +0.000 C 
ATOM     14  C   UNL     1      43.575   3.095  11.314  0.00  0.00    +0.000 C 
ATOM     15  C   UNL     1      44.820   3.287  12.128  0.00  0.00    +0.000 C 
BRANCH  13  16
ATOM     16  C   UNL     1      45.569   3.473   9.669  0.00  0.00    +0.000 C 
ATOM     17  C   UNL     1      45.601   4.397   8.444  0.00  0.00    +0.000 C 
ATOM     18  C   UNL     1      46.486   3.810   7.355  0.00  0.00    +0.000 C 
ATOM     19  O   UNL     1      46.048   2.497   7.005  0.00  0.00    +0.000 OA
ATOM     20  C   UNL     1      46.112   1.593   8.107  0.00  0.00    +0.000 C 
ATOM     21  C   UNL     1      45.195   2.051   9.237  0.00  0.00    +0.000 C 
ENDBRANCH  13  16
ENDBRANCH  12  13
ENDBRANCH   4  12
TORSDOF 4
ENDMDL
MODEL 7
REMARK VINA RESULT:    -5.320      3.419      5.177
REMARK INTER + INTRA:          -6.643
REMARK INTER:                  -6.428
REMARK INTRA:                  -0.215
REMARK UNBOUND:                -0.079
REMARK  Name = 
REMARK  4 active torsions:
REMARK  status: ('A' for Active; 'I' for Inactive)
REMARK    1  A    between atoms: C_2  and  C_4
REMARK    2  A    between atoms: C_7  and  C_8
REMARK    3  A    between atoms: C_8  and  C_9
REMARK    4  A    between atoms: C_9  and  C_10
REMARK                            x       y       z     vdW  Elec       q    Type
REMARK                         _______ _______ _______ _____ _____    ______ ____
ROOT
ATOM      1  C   UNL     1      44.966   4.152  11.480  0.00  0.00    +0.000 A 
ATOM      2  C   UNL     1      45.087   5.104  10.469  0.00  0.00    +0.000 A 
ATOM      3  C   UNL     1      45.962   6.176  10.642  0.00  0.00    +0.000 A 
ATOM      4  C   UNL     1      46.691   6.275  11.828  0.00  0.00    +0.000 A 
ATOM      5  N   UNL     1      46.539   5.385  12.840  0.00  0.00    +0.000 NA
ATOM      6  C   UNL     1      45.690   4.345  12.645  0.00  0.00    +0.000 A 
ENDROOT
BRANCH   1   8
ATOM      7  N   UNL     1      43.653   2.407  12.535  0.00  0.00    +0.000 N 
ATOM      8  C   UNL     1      44.101   2.959  11.367  0.00  0.00    +0.000 C 
ATOM      9  O   UNL     1      43.760   2.514  10.283  0.00  0.00    +0.000 OA
ATOM     10  H   UNL     1      42.966   1.668  12.445  0.00  0.00    +0.000 HD
ATOM     11  H   UNL     1      43.699   2.893  13.419  0.00  0.00    +0.000 HD
ENDBRANCH   1   8
BRANCH   4  12
ATOM     12  C   UNL     1      47.606   7.458  12.064  0.00  0.00    +0.000 C 
BRANCH  12  13
ATOM     13  C   UNL     1      47.048   8.644  12.866  0.00  0.00    +0.000 C 
ATOM     14  C   UNL     1      45.552   8.921  12.841  0.00  0.00    +0.000 C 
ATOM     15  C   UNL     1      46.492   9.876  12.166  0.00  0.00    +0.000 C 
BRANCH  13  16
ATOM     16  C   UNL     1      47.793   8.934  14.182  0.00  0.00    +0.000 C 
ATOM     17  C   UNL     1      48.767  10.115  14.065  0.00  0.00    +0.000 C 
ATOM     18  C   UNL     1      49.485  10.349  15.385  0.00  0.00    +0.000 C 
ATOM     19  O   UNL     1      50.156   9.162  15.810  0.00  0.00    +0.000 OA
ATOM     20  C   UNL     1      49.253   8.079  16.028  0.00  0.00    +0.000 C 
ATOM     21  C   UNL     1      48.528   7.709  14.738  0.00  0.00    +0.000 C 
ENDBRANCH  13  16
ENDBRANCH  12  13
ENDBRANCH   4  12
TORSDOF 4
ENDMDL
