MODEL 1
REMARK VINA RESULT:    -8.149      0.000      0.000
REMARK INTER + INTRA:         -13.976
REMARK INTER:                 -12.674
REMARK INTRA:                  -1.302
REMARK UNBOUND:                -1.302
REMARK  Name = 
REMARK  10 active torsions:
REMARK  status: ('A' for Active; 'I' for Inactive)
REMARK    1  A    between atoms: N_1  and  C_2
REMARK    2  A    between atoms: C_2  and  C_3
REMARK    3  A    between atoms: C_3  and  C_4
REMARK    4  A    between atoms: C_4  and  N_5
REMARK    5  A    between atoms: C_4  and  C_27
REMARK    6  A    between atoms: N_5  and  C_6
REMARK    7  A    between atoms: C_6  and  C_7
REMARK    8  A    between atoms: C_10  and  C_11
REMARK    9  A    between atoms: C_11  and  N_12
REMARK   10  A    between atoms: C_13  and  C_15
REMARK                            x       y       z     vdW  Elec       q    Type
REMARK                         _______ _______ _______ _____ _____    ______ ____
ROOT
ATOM      1  C   UNL     1      44.991   6.422  11.081  0.00  0.00    +0.000 A 
ATOM      2  C   UNL     1      44.496   7.455  11.889  0.00  0.00    +0.000 A 
ATOM      3  C   UNL     1      45.349   8.155  12.751  0.00  0.00    +0.000 A 
ATOM      4  C   UNL     1      46.710   7.832  12.823  0.00  0.00    +0.000 A 
ATOM      5  C   UNL     1      47.200   6.784  12.036  0.00  0.00    +0.000 A 
ATOM      6  C   UNL     1      46.352   6.092  11.170  0.00  0.00    +0.000 A 
ENDROOT
BRANCH   1   7
ATOM      7  C   UNL     1      44.080   5.592  10.202  0.00  0.00    +0.000 C 
BRANCH   7   8
ATOM      8  N   UNL     1      44.790   4.926   9.109  0.00  0.00    +0.000 NA
ATOM      9  H   UNL     1      44.410   5.233   8.218  0.00  0.00    +0.000 HD
BRANCH   8  10
ATOM     10  C   UNL     1      44.690   3.449   9.171  0.00  0.00    +0.000 C 
BRANCH  10  11
ATOM     11  C   UNL     1      45.665   2.752   8.211  0.00  0.00    +0.000 A 
ATOM     12  C   UNL     1      46.212   3.451   7.136  0.00  0.00    +0.000 A 
ATOM     13  C   UNL     1      47.091   2.791   6.280  0.00  0.00    +0.000 A 
ATOM     14  C   UNL     1      47.420   1.464   6.527  0.00  0.00    +0.000 A 
ATOM     15  C   UNL     1      46.861   0.849   7.631  0.00  0.00    +0.000 A 
ATOM     16  N   UNL     1      46.001   1.458   8.473  0.00  0.00    +0.000 NA
ENDBRANCH  10  11
BRANCH  10  17
ATOM     17  C   UNL     1      44.821   2.831  10.590  0.00  0.00    +0.000 C 
BRANCH  17  18
ATOM     18  C   UNL     1      43.519   2.567  11.339  0.00  0.00    +0.000 C 
BRANCH  18  19
ATOM     19  N   UNL     1      43.700   2.549  12.784  0.00  0.00    +0.000 NA
ATOM     20  H   UNL     1      44.588   2.096  13.003  0.00  0.00    +0.000 HD
ATOM     21  H   UNL     1      42.981   1.964  13.211  0.00  0.00    +0.000 HD
ENDBRANCH  18  19
ENDBRANCH  17  18
ENDBRANCH  10  17
ENDBRANCH   8  10
ENDBRANCH   7   8
ENDBRANCH   1   7
BRANCH   4  22
ATOM     22  C   UNL     1      47.625   8.541  13.783  0.00  0.00    +0.000 C 
BRANCH  22  23
ATOM     23  N   UNL     1      47.913   7.700  14.917  0.00  0.00    +0.000 N 
ATOM     24  C   UNL     1      49.102   7.031  15.030  0.00  0.00    +0.000 C 
ATOM     25  O   UNL     1      49.990   7.138  14.190  0.00  0.00    +0.000 OA
ATOM     26  H   UNL     1      47.125   7.427  15.496  0.00  0.00    +0.000 HD
BRANCH  24  27
ATOM     27  C   UNL     1      49.285   6.229  16.245  0.00  0.00    +0.000 A 
ATOM     28  C   UNL     1      50.289   6.571  17.142  0.00  0.00    +0.000 A 
ATOM     29  S   UNL     1      50.333   5.583  18.530  0.00  0.00    +0.000 S 
ATOM     30  C   UNL     1      49.041   4.631  17.960  0.00  0.00    +0.000 A 
ATOM     31  N   UNL     1      48.581   3.574  18.682  0.00  0.00    +0.000 NA
ATOM     32  C   UNL     1      47.613   2.927  18.123  0.00  0.00    +0.000 A 
ATOM     33  N   UNL     1      47.068   3.239  16.904  0.00  0.00    +0.000 N 
ATOM     34  C   UNL     1      47.489   4.305  16.147  0.00  0.00    +0.000 A 
ATOM     35  O   UNL     1      46.960   4.573  15.074  0.00  0.00    +0.000 OA
ATOM     36  C   UNL     1      48.575   5.069  16.733  0.00  0.00    +0.000 A 
ATOM     37  H   UNL     1      46.311   2.690  16.522  0.00  0.00    +0.000 HD
ENDBRANCH  24  27
ENDBRANCH  22  23
ENDBRANCH   4  22
TORSDOF 10
ENDMDL
MODEL 2
REMARK VINA RESULT:    -7.305      2.107      2.809
REMARK INTER + INTRA:         -12.664
REMARK INTER:                 -11.318
REMARK INTRA:                  -1.346
REMARK UNBOUND:                -1.302
REMARK  Name = 
REMARK  10 active torsions:
REMARK  status: ('A' for Active; 'I' for Inactive)
REMARK    1  A    between atoms: N_1  and  C_2
REMARK    2  A    between atoms: C_2  and  C_3
REMARK    3  A    between atoms: C_3  and  C_4
REMARK    4  A    between atoms: C_4  and  N_5
REMARK    5  A    between atoms: C_4  and  C_27
REMARK    6  A    between atoms: N_5  and  C_6
REMARK    7  A    between atoms: C_6  and  C_7
REMARK    8  A    between atoms: C_10  and  C_11
REMARK    9  A    between atoms: C_11  and  N_12
REMARK   10  A    between atoms: C_13  and  C_15
REMARK                            x       y       z     vdW  Elec       q    Type
REMARK                         _______ _______ _______ _____ _____    ______ ____
ROOT
ATOM      1  C   UNL     1      46.763   6.880  12.574  0.00  0.00    +0.000 A 
ATOM      2  C   UNL     1      47.503   5.946  13.313  0.00  0.00    +0.000 A 
ATOM      3  C   UNL     1      48.278   6.355  14.405  0.00  0.00    +0.000 A 
ATOM      4  C   UNL     1      48.328   7.706  14.776  0.00  0.00    +0.000 A 
ATOM      5  C   UNL     1      47.610   8.641  14.024  0.00  0.00    +0.000 A 
ATOM      6  C   UNL     1      46.831   8.233  12.941  0.00  0.00    +0.000 A 
ENDROOT
BRANCH   1   7
ATOM      7  C   UNL     1      45.984   6.482  11.339  0.00  0.00    +0.000 C 
BRANCH   7   8
ATOM      8  N   UNL     1      45.687   5.050  11.287  0.00  0.00    +0.000 NA
ATOM      9  H   UNL     1      46.549   4.527  11.160  0.00  0.00    +0.000 HD
BRANCH   8  10
ATOM     10  C   UNL     1      44.762   4.691  10.186  0.00  0.00    +0.000 C 
BRANCH  10  11
ATOM     11  C   UNL     1      45.435   3.826   9.110  0.00  0.00    +0.000 A 
ATOM     12  C   UNL     1      45.404   2.436   9.206  0.00  0.00    +0.000 A 
ATOM     13  C   UNL     1      46.027   1.679   8.216  0.00  0.00    +0.000 A 
ATOM     14  C   UNL     1      46.644   2.321   7.149  0.00  0.00    +0.000 A 
ATOM     15  C   UNL     1      46.604   3.701   7.109  0.00  0.00    +0.000 A 
ATOM     16  N   UNL     1      46.017   4.462   8.055  0.00  0.00    +0.000 NA
ENDBRANCH  10  11
BRANCH  10  17
ATOM     17  C   UNL     1      43.427   4.033  10.627  0.00  0.00    +0.000 C 
BRANCH  17  18
ATOM     18  C   UNL     1      43.266   3.754  12.118  0.00  0.00    +0.000 C 
BRANCH  18  19
ATOM     19  N   UNL     1      43.874   2.492  12.519  0.00  0.00    +0.000 NA
ATOM     20  H   UNL     1      43.535   2.240  13.448  0.00  0.00    +0.000 HD
ATOM     21  H   UNL     1      44.882   2.616  12.620  0.00  0.00    +0.000 HD
ENDBRANCH  18  19
ENDBRANCH  17  18
ENDBRANCH  10  17
ENDBRANCH   8  10
ENDBRANCH   7   8
ENDBRANCH   1   7
BRANCH   4  22
ATOM     22  C   UNL     1      49.198   8.165  15.914  0.00  0.00    +0.000 C 
BRANCH  22  23
ATOM     23  N   UNL     1      50.151   7.143  16.262  0.00  0.00    +0.000 N 
ATOM     24  C   UNL     1      50.054   6.442  17.435  0.00  0.00    +0.000 C 
ATOM     25  O   UNL     1      49.136   6.627  18.229  0.00  0.00    +0.000 OA
ATOM     26  H   UNL     1      51.022   7.132  15.740  0.00  0.00    +0.000 HD
BRANCH  24  27
ATOM     27  C   UNL     1      51.070   5.408  17.661  0.00  0.00    +0.000 A 
ATOM     28  C   UNL     1      52.337   5.779  18.091  0.00  0.00    +0.000 A 
ATOM     29  S   UNL     1      53.381   4.460  18.367  0.00  0.00    +0.000 S 
ATOM     30  C   UNL     1      52.192   3.346  17.873  0.00  0.00    +0.000 A 
ATOM     31  N   UNL     1      52.451   2.011  17.854  0.00  0.00    +0.000 NA
ATOM     32  C   UNL     1      51.469   1.282  17.439  0.00  0.00    +0.000 A 
ATOM     33  N   UNL     1      50.253   1.770  17.036  0.00  0.00    +0.000 N 
ATOM     34  C   UNL     1      49.940   3.108  17.053  0.00  0.00    +0.000 A 
ATOM     35  O   UNL     1      48.832   3.506  16.713  0.00  0.00    +0.000 OA
ATOM     36  C   UNL     1      51.011   3.971  17.516  0.00  0.00    +0.000 A 
ATOM     37  H   UNL     1      49.526   1.144  16.720  0.00  0.00    +0.000 HD
ENDBRANCH  24  27
ENDBRANCH  22  23
ENDBRANCH   4  22
TORSDOF 10
ENDMDL
MODEL 3
REMARK VINA RESULT:    -7.002      2.834      8.217
REMARK INTER + INTRA:         -12.192
REMARK INTER:                 -10.316
REMARK INTRA:                  -1.876
REMARK UNBOUND:                -1.302
REMARK  Name = 
REMARK  10 active torsions:
REMARK  status: ('A' for Active; 'I' for Inactive)
REMARK    1  A    between atoms: N_1  and  C_2
REMARK    2  A    between atoms: C_2  and  C_3
REMARK    3  A    between atoms: C_3  and  C_4
REMARK    4  A    between atoms: C_4  and  N_5
REMARK    5  A    between atoms: C_4  and  C_27
REMARK    6  A    between atoms: N_5  and  C_6
REMARK    7  A    between atoms: C_6  and  C_7
REMARK    8  A    between atoms: C_10  and  C_11
REMARK    9  A    between atoms: C_11  and  N_12
REMARK   10  A    between atoms: C_13  and  C_15
REMARK                            x       y       z     vdW  Elec       q    Type
REMARK                         _______ _______ _______ _____ _____    ______ ____
ROOT
ATOM      1  C   UNL     1      49.464   8.103  15.769  0.00  0.00    +0.000 A 
ATOM      2  C   UNL     1      48.288   8.817  15.498  0.00  0.00    +0.000 A 
ATOM      3  C   UNL     1      47.677   8.733  14.241  0.00  0.00    +0.000 A 
ATOM      4  C   UNL     1      48.233   7.934  13.232  0.00  0.00    +0.000 A 
ATOM      5  C   UNL     1      49.420   7.241  13.494  0.00  0.00    +0.000 A 
ATOM      6  C   UNL     1      50.024   7.319  14.749  0.00  0.00    +0.000 A 
ENDROOT
BRANCH   1   7
ATOM      7  C   UNL     1      50.193   8.239  17.089  0.00  0.00    +0.000 C 
BRANCH   7   8
ATOM      8  N   UNL     1      50.550   6.949  17.681  0.00  0.00    +0.000 NA
ATOM      9  H   UNL     1      50.941   6.342  16.966  0.00  0.00    +0.000 HD
BRANCH   8  10
ATOM     10  C   UNL     1      49.393   6.256  18.295  0.00  0.00    +0.000 C 
BRANCH  10  11
ATOM     11  C   UNL     1      49.117   4.889  17.650  0.00  0.00    +0.000 A 
ATOM     12  C   UNL     1      48.004   4.711  16.831  0.00  0.00    +0.000 A 
ATOM     13  C   UNL     1      47.778   3.459  16.263  0.00  0.00    +0.000 A 
ATOM     14  C   UNL     1      48.674   2.425  16.507  0.00  0.00    +0.000 A 
ATOM     15  C   UNL     1      49.771   2.689  17.306  0.00  0.00    +0.000 A 
ATOM     16  N   UNL     1      50.012   3.887  17.875  0.00  0.00    +0.000 NA
ENDBRANCH  10  11
BRANCH  10  17
ATOM     17  C   UNL     1      49.450   6.104  19.839  0.00  0.00    +0.000 C 
BRANCH  17  18
ATOM     18  C   UNL     1      48.163   5.658  20.526  0.00  0.00    +0.000 C 
BRANCH  18  19
ATOM     19  N   UNL     1      48.268   4.321  21.094  0.00  0.00    +0.000 NA
ATOM     20  H   UNL     1      48.550   3.669  20.361  0.00  0.00    +0.000 HD
ATOM     21  H   UNL     1      47.346   4.008  21.400  0.00  0.00    +0.000 HD
ENDBRANCH  18  19
ENDBRANCH  17  18
ENDBRANCH  10  17
ENDBRANCH   8  10
ENDBRANCH   7   8
ENDBRANCH   1   7
BRANCH   4  22
ATOM     22  C   UNL     1      47.616   7.877  11.861  0.00  0.00    +0.000 C 
BRANCH  22  23
ATOM     23  N   UNL     1      46.919   6.630  11.675  0.00  0.00    +0.000 N 
ATOM     24  C   UNL     1      45.563   6.537  11.835  0.00  0.00    +0.000 C 
ATOM     25  O   UNL     1      44.872   7.512  12.112  0.00  0.00    +0.000 OA
ATOM     26  H   UNL     1      47.484   5.786  11.668  0.00  0.00    +0.000 HD
BRANCH  24  27
ATOM     27  C   UNL     1      44.968   5.218  11.589  0.00  0.00    +0.000 A 
ATOM     28  C   UNL     1      44.275   4.582  12.611  0.00  0.00    +0.000 A 
ATOM     29  S   UNL     1      43.592   3.089  12.150  0.00  0.00    +0.000 S 
ATOM     30  C   UNL     1      44.239   3.216  10.581  0.00  0.00    +0.000 A 
ATOM     31  N   UNL     1      44.038   2.235   9.660  0.00  0.00    +0.000 NA
ATOM     32  C   UNL     1      44.601   2.449   8.519  0.00  0.00    +0.000 A 
ATOM     33  N   UNL     1      45.354   3.555   8.216  0.00  0.00    +0.000 N 
ATOM     34  C   UNL     1      45.572   4.578   9.107  0.00  0.00    +0.000 A 
ATOM     35  O   UNL     1      46.226   5.565   8.793  0.00  0.00    +0.000 OA
ATOM     36  C   UNL     1      44.956   4.387  10.407  0.00  0.00    +0.000 A 
ATOM     37  H   UNL     1      45.770   3.661   7.302  0.00  0.00    +0.000 HD
ENDBRANCH  24  27
ENDBRANCH  22  23
ENDBRANCH   4  22
TORSDOF 10
ENDMDL
MODEL 4
REMARK VINA RESULT:    -6.768      3.164      8.224
REMARK INTER + INTRA:         -11.828
REMARK INTER:                 -10.147
REMARK INTRA:                  -1.681
REMARK UNBOUND:                -1.302
REMARK  Name = 
REMARK  10 active torsions:
REMARK  status: ('A' for Active; 'I' for Inactive)
REMARK    1  A    between atoms: N_1  and  C_2
REMARK    2  A    between atoms: C_2  and  C_3
REMARK    3  A    between atoms: C_3  and  C_4
REMARK    4  A    between atoms: C_4  and  N_5
REMARK    5  A    between atoms: C_4  and  C_27
REMARK    6  A    between atoms: N_5  and  C_6
REMARK    7  A    between atoms: C_6  and  C_7
REMARK    8  A    between atoms: C_10  and  C_11
REMARK    9  A    between atoms: C_11  and  N_12
REMARK   10  A    between atoms: C_13  and  C_15
REMARK                            x       y       z     vdW  Elec       q    Type
REMARK                         _______ _______ _______ _____ _____    ______ ____
ROOT
ATOM      1  C   UNL     1      50.549   7.239  15.491  0.00  0.00    +0.000 A 
ATOM      2  C   UNL     1      49.195   6.887  15.404  0.00  0.00    +0.000 A 
ATOM      3  C   UNL     1      48.452   7.193  14.257  0.00  0.00    +0.000 A 
ATOM      4  C   UNL     1      49.050   7.859  13.179  0.00  0.00    +0.000 A 
ATOM      5  C   UNL     1      50.394   8.233  13.275  0.00  0.00    +0.000 A 
ATOM      6  C   UNL     1      51.137   7.920  14.415  0.00  0.00    +0.000 A 
ENDROOT
BRANCH   1   7
ATOM      7  C   UNL     1      51.356   6.997  16.749  0.00  0.00    +0.000 C 
BRANCH   7   8
ATOM      8  N   UNL     1      51.677   5.585  16.960  0.00  0.00    +0.000 NA
ATOM      9  H   UNL     1      51.377   5.043  16.154  0.00  0.00    +0.000 HD
BRANCH   8  10
ATOM     10  C   UNL     1      51.028   5.019  18.166  0.00  0.00    +0.000 C 
BRANCH  10  11
ATOM     11  C   UNL     1      49.694   4.328  17.846  0.00  0.00    +0.000 A 
ATOM     12  C   UNL     1      48.496   4.862  18.319  0.00  0.00    +0.000 A 
ATOM     13  C   UNL     1      47.302   4.210  18.015  0.00  0.00    +0.000 A 
ATOM     14  C   UNL     1      47.329   3.061  17.235  0.00  0.00    +0.000 A 
ATOM     15  C   UNL     1      48.553   2.612  16.778  0.00  0.00    +0.000 A 
ATOM     16  N   UNL     1      49.725   3.215  17.062  0.00  0.00    +0.000 NA
ENDBRANCH  10  11
BRANCH  10  17
ATOM     17  C   UNL     1      51.916   4.073  19.018  0.00  0.00    +0.000 C 
BRANCH  17  18
ATOM     18  C   UNL     1      52.838   3.131  18.249  0.00  0.00    +0.000 C 
BRANCH  18  19
ATOM     19  N   UNL     1      52.377   1.749  18.282  0.00  0.00    +0.000 NA
ATOM     20  H   UNL     1      52.679   1.278  17.429  0.00  0.00    +0.000 HD
ATOM     21  H   UNL     1      51.357   1.730  18.259  0.00  0.00    +0.000 HD
ENDBRANCH  18  19
ENDBRANCH  17  18
ENDBRANCH  10  17
ENDBRANCH   8  10
ENDBRANCH   7   8
ENDBRANCH   1   7
BRANCH   4  22
ATOM     22  C   UNL     1      48.250   8.241  11.964  0.00  0.00    +0.000 C 
BRANCH  22  23
ATOM     23  N   UNL     1      47.561   7.092  11.434  0.00  0.00    +0.000 N 
ATOM     24  C   UNL     1      46.193   7.036  11.385  0.00  0.00    +0.000 C 
ATOM     25  O   UNL     1      45.491   7.971  11.759  0.00  0.00    +0.000 OA
ATOM     26  H   UNL     1      48.103   6.240  11.331  0.00  0.00    +0.000 HD
BRANCH  24  27
ATOM     27  C   UNL     1      45.612   5.824  10.797  0.00  0.00    +0.000 A 
ATOM     28  C   UNL     1      45.815   5.554   9.451  0.00  0.00    +0.000 A 
ATOM     29  S   UNL     1      45.130   4.081   8.936  0.00  0.00    +0.000 S 
ATOM     30  C   UNL     1      44.493   3.773  10.484  0.00  0.00    +0.000 A 
ATOM     31  N   UNL     1      43.761   2.653  10.729  0.00  0.00    +0.000 NA
ATOM     32  C   UNL     1      43.322   2.556  11.940  0.00  0.00    +0.000 A 
ATOM     33  N   UNL     1      43.544   3.482  12.927  0.00  0.00    +0.000 N 
ATOM     34  C   UNL     1      44.290   4.619  12.731  0.00  0.00    +0.000 A 
ATOM     35  O   UNL     1      44.492   5.412  13.643  0.00  0.00    +0.000 OA
ATOM     36  C   UNL     1      44.810   4.775  11.385  0.00  0.00    +0.000 A 
ATOM     37  H   UNL     1      43.170   3.346  13.855  0.00  0.00    +0.000 HD
ENDBRANCH  24  27
ENDBRANCH  22  23
ENDBRANCH   4  22
TORSDOF 10
ENDMDL
MODEL 5
REMARK VINA RESULT:    -6.530      3.411      8.161
REMARK INTER + INTRA:         -11.459
REMARK INTER:                  -9.177
REMARK INTRA:                  -2.282
REMARK UNBOUND:                -1.302
REMARK  Name = 
REMARK  10 active torsions:
REMARK  status: ('A' for Active; 'I' for Inactive)
REMARK    1  A    between atoms: N_1  and  C_2
REMARK    2  A    between atoms: C_2  and  C_3
REMARK    3  A    between atoms: C_3  and  C_4
REMARK    4  A    between atoms: C_4  and  N_5
REMARK    5  A    between atoms: C_4  and  C_27
REMARK    6  A    between atoms: N_5  and  C_6
REMARK    7  A    between atoms: C_6  and  C_7
REMARK    8  A    between atoms: C_10  and  C_11
REMARK    9  A    between atoms: C_11  and  N_12
REMARK   10  A    between atoms: C_13  and  C_15
REMARK                            x       y       z     vdW  Elec       q    Type
REMARK                         _______ _______ _______ _____ _____    ______ ____
ROOT
ATOM      1  C   UNL     1      51.073   7.222  17.265  0.00  0.00    +0.000 A 
ATOM      2  C   UNL     1      50.988   6.985  15.885  0.00  0.00    +0.000 A 
ATOM      3  C   UNL     1      50.053   7.671  15.101  0.00  0.00    +0.000 A 
ATOM      4  C   UNL     1      49.185   8.605  15.682  0.00  0.00    +0.000 A 
ATOM      5  C   UNL     1      49.252   8.824  17.062  0.00  0.00    +0.000 A 
ATOM      6  C   UNL     1      50.190   8.146  17.843  0.00  0.00    +0.000 A 
ENDROOT
BRANCH   1   7
ATOM      7  C   UNL     1      52.014   6.436  18.153  0.00  0.00    +0.000 C 
BRANCH   7   8
ATOM      8  N   UNL     1      51.320   5.678  19.194  0.00  0.00    +0.000 NA
ATOM      9  H   UNL     1      51.878   5.675  20.044  0.00  0.00    +0.000 HD
BRANCH   8  10
ATOM     10  C   UNL     1      51.057   4.272  18.807  0.00  0.00    +0.000 C 
BRANCH  10  11
ATOM     11  C   UNL     1      49.661   4.080  18.195  0.00  0.00    +0.000 A 
ATOM     12  C   UNL     1      49.423   3.037  17.302  0.00  0.00    +0.000 A 
ATOM     13  C   UNL     1      48.147   2.891  16.762  0.00  0.00    +0.000 A 
ATOM     14  C   UNL     1      47.140   3.770  17.139  0.00  0.00    +0.000 A 
ATOM     15  C   UNL     1      47.446   4.759  18.054  0.00  0.00    +0.000 A 
ATOM     16  N   UNL     1      48.672   4.931  18.588  0.00  0.00    +0.000 NA
ENDBRANCH  10  11
BRANCH  10  17
ATOM     17  C   UNL     1      52.126   3.625  17.885  0.00  0.00    +0.000 C 
BRANCH  17  18
ATOM     18  C   UNL     1      52.970   2.513  18.500  0.00  0.00    +0.000 C 
BRANCH  18  19
ATOM     19  N   UNL     1      52.431   1.187  18.229  0.00  0.00    +0.000 NA
ATOM     20  H   UNL     1      52.474   1.009  17.225  0.00  0.00    +0.000 HD
ATOM     21  H   UNL     1      51.439   1.168  18.468  0.00  0.00    +0.000 HD
ENDBRANCH  18  19
ENDBRANCH  17  18
ENDBRANCH  10  17
ENDBRANCH   8  10
ENDBRANCH   7   8
ENDBRANCH   1   7
BRANCH   4  22
ATOM     22  C   UNL     1      48.141   9.310  14.860  0.00  0.00    +0.000 C 
BRANCH  22  23
ATOM     23  N   UNL     1      47.207   8.360  14.313  0.00  0.00    +0.000 N 
ATOM     24  C   UNL     1      47.032   8.225  12.961  0.00  0.00    +0.000 C 
ATOM     25  O   UNL     1      47.682   8.880  12.152  0.00  0.00    +0.000 OA
ATOM     26  H   UNL     1      46.515   7.979  14.950  0.00  0.00    +0.000 HD
BRANCH  24  27
ATOM     27  C   UNL     1      46.072   7.203  12.528  0.00  0.00    +0.000 A 
ATOM     28  C   UNL     1      44.959   7.583  11.789  0.00  0.00    +0.000 A 
ATOM     29  S   UNL     1      43.976   6.275  11.311  0.00  0.00    +0.000 S 
ATOM     30  C   UNL     1      44.976   5.158  12.117  0.00  0.00    +0.000 A 
ATOM     31  N   UNL     1      44.681   3.830  12.117  0.00  0.00    +0.000 NA
ATOM     32  C   UNL     1      45.511   3.099  12.783  0.00  0.00    +0.000 A 
ATOM     33  N   UNL     1      46.606   3.577  13.456  0.00  0.00    +0.000 N 
ATOM     34  C   UNL     1      46.952   4.906  13.470  0.00  0.00    +0.000 A 
ATOM     35  O   UNL     1      47.955   5.296  14.058  0.00  0.00    +0.000 OA
ATOM     36  C   UNL     1      46.052   5.772  12.732  0.00  0.00    +0.000 A 
ATOM     37  H   UNL     1      47.216   2.950  13.960  0.00  0.00    +0.000 HD
ENDBRANCH  24  27
ENDBRANCH  22  23
ENDBRANCH   4  22
TORSDOF 10
ENDMDL
MODEL 6
REMARK VINA RESULT:    -6.378      3.025      8.811
REMARK INTER + INTRA:         -11.222
REMARK INTER:                  -9.728
REMARK INTRA:                  -1.494
REMARK UNBOUND:                -1.302
REMARK  Name = 
REMARK  10 active torsions:
REMARK  status: ('A' for Active; 'I' for Inactive)
REMARK    1  A    between atoms: N_1  and  C_2
REMARK    2  A    between atoms: C_2  and  C_3
REMARK    3  A    between atoms: C_3  and  C_4
REMARK    4  A    between atoms: C_4  and  N_5
REMARK    5  A    between atoms: C_4  and  C_27
REMARK    6  A    between atoms: N_5  and  C_6
REMARK    7  A    between atoms: C_6  and  C_7
REMARK    8  A    between atoms: C_10  and  C_11
REMARK    9  A    between atoms: C_11  and  N_12
REMARK   10  A    between atoms: C_13  and  C_15
REMARK                            x       y       z     vdW  Elec       q    Type
REMARK                         _______ _______ _______ _____ _____    ______ ____
ROOT
ATOM      1  C   UNL     1      50.335   7.429  15.186  0.00  0.00    +0.000 A 
ATOM      2  C   UNL     1      50.652   8.275  14.113  0.00  0.00    +0.000 A 
ATOM      3  C   UNL     1      49.775   8.413  13.031  0.00  0.00    +0.000 A 
ATOM      4  C   UNL     1      48.565   7.705  13.001  0.00  0.00    +0.000 A 
ATOM      5  C   UNL     1      48.260   6.842  14.059  0.00  0.00    +0.000 A 
ATOM      6  C   UNL     1      49.130   6.712  15.142  0.00  0.00    +0.000 A 
ENDROOT
BRANCH   1   7
ATOM      7  C   UNL     1      51.300   7.195  16.329  0.00  0.00    +0.000 C 
BRANCH   7   8
ATOM      8  N   UNL     1      51.357   5.795  16.751  0.00  0.00    +0.000 NA
ATOM      9  H   UNL     1      50.686   5.250  16.217  0.00  0.00    +0.000 HD
BRANCH   8  10
ATOM     10  C   UNL     1      51.060   5.614  18.191  0.00  0.00    +0.000 C 
BRANCH  10  11
ATOM     11  C   UNL     1      49.554   5.669  18.493  0.00  0.00    +0.000 A 
ATOM     12  C   UNL     1      48.680   4.783  17.865  0.00  0.00    +0.000 A 
ATOM     13  C   UNL     1      47.320   4.859  18.156  0.00  0.00    +0.000 A 
ATOM     14  C   UNL     1      46.868   5.797  19.076  0.00  0.00    +0.000 A 
ATOM     15  C   UNL     1      47.801   6.619  19.680  0.00  0.00    +0.000 A 
ATOM     16  N   UNL     1      49.122   6.574  19.414  0.00  0.00    +0.000 NA
ENDBRANCH  10  11
BRANCH  10  17
ATOM     17  C   UNL     1      51.678   4.349  18.845  0.00  0.00    +0.000 C 
BRANCH  17  18
ATOM     18  C   UNL     1      52.064   3.216  17.899  0.00  0.00    +0.000 C 
BRANCH  18  19
ATOM     19  N   UNL     1      51.073   2.148  17.874  0.00  0.00    +0.000 NA
ATOM     20  H   UNL     1      51.543   1.262  17.682  0.00  0.00    +0.000 HD
ATOM     21  H   UNL     1      50.435   2.294  17.090  0.00  0.00    +0.000 HD
ENDBRANCH  18  19
ENDBRANCH  17  18
ENDBRANCH  10  17
ENDBRANCH   8  10
ENDBRANCH   7   8
ENDBRANCH   1   7
BRANCH   4  22
ATOM     22  C   UNL     1      47.639   7.804  11.820  0.00  0.00    +0.000 C 
BRANCH  22  23
ATOM     23  N   UNL     1      46.931   6.564  11.632  0.00  0.00    +0.000 N 
ATOM     24  C   UNL     1      45.564   6.505  11.683  0.00  0.00    +0.000 C 
ATOM     25  O   UNL     1      44.875   7.506  11.860  0.00  0.00    +0.000 OA
ATOM     26  H   UNL     1      47.474   5.710  11.708  0.00  0.00    +0.000 HD
BRANCH  24  27
ATOM     27  C   UNL     1      44.959   5.188  11.447  0.00  0.00    +0.000 A 
ATOM     28  C   UNL     1      44.247   4.573  12.468  0.00  0.00    +0.000 A 
ATOM     29  S   UNL     1      43.557   3.080  12.017  0.00  0.00    +0.000 S 
ATOM     30  C   UNL     1      44.227   3.180  10.455  0.00  0.00    +0.000 A 
ATOM     31  N   UNL     1      44.028   2.188   9.546  0.00  0.00    +0.000 NA
ATOM     32  C   UNL     1      44.610   2.382   8.409  0.00  0.00    +0.000 A 
ATOM     33  N   UNL     1      45.377   3.476   8.102  0.00  0.00    +0.000 N 
ATOM     34  C   UNL     1      45.592   4.509   8.982  0.00  0.00    +0.000 A 
ATOM     35  O   UNL     1      46.260   5.487   8.665  0.00  0.00    +0.000 OA
ATOM     36  C   UNL     1      44.956   4.342  10.276  0.00  0.00    +0.000 A 
ATOM     37  H   UNL     1      45.806   3.566   7.193  0.00  0.00    +0.000 HD
ENDBRANCH  24  27
ENDBRANCH  22  23
ENDBRANCH   4  22
TORSDOF 10
ENDMDL
MODEL 7
REMARK VINA RESULT:    -6.291      2.976      8.439
REMARK INTER + INTRA:         -11.086
REMARK INTER:                  -9.616
REMARK INTRA:                  -1.470
REMARK UNBOUND:                -1.302
REMARK  Name = 
REMARK  10 active torsions:
REMARK  status: ('A' for Active; 'I' for Inactive)
REMARK    1  A    between atoms: N_1  and  C_2
REMARK    2  A    between atoms: C_2  and  C_3
REMARK    3  A    between atoms: C_3  and  C_4
REMARK    4  A    between atoms: C_4  and  N_5
REMARK    5  A    between atoms: C_4  and  C_27
REMARK    6  A    between atoms: N_5  and  C_6
REMARK    7  A    between atoms: C_6  and  C_7
REMARK    8  A    between atoms: C_10  and  C_11
REMARK    9  A    between atoms: C_11  and  N_12
REMARK   10  A    between atoms: C_13  and  C_15
REMARK                            x       y       z     vdW  Elec       q    Type
REMARK                         _______ _______ _______ _____ _____    ______ ____
ROOT
ATOM      1  C   UNL     1      49.567   7.932  15.451  0.00  0.00    +0.000 A 
ATOM      2  C   UNL     1      50.144   7.419  14.280  0.00  0.00    +0.000 A 
ATOM      3  C   UNL     1      49.441   7.445  13.070  0.00  0.00    +0.000 A 
ATOM      4  C   UNL     1      48.147   7.980  13.010  0.00  0.00    +0.000 A 
ATOM      5  C   UNL     1      47.562   8.469  14.183  0.00  0.00    +0.000 A 
ATOM      6  C   UNL     1      48.266   8.452  15.387  0.00  0.00    +0.000 A 
ENDROOT
BRANCH   1   7
ATOM      7  C   UNL     1      50.269   7.843  16.790  0.00  0.00    +0.000 C 
BRANCH   7   8
ATOM      8  N   UNL     1      49.515   7.073  17.781  0.00  0.00    +0.000 NA
ATOM      9  H   UNL     1      49.973   7.141  18.686  0.00  0.00    +0.000 HD
BRANCH   8  10
ATOM     10  C   UNL     1      49.397   5.639  17.429  0.00  0.00    +0.000 C 
BRANCH  10  11
ATOM     11  C   UNL     1      50.572   4.803  17.960  0.00  0.00    +0.000 A 
ATOM     12  C   UNL     1      51.204   5.158  19.150  0.00  0.00    +0.000 A 
ATOM     13  C   UNL     1      52.269   4.383  19.605  0.00  0.00    +0.000 A 
ATOM     14  C   UNL     1      52.662   3.267  18.877  0.00  0.00    +0.000 A 
ATOM     15  C   UNL     1      51.965   2.963  17.723  0.00  0.00    +0.000 A 
ATOM     16  N   UNL     1      50.937   3.697  17.253  0.00  0.00    +0.000 NA
ENDBRANCH  10  11
BRANCH  10  17
ATOM     17  C   UNL     1      48.055   4.965  17.824  0.00  0.00    +0.000 C 
BRANCH  17  18
ATOM     18  C   UNL     1      47.529   3.891  16.877  0.00  0.00    +0.000 C 
BRANCH  18  19
ATOM     19  N   UNL     1      46.784   4.450  15.757  0.00  0.00    +0.000 NA
ATOM     20  H   UNL     1      47.440   4.713  15.019  0.00  0.00    +0.000 HD
ATOM     21  H   UNL     1      46.336   5.320  16.046  0.00  0.00    +0.000 HD
ENDBRANCH  18  19
ENDBRANCH  17  18
ENDBRANCH  10  17
ENDBRANCH   8  10
ENDBRANCH   7   8
ENDBRANCH   1   7
BRANCH   4  22
ATOM     22  C   UNL     1      47.361   7.965  11.728  0.00  0.00    +0.000 C 
BRANCH  22  23
ATOM     23  N   UNL     1      46.723   6.687  11.544  0.00  0.00    +0.000 N 
ATOM     24  C   UNL     1      45.377   6.523  11.737  0.00  0.00    +0.000 C 
ATOM     25  O   UNL     1      44.646   7.460  12.043  0.00  0.00    +0.000 OA
ATOM     26  H   UNL     1      47.329   5.873  11.512  0.00  0.00    +0.000 HD
BRANCH  24  27
ATOM     27  C   UNL     1      44.843   5.179  11.490  0.00  0.00    +0.000 A 
ATOM     28  C   UNL     1      44.147   4.526  12.499  0.00  0.00    +0.000 A 
ATOM     29  S   UNL     1      43.538   3.002  12.036  0.00  0.00    +0.000 S 
ATOM     30  C   UNL     1      44.226   3.138  10.485  0.00  0.00    +0.000 A 
ATOM     31  N   UNL     1      44.091   2.140   9.572  0.00  0.00    +0.000 NA
ATOM     32  C   UNL     1      44.679   2.364   8.444  0.00  0.00    +0.000 A 
ATOM     33  N   UNL     1      45.396   3.495   8.150  0.00  0.00    +0.000 N 
ATOM     34  C   UNL     1      45.546   4.536   9.034  0.00  0.00    +0.000 A 
ATOM     35  O   UNL     1      46.169   5.546   8.728  0.00  0.00    +0.000 OA
ATOM     36  C   UNL     1      44.900   4.335  10.318  0.00  0.00    +0.000 A 
ATOM     37  H   UNL     1      45.834   3.608   7.247  0.00  0.00    +0.000 HD
ENDBRANCH  24  27
ENDBRANCH  22  23
ENDBRANCH   4  22
TORSDOF 10
ENDMDL
MODEL 8
REMARK VINA RESULT:    -6.249      5.151      7.943
REMARK INTER + INTRA:         -11.021
REMARK INTER:                  -9.570
REMARK INTRA:                  -1.450
REMARK UNBOUND:                -1.302
REMARK  Name = 
REMARK  10 active torsions:
REMARK  status: ('A' for Active; 'I' for Inactive)
REMARK    1  A    between atoms: N_1  and  C_2
REMARK    2  A    between atoms: C_2  and  C_3
REMARK    3  A    between atoms: C_3  and  C_4
REMARK    4  A    between atoms: C_4  and  N_5
REMARK    5  A    between atoms: C_4  and  C_27
REMARK    6  A    between atoms: N_5  and  C_6
REMARK    7  A    between atoms: C_6  and  C_7
REMARK    8  A    between atoms: C_10  and  C_11
REMARK    9  A    between atoms: C_11  and  N_12
REMARK   10  A    between atoms: C_13  and  C_15
REMARK                            x       y       z     vdW  Elec       q    Type
REMARK                         _______ _______ _______ _____ _____    ______ ____
ROOT
ATOM      1  C   UNL     1      50.482   8.968  11.468  0.00  0.00    +0.000 A 
ATOM      2  C   UNL     1      49.988   7.665  11.627  0.00  0.00    +0.000 A 
ATOM      3  C   UNL     1      48.623   7.443  11.846  0.00  0.00    +0.000 A 
ATOM      4  C   UNL     1      47.728   8.520  11.913  0.00  0.00    +0.000 A 
ATOM      5  C   UNL     1      48.225   9.821  11.779  0.00  0.00    +0.000 A 
ATOM      6  C   UNL     1      49.584  10.042  11.552  0.00  0.00    +0.000 A 
ENDROOT
BRANCH   1   7
ATOM      7  C   UNL     1      51.963   9.245  11.314  0.00  0.00    +0.000 C 
BRANCH   7   8
ATOM      8  N   UNL     1      52.533   8.649  10.105  0.00  0.00    +0.000 NA
ATOM      9  H   UNL     1      51.784   8.335   9.493  0.00  0.00    +0.000 HD
BRANCH   8  10
ATOM     10  C   UNL     1      53.412   7.491  10.392  0.00  0.00    +0.000 C 
BRANCH  10  11
ATOM     11  C   UNL     1      53.548   6.543   9.191  0.00  0.00    +0.000 A 
ATOM     12  C   UNL     1      52.726   6.701   8.076  0.00  0.00    +0.000 A 
ATOM     13  C   UNL     1      52.871   5.824   7.003  0.00  0.00    +0.000 A 
ATOM     14  C   UNL     1      53.840   4.829   7.058  0.00  0.00    +0.000 A 
ATOM     15  C   UNL     1      54.637   4.757   8.184  0.00  0.00    +0.000 A 
ATOM     16  N   UNL     1      54.516   5.586   9.242  0.00  0.00    +0.000 NA
ENDBRANCH  10  11
BRANCH  10  17
ATOM     17  C   UNL     1      54.820   7.844  10.942  0.00  0.00    +0.000 C 
BRANCH  17  18
ATOM     18  C   UNL     1      55.165   7.303  12.326  0.00  0.00    +0.000 C 
BRANCH  18  19
ATOM     19  N   UNL     1      54.904   5.875  12.448  0.00  0.00    +0.000 NA
ATOM     20  H   UNL     1      53.895   5.719  12.440  0.00  0.00    +0.000 HD
ATOM     21  H   UNL     1      55.225   5.546  13.359  0.00  0.00    +0.000 HD
ENDBRANCH  18  19
ENDBRANCH  17  18
ENDBRANCH  10  17
ENDBRANCH   8  10
ENDBRANCH   7   8
ENDBRANCH   1   7
BRANCH   4  22
ATOM     22  C   UNL     1      46.269   8.299  12.200  0.00  0.00    +0.000 C 
BRANCH  22  23
ATOM     23  N   UNL     1      45.907   6.930  11.937  0.00  0.00    +0.000 N 
ATOM     24  C   UNL     1      44.645   6.588  11.530  0.00  0.00    +0.000 C 
ATOM     25  O   UNL     1      43.772   7.431  11.339  0.00  0.00    +0.000 OA
ATOM     26  H   UNL     1      46.530   6.213  12.296  0.00  0.00    +0.000 HD
BRANCH  24  27
ATOM     27  C   UNL     1      44.408   5.164  11.267  0.00  0.00    +0.000 A 
ATOM     28  C   UNL     1      43.654   4.421  12.165  0.00  0.00    +0.000 A 
ATOM     29  S   UNL     1      43.419   2.801  11.686  0.00  0.00    +0.000 S 
ATOM     30  C   UNL     1      44.359   3.022  10.284  0.00  0.00    +0.000 A 
ATOM     31  N   UNL     1      44.577   1.994   9.421  0.00  0.00    +0.000 NA
ATOM     32  C   UNL     1      45.324   2.294   8.411  0.00  0.00    +0.000 A 
ATOM     33  N   UNL     1      45.878   3.529   8.190  0.00  0.00    +0.000 N 
ATOM     34  C   UNL     1      45.672   4.601   9.025  0.00  0.00    +0.000 A 
ATOM     35  O   UNL     1      46.159   5.699   8.782  0.00  0.00    +0.000 OA
ATOM     36  C   UNL     1      44.835   4.317  10.176  0.00  0.00    +0.000 A 
ATOM     37  H   UNL     1      46.455   3.698   7.379  0.00  0.00    +0.000 HD
ENDBRANCH  24  27
ENDBRANCH  22  23
ENDBRANCH   4  22
TORSDOF 10
ENDMDL
MODEL 9
REMARK VINA RESULT:    -6.174      3.332      7.923
REMARK INTER + INTRA:         -10.905
REMARK INTER:                  -9.379
REMARK INTRA:                  -1.526
REMARK UNBOUND:                -1.302
REMARK  Name = 
REMARK  10 active torsions:
REMARK  status: ('A' for Active; 'I' for Inactive)
REMARK    1  A    between atoms: N_1  and  C_2
REMARK    2  A    between atoms: C_2  and  C_3
REMARK    3  A    between atoms: C_3  and  C_4
REMARK    4  A    between atoms: C_4  and  N_5
REMARK    5  A    between atoms: C_4  and  C_27
REMARK    6  A    between atoms: N_5  and  C_6
REMARK    7  A    between atoms: C_6  and  C_7
REMARK    8  A    between atoms: C_10  and  C_11
REMARK    9  A    between atoms: C_11  and  N_12
REMARK   10  A    between atoms: C_13  and  C_15
REMARK                            x       y       z     vdW  Elec       q    Type
REMARK                         _______ _______ _______ _____ _____    ______ ____
ROOT
ATOM      1  C   UNL     1      50.392   6.927  17.088  0.00  0.00    +0.000 A 
ATOM      2  C   UNL     1      51.326   7.169  16.071  0.00  0.00    +0.000 A 
ATOM      3  C   UNL     1      50.906   7.593  14.805  0.00  0.00    +0.000 A 
ATOM      4  C   UNL     1      49.544   7.779  14.532  0.00  0.00    +0.000 A 
ATOM      5  C   UNL     1      48.610   7.513  15.539  0.00  0.00    +0.000 A 
ATOM      6  C   UNL     1      49.029   7.099  16.804  0.00  0.00    +0.000 A 
ENDROOT
BRANCH   1   7
ATOM      7  C   UNL     1      50.808   6.388  18.441  0.00  0.00    +0.000 C 
BRANCH   7   8
ATOM      8  N   UNL     1      49.985   5.263  18.887  0.00  0.00    +0.000 NA
ATOM      9  H   UNL     1      50.413   4.827  19.699  0.00  0.00    +0.000 HD
BRANCH   8  10
ATOM     10  C   UNL     1      49.811   4.226  17.843  0.00  0.00    +0.000 C 
BRANCH  10  11
ATOM     11  C   UNL     1      50.967   3.215  17.819  0.00  0.00    +0.000 A 
ATOM     12  C   UNL     1      52.240   3.594  18.242  0.00  0.00    +0.000 A 
ATOM     13  C   UNL     1      53.269   2.656  18.206  0.00  0.00    +0.000 A 
ATOM     14  C   UNL     1      53.002   1.363  17.771  0.00  0.00    +0.000 A 
ATOM     15  C   UNL     1      51.708   1.056  17.398  0.00  0.00    +0.000 A 
ATOM     16  N   UNL     1      50.693   1.943  17.415  0.00  0.00    +0.000 NA
ENDBRANCH  10  11
BRANCH  10  17
ATOM     17  C   UNL     1      48.455   3.470  17.876  0.00  0.00    +0.000 C 
BRANCH  17  18
ATOM     18  C   UNL     1      47.583   3.585  16.630  0.00  0.00    +0.000 C 
BRANCH  18  19
ATOM     19  N   UNL     1      48.000   2.675  15.570  0.00  0.00    +0.000 NA
ATOM     20  H   UNL     1      49.018   2.689  15.502  0.00  0.00    +0.000 HD
ATOM     21  H   UNL     1      47.660   3.020  14.672  0.00  0.00    +0.000 HD
ENDBRANCH  18  19
ENDBRANCH  17  18
ENDBRANCH  10  17
ENDBRANCH   8  10
ENDBRANCH   7   8
ENDBRANCH   1   7
BRANCH   4  22
ATOM     22  C   UNL     1      49.076   8.183  13.161  0.00  0.00    +0.000 C 
BRANCH  22  23
ATOM     23  N   UNL     1      47.960   7.369  12.751  0.00  0.00    +0.000 N 
ATOM     24  C   UNL     1      46.673   7.831  12.821  0.00  0.00    +0.000 C 
ATOM     25  O   UNL     1      46.410   8.967  13.205  0.00  0.00    +0.000 OA
ATOM     26  H   UNL     1      48.132   6.374  12.646  0.00  0.00    +0.000 HD
BRANCH  24  27
ATOM     27  C   UNL     1      45.627   6.918  12.347  0.00  0.00    +0.000 A 
ATOM     28  C   UNL     1      44.515   7.435  11.695  0.00  0.00    +0.000 A 
ATOM     29  S   UNL     1      43.424   6.242  11.152  0.00  0.00    +0.000 S 
ATOM     30  C   UNL     1      44.374   4.994  11.813  0.00  0.00    +0.000 A 
ATOM     31  N   UNL     1      43.987   3.694  11.713  0.00  0.00    +0.000 NA
ATOM     32  C   UNL     1      44.789   2.853  12.276  0.00  0.00    +0.000 A 
ATOM     33  N   UNL     1      45.941   3.196  12.936  0.00  0.00    +0.000 N 
ATOM     34  C   UNL     1      46.381   4.494  13.048  0.00  0.00    +0.000 A 
ATOM     35  O   UNL     1      47.431   4.762  13.620  0.00  0.00    +0.000 OA
ATOM     36  C   UNL     1      45.515   5.479  12.428  0.00  0.00    +0.000 A 
ATOM     37  H   UNL     1      46.525   2.488  13.356  0.00  0.00    +0.000 HD
ENDBRANCH  24  27
ENDBRANCH  22  23
ENDBRANCH   4  22
TORSDOF 10
ENDMDL
