MODEL 1
REMARK VINA RESULT:    -8.820      0.000      0.000
REMARK INTER + INTRA:         -12.573
REMARK INTER:                 -11.398
REMARK INTRA:                  -1.174
REMARK UNBOUND:                -1.174
REMARK  Name = 
REMARK  5 active torsions:
REMARK  status: ('A' for Active; 'I' for Inactive)
REMARK    1  A    between atoms: C_2  and  C_4
REMARK    2  A    between atoms: C_7  and  O_8
REMARK    3  A    between atoms: O_8  and  C_9
REMARK    4  A    between atoms: C_9  and  C_10
REMARK    5  A    between atoms: C_14  and  C_15
REMARK                            x       y       z     vdW  Elec       q    Type
REMARK                         _______ _______ _______ _____ _____    ______ ____
ROOT
ATOM      1  C   UNL     1      44.818   4.607  12.219  0.00  0.00    +0.000 A 
ATOM      2  C   UNL     1      45.582   3.688  12.947  0.00  0.00    +0.000 A 
ATOM      3  C   UNL     1      46.795   4.073  13.507  0.00  0.00    +0.000 A 
ATOM      4  C   UNL     1      47.266   5.368  13.327  0.00  0.00    +0.000 A 
ATOM      5  C   UNL     1      46.534   6.314  12.585  0.00  0.00    +0.000 A 
ATOM      6  C   UNL     1      45.282   5.921  12.085  0.00  0.00    +0.000 A 
ENDROOT
BRANCH   5   7
ATOM      7  C   UNL     1      47.084   7.653  12.297  0.00  0.00    +0.000 A 
ATOM      8  C   UNL     1      48.428   7.826  11.914  0.00  0.00    +0.000 A 
ATOM      9  C   UNL     1      48.939   9.087  11.603  0.00  0.00    +0.000 A 
ATOM     10  C   UNL     1      48.105  10.193  11.665  0.00  0.00    +0.000 A 
ATOM     11  F   UNL     1      48.585  11.399  11.319  0.00  0.00    +0.000 F 
ATOM     12  C   UNL     1      46.789  10.058  12.066  0.00  0.00    +0.000 A 
ATOM     13  F   UNL     1      45.978  11.125  12.116  0.00  0.00    +0.000 F 
ATOM     14  C   UNL     1      46.280   8.807  12.402  0.00  0.00    +0.000 A 
ENDBRANCH   5   7
BRANCH   1  15
ATOM     15  C   UNL     1      43.579   4.168  11.485  0.00  0.00    +0.000 C 
BRANCH  15  16
ATOM     16  O   UNL     1      43.636   4.511  10.104  0.00  0.00    +0.000 OA
BRANCH  16  20
ATOM     17  C   UNL     1      46.365   2.413   7.732  0.00  0.00    +0.000 A 
ATOM     18  C   UNL     1      45.547   1.694   8.606  0.00  0.00    +0.000 A 
ATOM     19  C   UNL     1      44.619   2.362   9.409  0.00  0.00    +0.000 A 
ATOM     20  C   UNL     1      44.497   3.754   9.348  0.00  0.00    +0.000 A 
ATOM     21  C   UNL     1      45.310   4.469   8.467  0.00  0.00    +0.000 A 
ATOM     22  C   UNL     1      46.243   3.804   7.661  0.00  0.00    +0.000 A 
BRANCH  17  24
ATOM     23  N   UNL     1      48.486   2.488   6.537  0.00  0.00    +0.000 N 
ATOM     24  C   UNL     1      47.421   1.732   6.936  0.00  0.00    +0.000 C 
ATOM     25  O   UNL     1      47.342   0.547   6.650  0.00  0.00    +0.000 OA
ATOM     26  H   UNL     1      49.216   2.011   6.022  0.00  0.00    +0.000 HD
ATOM     27  H   UNL     1      48.694   3.402   6.916  0.00  0.00    +0.000 HD
ENDBRANCH  17  24
ENDBRANCH  16  20
ENDBRANCH  15  16
ENDBRANCH   1  15
TORSDOF 5
ENDMDL
MODEL 2
REMARK VINA RESULT:    -8.819      3.391      4.487
REMARK INTER + INTRA:         -12.572
REMARK INTER:                 -11.695
REMARK INTRA:                  -0.877
REMARK UNBOUND:                -1.174
REMARK  Name = 
REMARK  5 active torsions:
REMARK  status: ('A' for Active; 'I' for Inactive)
REMARK    1  A    between atoms: C_2  and  C_4
REMARK    2  A    between atoms: C_7  and  O_8
REMARK    3  A    between atoms: O_8  and  C_9
REMARK    4  A    between atoms: C_9  and  C_10
REMARK    5  A    between atoms: C_14  and  C_15
REMARK                            x       y       z     vdW  Elec       q    Type
REMARK                         _______ _______ _______ _____ _____    ______ ____
ROOT
ATOM      1  C   UNL     1      45.448   5.320  12.027  0.00  0.00    +0.000 A 
ATOM      2  C   UNL     1      46.050   6.403  11.377  0.00  0.00    +0.000 A 
ATOM      3  C   UNL     1      47.171   7.015  11.928  0.00  0.00    +0.000 A 
ATOM      4  C   UNL     1      47.683   6.570  13.140  0.00  0.00    +0.000 A 
ATOM      5  C   UNL     1      47.093   5.496  13.832  0.00  0.00    +0.000 A 
ATOM      6  C   UNL     1      46.004   4.851  13.224  0.00  0.00    +0.000 A 
ENDROOT
BRANCH   5   7
ATOM      7  C   UNL     1      47.565   5.096  15.172  0.00  0.00    +0.000 A 
ATOM      8  C   UNL     1      48.509   5.867  15.877  0.00  0.00    +0.000 A 
ATOM      9  C   UNL     1      48.927   5.511  17.160  0.00  0.00    +0.000 A 
ATOM     10  C   UNL     1      48.397   4.377  17.757  0.00  0.00    +0.000 A 
ATOM     11  F   UNL     1      48.763   4.062  19.010  0.00  0.00    +0.000 F 
ATOM     12  C   UNL     1      47.490   3.584  17.077  0.00  0.00    +0.000 A 
ATOM     13  F   UNL     1      46.969   2.493  17.658  0.00  0.00    +0.000 F 
ATOM     14  C   UNL     1      47.089   3.920  15.789  0.00  0.00    +0.000 A 
ENDBRANCH   5   7
BRANCH   1  15
ATOM     15  C   UNL     1      44.153   4.741  11.522  0.00  0.00    +0.000 C 
BRANCH  15  16
ATOM     16  O   UNL     1      44.033   4.874  10.109  0.00  0.00    +0.000 OA
BRANCH  16  20
ATOM     17  C   UNL     1      46.362   2.303   7.776  0.00  0.00    +0.000 A 
ATOM     18  C   UNL     1      45.523   1.751   8.746  0.00  0.00    +0.000 A 
ATOM     19  C   UNL     1      44.726   2.579   9.540  0.00  0.00    +0.000 A 
ATOM     20  C   UNL     1      44.757   3.968   9.374  0.00  0.00    +0.000 A 
ATOM     21  C   UNL     1      45.591   4.517   8.397  0.00  0.00    +0.000 A 
ATOM     22  C   UNL     1      46.393   3.690   7.600  0.00  0.00    +0.000 A 
BRANCH  17  24
ATOM     23  N   UNL     1      48.387   2.050   6.446  0.00  0.00    +0.000 N 
ATOM     24  C   UNL     1      47.286   1.447   6.985  0.00  0.00    +0.000 C 
ATOM     25  O   UNL     1      47.071   0.256   6.820  0.00  0.00    +0.000 OA
ATOM     26  H   UNL     1      49.027   1.455   5.934  0.00  0.00    +0.000 HD
ATOM     27  H   UNL     1      48.710   2.967   6.720  0.00  0.00    +0.000 HD
ENDBRANCH  17  24
ENDBRANCH  16  20
ENDBRANCH  15  16
ENDBRANCH   1  15
TORSDOF 5
ENDMDL
MODEL 3
REMARK VINA RESULT:    -8.273      2.101      2.782
REMARK INTER + INTRA:         -11.865
REMARK INTER:                 -10.997
REMARK INTRA:                  -0.868
REMARK UNBOUND:                -1.174
REMARK  Name = 
REMARK  5 active torsions:
REMARK  status: ('A' for Active; 'I' for Inactive)
REMARK    1  A    between atoms: C_2  and  C_4
REMARK    2  A    between atoms: C_7  and  O_8
REMARK    3  A    between atoms: O_8  and  C_9
REMARK    4  A    between atoms: C_9  and  C_10
REMARK    5  A    between atoms: C_14  and  C_15
REMARK                            x       y       z     vdW  Elec       q    Type
REMARK                         _______ _______ _______ _____ _____    ______ ____
ROOT
ATOM      1  C   UNL     1      44.489   5.039  11.500  0.00  0.00    +0.000 A 
ATOM      2  C   UNL     1      43.555   6.064  11.312  0.00  0.00    +0.000 A 
ATOM      3  C   UNL     1      43.943   7.395  11.429  0.00  0.00    +0.000 A 
ATOM      4  C   UNL     1      45.256   7.712  11.758  0.00  0.00    +0.000 A 
ATOM      5  C   UNL     1      46.217   6.707  11.972  0.00  0.00    +0.000 A 
ATOM      6  C   UNL     1      45.818   5.374  11.783  0.00  0.00    +0.000 A 
ENDROOT
BRANCH   5   7
ATOM      7  C   UNL     1      47.580   7.037  12.432  0.00  0.00    +0.000 A 
ATOM      8  C   UNL     1      48.515   7.650  11.576  0.00  0.00    +0.000 A 
ATOM      9  C   UNL     1      49.791   7.999  12.021  0.00  0.00    +0.000 A 
ATOM     10  C   UNL     1      50.144   7.742  13.337  0.00  0.00    +0.000 A 
ATOM     11  F   UNL     1      51.355   8.122  13.778  0.00  0.00    +0.000 F 
ATOM     12  C   UNL     1      49.258   7.115  14.193  0.00  0.00    +0.000 A 
ATOM     13  F   UNL     1      49.596   6.876  15.469  0.00  0.00    +0.000 F 
ATOM     14  C   UNL     1      47.994   6.742  13.749  0.00  0.00    +0.000 A 
ENDBRANCH   5   7
BRANCH   1  15
ATOM     15  C   UNL     1      44.055   3.597  11.521  0.00  0.00    +0.000 C 
BRANCH  15  16
ATOM     16  O   UNL     1      43.611   3.162  10.240  0.00  0.00    +0.000 OA
BRANCH  16  20
ATOM     17  C   UNL     1      46.596   2.611   7.364  0.00  0.00    +0.000 A 
ATOM     18  C   UNL     1      46.025   3.878   7.502  0.00  0.00    +0.000 A 
ATOM     19  C   UNL     1      45.029   4.100   8.456  0.00  0.00    +0.000 A 
ATOM     20  C   UNL     1      44.593   3.060   9.285  0.00  0.00    +0.000 A 
ATOM     21  C   UNL     1      45.172   1.796   9.151  0.00  0.00    +0.000 A 
ATOM     22  C   UNL     1      46.169   1.568   8.194  0.00  0.00    +0.000 A 
BRANCH  17  24
ATOM     23  N   UNL     1      47.516   3.091   5.161  0.00  0.00    +0.000 N 
ATOM     24  C   UNL     1      47.589   2.330   6.294  0.00  0.00    +0.000 C 
ATOM     25  O   UNL     1      48.434   1.457   6.418  0.00  0.00    +0.000 OA
ATOM     26  H   UNL     1      48.215   2.916   4.449  0.00  0.00    +0.000 HD
ATOM     27  H   UNL     1      46.979   3.944   5.096  0.00  0.00    +0.000 HD
ENDBRANCH  17  24
ENDBRANCH  16  20
ENDBRANCH  15  16
ENDBRANCH   1  15
TORSDOF 5
ENDMDL
MODEL 4
REMARK VINA RESULT:    -8.057      4.242      7.201
REMARK INTER + INTRA:         -11.586
REMARK INTER:                 -10.582
REMARK INTRA:                  -1.005
REMARK UNBOUND:                -1.174
REMARK  Name = 
REMARK  5 active torsions:
REMARK  status: ('A' for Active; 'I' for Inactive)
REMARK    1  A    between atoms: C_2  and  C_4
REMARK    2  A    between atoms: C_7  and  O_8
REMARK    3  A    between atoms: O_8  and  C_9
REMARK    4  A    between atoms: C_9  and  C_10
REMARK    5  A    between atoms: C_14  and  C_15
REMARK                            x       y       z     vdW  Elec       q    Type
REMARK                         _______ _______ _______ _____ _____    ______ ____
ROOT
ATOM      1  C   UNL     1      44.204   5.187  11.376  0.00  0.00    +0.000 A 
ATOM      2  C   UNL     1      43.325   4.296  12.003  0.00  0.00    +0.000 A 
ATOM      3  C   UNL     1      43.253   2.972  11.583  0.00  0.00    +0.000 A 
ATOM      4  C   UNL     1      44.036   2.534  10.522  0.00  0.00    +0.000 A 
ATOM      5  C   UNL     1      44.917   3.406   9.856  0.00  0.00    +0.000 A 
ATOM      6  C   UNL     1      45.021   4.720  10.340  0.00  0.00    +0.000 A 
ENDROOT
BRANCH   5   7
ATOM      7  C   UNL     1      45.663   2.973   8.658  0.00  0.00    +0.000 A 
ATOM      8  C   UNL     1      46.089   3.897   7.685  0.00  0.00    +0.000 A 
ATOM      9  C   UNL     1      46.828   3.493   6.572  0.00  0.00    +0.000 A 
ATOM     10  C   UNL     1      47.156   2.154   6.424  0.00  0.00    +0.000 A 
ATOM     11  F   UNL     1      47.909   1.773   5.378  0.00  0.00    +0.000 F 
ATOM     12  C   UNL     1      46.727   1.219   7.348  0.00  0.00    +0.000 A 
ATOM     13  F   UNL     1      47.053  -0.074   7.211  0.00  0.00    +0.000 F 
ATOM     14  C   UNL     1      45.968   1.611   8.446  0.00  0.00    +0.000 A 
ENDBRANCH   5   7
BRANCH   1  15
ATOM     15  C   UNL     1      44.189   6.653  11.720  0.00  0.00    +0.000 C 
BRANCH  15  16
ATOM     16  O   UNL     1      44.973   6.931  12.875  0.00  0.00    +0.000 OA
BRANCH  16  20
ATOM     17  C   UNL     1      48.916   8.096  12.118  0.00  0.00    +0.000 A 
ATOM     18  C   UNL     1      47.901   9.046  11.987  0.00  0.00    +0.000 A 
ATOM     19  C   UNL     1      46.573   8.693  12.238  0.00  0.00    +0.000 A 
ATOM     20  C   UNL     1      46.243   7.389  12.623  0.00  0.00    +0.000 A 
ATOM     21  C   UNL     1      47.262   6.444  12.762  0.00  0.00    +0.000 A 
ATOM     22  C   UNL     1      48.594   6.793  12.510  0.00  0.00    +0.000 A 
BRANCH  17  24
ATOM     23  N   UNL     1      51.127   7.392  11.380  0.00  0.00    +0.000 N 
ATOM     24  C   UNL     1      50.323   8.426  11.767  0.00  0.00    +0.000 C 
ATOM     25  O   UNL     1      50.745   9.571  11.822  0.00  0.00    +0.000 OA
ATOM     26  H   UNL     1      52.076   7.628  11.113  0.00  0.00    +0.000 HD
ATOM     27  H   UNL     1      50.778   6.479  11.125  0.00  0.00    +0.000 HD
ENDBRANCH  17  24
ENDBRANCH  16  20
ENDBRANCH  15  16
ENDBRANCH   1  15
TORSDOF 5
ENDMDL
MODEL 5
REMARK VINA RESULT:    -7.605      5.447      8.280
REMARK INTER + INTRA:         -11.002
REMARK INTER:                 -10.314
REMARK INTRA:                  -0.688
REMARK UNBOUND:                -1.174
REMARK  Name = 
REMARK  5 active torsions:
REMARK  status: ('A' for Active; 'I' for Inactive)
REMARK    1  A    between atoms: C_2  and  C_4
REMARK    2  A    between atoms: C_7  and  O_8
REMARK    3  A    between atoms: O_8  and  C_9
REMARK    4  A    between atoms: C_9  and  C_10
REMARK    5  A    between atoms: C_14  and  C_15
REMARK                            x       y       z     vdW  Elec       q    Type
REMARK                         _______ _______ _______ _____ _____    ______ ____
ROOT
ATOM      1  C   UNL     1      45.087   4.737  12.902  0.00  0.00    +0.000 A 
ATOM      2  C   UNL     1      43.790   5.263  12.905  0.00  0.00    +0.000 A 
ATOM      3  C   UNL     1      42.983   5.141  11.779  0.00  0.00    +0.000 A 
ATOM      4  C   UNL     1      43.470   4.518  10.636  0.00  0.00    +0.000 A 
ATOM      5  C   UNL     1      44.775   3.994  10.590  0.00  0.00    +0.000 A 
ATOM      6  C   UNL     1      45.547   4.070  11.761  0.00  0.00    +0.000 A 
ENDROOT
BRANCH   5   7
ATOM      7  C   UNL     1      45.332   3.436   9.343  0.00  0.00    +0.000 A 
ATOM      8  C   UNL     1      45.714   4.267   8.273  0.00  0.00    +0.000 A 
ATOM      9  C   UNL     1      46.277   3.742   7.109  0.00  0.00    +0.000 A 
ATOM     10  C   UNL     1      46.472   2.373   7.006  0.00  0.00    +0.000 A 
ATOM     11  F   UNL     1      47.058   1.874   5.905  0.00  0.00    +0.000 F 
ATOM     12  C   UNL     1      46.080   1.529   8.028  0.00  0.00    +0.000 A 
ATOM     13  F   UNL     1      46.278   0.206   7.933  0.00  0.00    +0.000 F 
ATOM     14  C   UNL     1      45.495   2.043   9.180  0.00  0.00    +0.000 A 
ENDBRANCH   5   7
BRANCH   1  15
ATOM     15  C   UNL     1      46.021   4.987  14.056  0.00  0.00    +0.000 C 
BRANCH  15  16
ATOM     16  O   UNL     1      46.521   3.771  14.601  0.00  0.00    +0.000 OA
BRANCH  16  20
ATOM     17  C   UNL     1      49.238   4.457  17.705  0.00  0.00    +0.000 A 
ATOM     18  C   UNL     1      48.815   3.148  17.463  0.00  0.00    +0.000 A 
ATOM     19  C   UNL     1      47.913   2.881  16.430  0.00  0.00    +0.000 A 
ATOM     20  C   UNL     1      47.423   3.917  15.627  0.00  0.00    +0.000 A 
ATOM     21  C   UNL     1      47.854   5.224  15.866  0.00  0.00    +0.000 A 
ATOM     22  C   UNL     1      48.757   5.497  16.902  0.00  0.00    +0.000 A 
BRANCH  17  24
ATOM     23  N   UNL     1      49.732   4.330  20.086  0.00  0.00    +0.000 N 
ATOM     24  C   UNL     1      50.124   4.775  18.856  0.00  0.00    +0.000 C 
ATOM     25  O   UNL     1      51.158   5.408  18.710  0.00  0.00    +0.000 OA
ATOM     26  H   UNL     1      50.355   4.524  20.861  0.00  0.00    +0.000 HD
ATOM     27  H   UNL     1      49.006   3.641  20.225  0.00  0.00    +0.000 HD
ENDBRANCH  17  24
ENDBRANCH  16  20
ENDBRANCH  15  16
ENDBRANCH   1  15
TORSDOF 5
ENDMDL
MODEL 6
REMARK VINA RESULT:    -7.409      2.085      3.016
REMARK INTER + INTRA:         -10.750
REMARK INTER:                  -9.855
REMARK INTRA:                  -0.894
REMARK UNBOUND:                -1.174
REMARK  Name = 
REMARK  5 active torsions:
REMARK  status: ('A' for Active; 'I' for Inactive)
REMARK    1  A    between atoms: C_2  and  C_4
REMARK    2  A    between atoms: C_7  and  O_8
REMARK    3  A    between atoms: O_8  and  C_9
REMARK    4  A    between atoms: C_9  and  C_10
REMARK    5  A    between atoms: C_14  and  C_15
REMARK                            x       y       z     vdW  Elec       q    Type
REMARK                         _______ _______ _______ _____ _____    ______ ____
ROOT
ATOM      1  C   UNL     1      45.679   6.246  11.823  0.00  0.00    +0.000 A 
ATOM      2  C   UNL     1      44.765   7.300  11.932  0.00  0.00    +0.000 A 
ATOM      3  C   UNL     1      45.217   8.606  12.092  0.00  0.00    +0.000 A 
ATOM      4  C   UNL     1      46.579   8.867  12.170  0.00  0.00    +0.000 A 
ATOM      5  C   UNL     1      47.527   7.830  12.083  0.00  0.00    +0.000 A 
ATOM      6  C   UNL     1      47.050   6.530  11.855  0.00  0.00    +0.000 A 
ENDROOT
BRANCH   5   7
ATOM      7  C   UNL     1      48.966   8.091  12.279  0.00  0.00    +0.000 A 
ATOM      8  C   UNL     1      49.469   8.539  13.516  0.00  0.00    +0.000 A 
ATOM      9  C   UNL     1      50.834   8.749  13.714  0.00  0.00    +0.000 A 
ATOM     10  C   UNL     1      51.717   8.504  12.673  0.00  0.00    +0.000 A 
ATOM     11  F   UNL     1      53.036   8.659  12.879  0.00  0.00    +0.000 F 
ATOM     12  C   UNL     1      51.251   8.090  11.439  0.00  0.00    +0.000 A 
ATOM     13  F   UNL     1      52.105   7.843  10.435  0.00  0.00    +0.000 F 
ATOM     14  C   UNL     1      49.888   7.904  11.227  0.00  0.00    +0.000 A 
ENDBRANCH   5   7
BRANCH   1  15
ATOM     15  C   UNL     1      45.207   4.817  11.795  0.00  0.00    +0.000 C 
BRANCH  15  16
ATOM     16  O   UNL     1      44.410   4.548  10.646  0.00  0.00    +0.000 OA
BRANCH  16  20
ATOM     17  C   UNL     1      46.472   2.768   7.474  0.00  0.00    +0.000 A 
ATOM     18  C   UNL     1      45.855   1.943   8.418  0.00  0.00    +0.000 A 
ATOM     19  C   UNL     1      45.152   2.504   9.487  0.00  0.00    +0.000 A 
ATOM     20  C   UNL     1      45.057   3.893   9.627  0.00  0.00    +0.000 A 
ATOM     21  C   UNL     1      45.668   4.714   8.677  0.00  0.00    +0.000 A 
ATOM     22  C   UNL     1      46.375   4.157   7.604  0.00  0.00    +0.000 A 
BRANCH  17  24
ATOM     23  N   UNL     1      47.427   2.933   5.240  0.00  0.00    +0.000 N 
ATOM     24  C   UNL     1      47.302   2.193   6.382  0.00  0.00    +0.000 C 
ATOM     25  O   UNL     1      47.847   1.107   6.497  0.00  0.00    +0.000 OA
ATOM     26  H   UNL     1      48.018   2.550   4.512  0.00  0.00    +0.000 HD
ATOM     27  H   UNL     1      47.170   3.908   5.176  0.00  0.00    +0.000 HD
ENDBRANCH  17  24
ENDBRANCH  16  20
ENDBRANCH  15  16
ENDBRANCH   1  15
TORSDOF 5
ENDMDL
MODEL 7
REMARK VINA RESULT:    -7.371      4.841      7.685
REMARK INTER + INTRA:         -10.700
REMARK INTER:                 -10.031
REMARK INTRA:                  -0.669
REMARK UNBOUND:                -1.174
REMARK  Name = 
REMARK  5 active torsions:
REMARK  status: ('A' for Active; 'I' for Inactive)
REMARK    1  A    between atoms: C_2  and  C_4
REMARK    2  A    between atoms: C_7  and  O_8
REMARK    3  A    between atoms: O_8  and  C_9
REMARK    4  A    between atoms: C_9  and  C_10
REMARK    5  A    between atoms: C_14  and  C_15
REMARK                            x       y       z     vdW  Elec       q    Type
REMARK                         _______ _______ _______ _____ _____    ______ ____
ROOT
ATOM      1  C   UNL     1      44.582   4.976  11.795  0.00  0.00    +0.000 A 
ATOM      2  C   UNL     1      43.512   4.201  12.258  0.00  0.00    +0.000 A 
ATOM      3  C   UNL     1      43.185   3.008  11.622  0.00  0.00    +0.000 A 
ATOM      4  C   UNL     1      43.903   2.592  10.508  0.00  0.00    +0.000 A 
ATOM      5  C   UNL     1      44.973   3.355  10.003  0.00  0.00    +0.000 A 
ATOM      6  C   UNL     1      45.327   4.520  10.701  0.00  0.00    +0.000 A 
ENDROOT
BRANCH   5   7
ATOM      7  C   UNL     1      45.663   2.973   8.755  0.00  0.00    +0.000 A 
ATOM      8  C   UNL     1      46.018   3.935   7.790  0.00  0.00    +0.000 A 
ATOM      9  C   UNL     1      46.705   3.581   6.628  0.00  0.00    +0.000 A 
ATOM     10  C   UNL     1      47.051   2.254   6.421  0.00  0.00    +0.000 A 
ATOM     11  F   UNL     1      47.755   1.921   5.326  0.00  0.00    +0.000 F 
ATOM     12  C   UNL     1      46.691   1.283   7.337  0.00  0.00    +0.000 A 
ATOM     13  F   UNL     1      47.035   0.001   7.143  0.00  0.00    +0.000 F 
ATOM     14  C   UNL     1      45.984   1.626   8.485  0.00  0.00    +0.000 A 
ENDBRANCH   5   7
BRANCH   1  15
ATOM     15  C   UNL     1      44.857   6.336  12.379  0.00  0.00    +0.000 C 
BRANCH  15  16
ATOM     16  O   UNL     1      46.250   6.629  12.398  0.00  0.00    +0.000 OA
BRANCH  16  20
ATOM     17  C   UNL     1      48.402   5.524  15.808  0.00  0.00    +0.000 A 
ATOM     18  C   UNL     1      47.416   4.659  15.330  0.00  0.00    +0.000 A 
ATOM     19  C   UNL     1      46.681   4.993  14.189  0.00  0.00    +0.000 A 
ATOM     20  C   UNL     1      46.923   6.194  13.513  0.00  0.00    +0.000 A 
ATOM     21  C   UNL     1      47.916   7.053  13.989  0.00  0.00    +0.000 A 
ATOM     22  C   UNL     1      48.654   6.723  15.132  0.00  0.00    +0.000 A 
BRANCH  17  24
ATOM     23  N   UNL     1      48.518   5.585  18.240  0.00  0.00    +0.000 N 
ATOM     24  C   UNL     1      49.131   5.232  17.071  0.00  0.00    +0.000 C 
ATOM     25  O   UNL     1      50.230   4.700  17.067  0.00  0.00    +0.000 OA
ATOM     26  H   UNL     1      49.006   5.356  19.098  0.00  0.00    +0.000 HD
ATOM     27  H   UNL     1      47.541   5.834  18.305  0.00  0.00    +0.000 HD
ENDBRANCH  17  24
ENDBRANCH  16  20
ENDBRANCH  15  16
ENDBRANCH   1  15
TORSDOF 5
ENDMDL
MODEL 8
REMARK VINA RESULT:    -6.936      5.423      8.499
REMARK INTER + INTRA:         -10.139
REMARK INTER:                  -9.254
REMARK INTRA:                  -0.884
REMARK UNBOUND:                -1.174
REMARK  Name = 
REMARK  5 active torsions:
REMARK  status: ('A' for Active; 'I' for Inactive)
REMARK    1  A    between atoms: C_2  and  C_4
REMARK    2  A    between atoms: C_7  and  O_8
REMARK    3  A    between atoms: O_8  and  C_9
REMARK    4  A    between atoms: C_9  and  C_10
REMARK    5  A    between atoms: C_14  and  C_15
REMARK                            x       y       z     vdW  Elec       q    Type
REMARK                         _______ _______ _______ _____ _____    ______ ____
ROOT
ATOM      1  C   UNL     1      47.183   7.547  13.266  0.00  0.00    +0.000 A 
ATOM      2  C   UNL     1      46.505   8.763  13.124  0.00  0.00    +0.000 A 
ATOM      3  C   UNL     1      45.370   8.843  12.326  0.00  0.00    +0.000 A 
ATOM      4  C   UNL     1      44.916   7.721  11.644  0.00  0.00    +0.000 A 
ATOM      5  C   UNL     1      45.582   6.485  11.748  0.00  0.00    +0.000 A 
ATOM      6  C   UNL     1      46.687   6.412  12.612  0.00  0.00    +0.000 A 
ENDROOT
BRANCH   5   7
ATOM      7  C   UNL     1      45.170   5.323  10.938  0.00  0.00    +0.000 A 
ATOM      8  C   UNL     1      45.581   5.179   9.599  0.00  0.00    +0.000 A 
ATOM      9  C   UNL     1      45.224   4.061   8.844  0.00  0.00    +0.000 A 
ATOM     10  C   UNL     1      44.452   3.066   9.426  0.00  0.00    +0.000 A 
ATOM     11  F   UNL     1      44.149   1.968   8.714  0.00  0.00    +0.000 F 
ATOM     12  C   UNL     1      44.009   3.193  10.730  0.00  0.00    +0.000 A 
ATOM     13  F   UNL     1      43.272   2.227  11.297  0.00  0.00    +0.000 F 
ATOM     14  C   UNL     1      44.341   4.317  11.479  0.00  0.00    +0.000 A 
ENDBRANCH   5   7
BRANCH   1  15
ATOM     15  C   UNL     1      48.492   7.476  14.007  0.00  0.00    +0.000 C 
BRANCH  15  16
ATOM     16  O   UNL     1      48.739   6.169  14.514  0.00  0.00    +0.000 OA
BRANCH  16  20
ATOM     17  C   UNL     1      48.158   5.517  18.603  0.00  0.00    +0.000 A 
ATOM     18  C   UNL     1      48.850   6.661  18.200  0.00  0.00    +0.000 A 
ATOM     19  C   UNL     1      49.057   6.914  16.842  0.00  0.00    +0.000 A 
ATOM     20  C   UNL     1      48.576   6.028  15.871  0.00  0.00    +0.000 A 
ATOM     21  C   UNL     1      47.877   4.890  16.277  0.00  0.00    +0.000 A 
ATOM     22  C   UNL     1      47.668   4.631  17.637  0.00  0.00    +0.000 A 
BRANCH  17  24
ATOM     23  N   UNL     1      48.555   4.005  20.471  0.00  0.00    +0.000 N 
ATOM     24  C   UNL     1      48.007   5.181  20.044  0.00  0.00    +0.000 C 
ATOM     25  O   UNL     1      47.417   5.923  20.815  0.00  0.00    +0.000 OA
ATOM     26  H   UNL     1      48.475   3.797  21.459  0.00  0.00    +0.000 HD
ATOM     27  H   UNL     1      49.216   3.468  19.928  0.00  0.00    +0.000 HD
ENDBRANCH  17  24
ENDBRANCH  16  20
ENDBRANCH  15  16
ENDBRANCH   1  15
TORSDOF 5
ENDMDL
MODEL 9
REMARK VINA RESULT:    -6.752      4.795      7.847
REMARK INTER + INTRA:          -9.900
REMARK INTER:                  -9.119
REMARK INTRA:                  -0.782
REMARK UNBOUND:                -1.174
REMARK  Name = 
REMARK  5 active torsions:
REMARK  status: ('A' for Active; 'I' for Inactive)
REMARK    1  A    between atoms: C_2  and  C_4
REMARK    2  A    between atoms: C_7  and  O_8
REMARK    3  A    between atoms: O_8  and  C_9
REMARK    4  A    between atoms: C_9  and  C_10
REMARK    5  A    between atoms: C_14  and  C_15
REMARK                            x       y       z     vdW  Elec       q    Type
REMARK                         _______ _______ _______ _____ _____    ______ ____
ROOT
ATOM      1  C   UNL     1      45.151   6.155  11.922  0.00  0.00    +0.000 A 
ATOM      2  C   UNL     1      43.762   6.169  12.091  0.00  0.00    +0.000 A 
ATOM      3  C   UNL     1      42.955   5.341  11.319  0.00  0.00    +0.000 A 
ATOM      4  C   UNL     1      43.522   4.512  10.359  0.00  0.00    +0.000 A 
ATOM      5  C   UNL     1      44.914   4.485  10.149  0.00  0.00    +0.000 A 
ATOM      6  C   UNL     1      45.713   5.281  10.985  0.00  0.00    +0.000 A 
ENDROOT
BRANCH   5   7
ATOM      7  C   UNL     1      45.507   3.692   9.054  0.00  0.00    +0.000 A 
ATOM      8  C   UNL     1      46.110   4.312   7.943  0.00  0.00    +0.000 A 
ATOM      9  C   UNL     1      46.706   3.564   6.927  0.00  0.00    +0.000 A 
ATOM     10  C   UNL     1      46.712   2.180   7.016  0.00  0.00    +0.000 A 
ATOM     11  F   UNL     1      47.328   1.462   6.062  0.00  0.00    +0.000 F 
ATOM     12  C   UNL     1      46.102   1.542   8.081  0.00  0.00    +0.000 A 
ATOM     13  F   UNL     1      46.116   0.205   8.173  0.00  0.00    +0.000 F 
ATOM     14  C   UNL     1      45.484   2.282   9.084  0.00  0.00    +0.000 A 
ENDBRANCH   5   7
BRANCH   1  15
ATOM     15  C   UNL     1      46.024   7.148  12.644  0.00  0.00    +0.000 C 
BRANCH  15  16
ATOM     16  O   UNL     1      47.035   7.677  11.793  0.00  0.00    +0.000 OA
BRANCH  16  20
ATOM     17  C   UNL     1      50.609   8.358  13.853  0.00  0.00    +0.000 A 
ATOM     18  C   UNL     1      50.582   8.566  12.472  0.00  0.00    +0.000 A 
ATOM     19  C   UNL     1      49.403   8.354  11.753  0.00  0.00    +0.000 A 
ATOM     20  C   UNL     1      48.238   7.933  12.403  0.00  0.00    +0.000 A 
ATOM     21  C   UNL     1      48.266   7.734  13.784  0.00  0.00    +0.000 A 
ATOM     22  C   UNL     1      49.445   7.943  14.510  0.00  0.00    +0.000 A 
BRANCH  17  24
ATOM     23  N   UNL     1      52.716   7.413  14.623  0.00  0.00    +0.000 N 
ATOM     24  C   UNL     1      51.874   8.488  14.623  0.00  0.00    +0.000 C 
ATOM     25  O   UNL     1      52.151   9.511  15.231  0.00  0.00    +0.000 OA
ATOM     26  H   UNL     1      53.591   7.519  15.125  0.00  0.00    +0.000 HD
ATOM     27  H   UNL     1      52.631   6.637  13.982  0.00  0.00    +0.000 HD
ENDBRANCH  17  24
ENDBRANCH  16  20
ENDBRANCH  15  16
ENDBRANCH   1  15
TORSDOF 5
ENDMDL
