MODEL 1
REMARK VINA RESULT:    -7.661      0.000      0.000
REMARK INTER + INTRA:         -12.002
REMARK INTER:                 -10.795
REMARK INTRA:                  -1.207
REMARK UNBOUND:                -1.207
REMARK  Name = 
REMARK  8 active torsions:
REMARK  status: ('A' for Active; 'I' for Inactive)
REMARK    1  A    between atoms: C_1  and  N_2
REMARK    2  A    between atoms: C_6  and  C_7
REMARK    3  A    between atoms: N_9  and  C_10
REMARK    4  A    between atoms: C_10  and  C_11
REMARK    5  A    between atoms: C_10  and  C_13
REMARK    6  A    between atoms: C_16  and  C_17
REMARK    7  A    between atoms: C_17  and  N_18
REMARK    8  A    between atoms: C_19  and  C_21
REMARK                            x       y       z     vdW  Elec       q    Type
REMARK                         _______ _______ _______ _____ _____    ______ ____
ROOT
ATOM      1  C   UNL     1      45.306   5.634  10.778  0.00  0.00    +0.000 A 
ATOM      2  C   UNL     1      46.542   6.203  10.464  0.00  0.00    +0.000 A 
ATOM      3  C   UNL     1      47.148   7.066  11.376  0.00  0.00    +0.000 A 
ATOM      4  C   UNL     1      46.535   7.335  12.599  0.00  0.00    +0.000 A 
ATOM      5  C   UNL     1      45.300   6.739  12.827  0.00  0.00    +0.000 A 
ATOM      6  N   UNL     1      44.672   5.906  11.956  0.00  0.00    +0.000 NA
ENDROOT
BRANCH   1   7
ATOM      7  C   UNL     1      44.640   4.658   9.799  0.00  0.00    +0.000 C 
BRANCH   7  10
ATOM      8  C   UNL     1      45.250   3.413   7.741  0.00  0.00    +0.000 C 
ATOM      9  O   UNL     1      44.071   3.307   7.421  0.00  0.00    +0.000 OA
ATOM     10  N   UNL     1      45.618   4.090   8.876  0.00  0.00    +0.000 N 
ATOM     11  H   UNL     1      46.587   4.213   9.135  0.00  0.00    +0.000 HD
BRANCH   8  17
ATOM     12  C   UNL     1      46.401   0.550   8.046  0.00  0.00    +0.000 C 
ATOM     13  N   UNL     1      46.842   1.575   7.124  0.00  0.00    +0.000 N 
ATOM     14  N   UNL     1      47.864   1.291   6.291  0.00  0.00    +0.000 NA
ATOM     15  C   UNL     1      48.035   2.413   5.598  0.00  0.00    +0.000 A 
ATOM     16  C   UNL     1      47.125   3.410   5.974  0.00  0.00    +0.000 A 
ATOM     17  C   UNL     1      46.343   2.854   6.975  0.00  0.00    +0.000 A 
ENDBRANCH   8  17
ENDBRANCH   7  10
BRANCH   7  18
ATOM     18  C   UNL     1      43.933   3.579  10.530  0.00  0.00    +0.000 C 
ATOM     19  N   UNL     1      43.388   2.739  11.120  0.00  0.00    +0.000 NA
ENDBRANCH   7  18
ENDBRANCH   1   7
BRANCH   4  20
ATOM     20  C   UNL     1      47.179   8.237  13.614  0.00  0.00    +0.000 C 
BRANCH  20  21
ATOM     21  N   UNL     1      47.616   7.522  14.789  0.00  0.00    +0.000 N 
ATOM     22  C   UNL     1      48.841   6.908  14.868  0.00  0.00    +0.000 C 
ATOM     23  O   UNL     1      49.657   6.957  13.951  0.00  0.00    +0.000 OA
ATOM     24  H   UNL     1      46.918   7.330  15.498  0.00  0.00    +0.000 HD
BRANCH  22  25
ATOM     25  C   UNL     1      49.148   6.223  16.131  0.00  0.00    +0.000 A 
ATOM     26  C   UNL     1      50.188   6.686  16.926  0.00  0.00    +0.000 A 
ATOM     27  S   UNL     1      50.398   5.798  18.366  0.00  0.00    +0.000 S 
ATOM     28  C   UNL     1      49.137   4.733  17.958  0.00  0.00    +0.000 A 
ATOM     29  N   UNL     1      48.808   3.695  18.772  0.00  0.00    +0.000 NA
ATOM     30  C   UNL     1      47.857   2.944  18.325  0.00  0.00    +0.000 A 
ATOM     31  N   UNL     1      47.199   3.144  17.139  0.00  0.00    +0.000 N 
ATOM     32  C   UNL     1      47.460   4.210  16.310  0.00  0.00    +0.000 A 
ATOM     33  O   UNL     1      46.788   4.415  15.303  0.00  0.00    +0.000 OA
ATOM     34  C   UNL     1      48.546   5.065  16.751  0.00  0.00    +0.000 A 
ATOM     35  H   UNL     1      46.447   2.530  16.859  0.00  0.00    +0.000 HD
ENDBRANCH  22  25
ENDBRANCH  20  21
ENDBRANCH   4  20
TORSDOF 7
ENDMDL
MODEL 2
REMARK VINA RESULT:    -7.560      1.493      1.915
REMARK INTER + INTRA:         -11.860
REMARK INTER:                 -10.856
REMARK INTRA:                  -1.004
REMARK UNBOUND:                -1.207
REMARK  Name = 
REMARK  8 active torsions:
REMARK  status: ('A' for Active; 'I' for Inactive)
REMARK    1  A    between atoms: C_1  and  N_2
REMARK    2  A    between atoms: C_6  and  C_7
REMARK    3  A    between atoms: N_9  and  C_10
REMARK    4  A    between atoms: C_10  and  C_11
REMARK    5  A    between atoms: C_10  and  C_13
REMARK    6  A    between atoms: C_16  and  C_17
REMARK    7  A    between atoms: C_17  and  N_18
REMARK    8  A    between atoms: C_19  and  C_21
REMARK                            x       y       z     vdW  Elec       q    Type
REMARK                         _______ _______ _______ _____ _____    ______ ____
ROOT
ATOM      1  C   UNL     1      45.379   4.928  11.762  0.00  0.00    +0.000 A 
ATOM      2  C   UNL     1      45.582   6.160  11.135  0.00  0.00    +0.000 A 
ATOM      3  C   UNL     1      46.389   7.115  11.751  0.00  0.00    +0.000 A 
ATOM      4  C   UNL     1      47.008   6.829  12.968  0.00  0.00    +0.000 A 
ATOM      5  C   UNL     1      46.744   5.585  13.531  0.00  0.00    +0.000 A 
ATOM      6  N   UNL     1      45.950   4.637  12.967  0.00  0.00    +0.000 NA
ENDROOT
BRANCH   1   7
ATOM      7  C   UNL     1      44.518   3.854  11.082  0.00  0.00    +0.000 C 
BRANCH   7  10
ATOM      8  C   UNL     1      45.207   3.018   8.850  0.00  0.00    +0.000 C 
ATOM      9  O   UNL     1      44.447   3.801   8.291  0.00  0.00    +0.000 OA
ATOM     10  N   UNL     1      45.328   3.003  10.216  0.00  0.00    +0.000 N 
ATOM     11  H   UNL     1      45.973   2.386  10.689  0.00  0.00    +0.000 HD
BRANCH   8  17
ATOM     12  C   UNL     1      47.463   3.704   6.836  0.00  0.00    +0.000 C 
ATOM     13  N   UNL     1      47.035   2.386   7.252  0.00  0.00    +0.000 N 
ATOM     14  N   UNL     1      47.662   1.313   6.728  0.00  0.00    +0.000 NA
ATOM     15  C   UNL     1      47.044   0.275   7.286  0.00  0.00    +0.000 A 
ATOM     16  C   UNL     1      46.034   0.675   8.170  0.00  0.00    +0.000 A 
ATOM     17  C   UNL     1      46.033   2.061   8.146  0.00  0.00    +0.000 A 
ENDBRANCH   8  17
ENDBRANCH   7  10
BRANCH   7  18
ATOM     18  C   UNL     1      43.805   3.035  12.091  0.00  0.00    +0.000 C 
ATOM     19  N   UNL     1      43.262   2.380  12.883  0.00  0.00    +0.000 NA
ENDBRANCH   7  18
ENDBRANCH   1   7
BRANCH   4  20
ATOM     20  C   UNL     1      47.908   7.828  13.640  0.00  0.00    +0.000 C 
BRANCH  20  21
ATOM     21  N   UNL     1      47.939   7.664  15.074  0.00  0.00    +0.000 N 
ATOM     22  C   UNL     1      48.999   7.090  15.730  0.00  0.00    +0.000 C 
ATOM     23  O   UNL     1      50.005   6.708  15.137  0.00  0.00    +0.000 OA
ATOM     24  H   UNL     1      47.073   7.823  15.576  0.00  0.00    +0.000 HD
BRANCH  22  25
ATOM     25  C   UNL     1      48.891   6.996  17.192  0.00  0.00    +0.000 A 
ATOM     26  C   UNL     1      48.837   8.158  17.951  0.00  0.00    +0.000 A 
ATOM     27  S   UNL     1      48.688   7.877  19.625  0.00  0.00    +0.000 S 
ATOM     28  C   UNL     1      48.736   6.191  19.403  0.00  0.00    +0.000 A 
ATOM     29  N   UNL     1      48.679   5.344  20.465  0.00  0.00    +0.000 NA
ATOM     30  C   UNL     1      48.762   4.093  20.156  0.00  0.00    +0.000 A 
ATOM     31  N   UNL     1      48.887   3.612  18.879  0.00  0.00    +0.000 N 
ATOM     32  C   UNL     1      48.894   4.427  17.771  0.00  0.00    +0.000 A 
ATOM     33  O   UNL     1      48.911   3.961  16.635  0.00  0.00    +0.000 OA
ATOM     34  C   UNL     1      48.839   5.847  18.066  0.00  0.00    +0.000 A 
ATOM     35  H   UNL     1      48.924   2.618  18.705  0.00  0.00    +0.000 HD
ENDBRANCH  22  25
ENDBRANCH  20  21
ENDBRANCH   4  20
TORSDOF 7
ENDMDL
MODEL 3
REMARK VINA RESULT:    -6.859      3.242      8.990
REMARK INTER + INTRA:         -10.872
REMARK INTER:                  -9.817
REMARK INTRA:                  -1.055
REMARK UNBOUND:                -1.207
REMARK  Name = 
REMARK  8 active torsions:
REMARK  status: ('A' for Active; 'I' for Inactive)
REMARK    1  A    between atoms: C_1  and  N_2
REMARK    2  A    between atoms: C_6  and  C_7
REMARK    3  A    between atoms: N_9  and  C_10
REMARK    4  A    between atoms: C_10  and  C_11
REMARK    5  A    between atoms: C_10  and  C_13
REMARK    6  A    between atoms: C_16  and  C_17
REMARK    7  A    between atoms: C_17  and  N_18
REMARK    8  A    between atoms: C_19  and  C_21
REMARK                            x       y       z     vdW  Elec       q    Type
REMARK                         _______ _______ _______ _____ _____    ______ ____
ROOT
ATOM      1  C   UNL     1      50.185   7.117  15.424  0.00  0.00    +0.000 A 
ATOM      2  C   UNL     1      50.413   8.157  14.520  0.00  0.00    +0.000 A 
ATOM      3  C   UNL     1      49.537   8.335  13.450  0.00  0.00    +0.000 A 
ATOM      4  C   UNL     1      48.431   7.498  13.303  0.00  0.00    +0.000 A 
ATOM      5  C   UNL     1      48.285   6.481  14.238  0.00  0.00    +0.000 A 
ATOM      6  N   UNL     1      49.126   6.267  15.284  0.00  0.00    +0.000 NA
ENDROOT
BRANCH   1   7
ATOM      7  C   UNL     1      51.121   6.926  16.625  0.00  0.00    +0.000 C 
BRANCH   7  10
ATOM      8  C   UNL     1      50.968   4.696  17.703  0.00  0.00    +0.000 C 
ATOM      9  O   UNL     1      50.063   5.081  18.435  0.00  0.00    +0.000 OA
ATOM     10  N   UNL     1      51.520   5.528  16.763  0.00  0.00    +0.000 N 
ATOM     11  H   UNL     1      52.244   5.216  16.131  0.00  0.00    +0.000 HD
BRANCH   8  17
ATOM     12  C   UNL     1      49.559   2.102  16.754  0.00  0.00    +0.000 C 
ATOM     13  N   UNL     1      50.885   2.218  17.322  0.00  0.00    +0.000 N 
ATOM     14  N   UNL     1      51.618   1.096  17.473  0.00  0.00    +0.000 NA
ATOM     15  C   UNL     1      52.752   1.524  18.020  0.00  0.00    +0.000 A 
ATOM     16  C   UNL     1      52.755   2.912  18.213  0.00  0.00    +0.000 A 
ATOM     17  C   UNL     1      51.528   3.363  17.751  0.00  0.00    +0.000 A 
ENDBRANCH   8  17
ENDBRANCH   7  10
BRANCH   7  18
ATOM     18  C   UNL     1      52.316   7.795  16.505  0.00  0.00    +0.000 C 
ATOM     19  N   UNL     1      53.257   8.473  16.430  0.00  0.00    +0.000 NA
ENDBRANCH   7  18
ENDBRANCH   1   7
BRANCH   4  20
ATOM     20  C   UNL     1      47.454   7.686  12.176  0.00  0.00    +0.000 C 
BRANCH  20  21
ATOM     21  N   UNL     1      46.746   6.471  11.852  0.00  0.00    +0.000 N 
ATOM     22  C   UNL     1      45.379   6.419  11.741  0.00  0.00    +0.000 C 
ATOM     23  O   UNL     1      44.674   7.415  11.879  0.00  0.00    +0.000 OA
ATOM     24  H   UNL     1      47.274   5.607  11.883  0.00  0.00    +0.000 HD
BRANCH  22  25
ATOM     25  C   UNL     1      44.800   5.113  11.400  0.00  0.00    +0.000 A 
ATOM     26  C   UNL     1      44.008   4.451  12.329  0.00  0.00    +0.000 A 
ATOM     27  S   UNL     1      43.394   2.962  11.770  0.00  0.00    +0.000 S 
ATOM     28  C   UNL     1      44.201   3.126  10.282  0.00  0.00    +0.000 A 
ATOM     29  N   UNL     1      44.115   2.157   9.330  0.00  0.00    +0.000 NA
ATOM     30  C   UNL     1      44.806   2.392   8.265  0.00  0.00    +0.000 A 
ATOM     31  N   UNL     1      45.567   3.514   8.060  0.00  0.00    +0.000 N 
ATOM     32  C   UNL     1      45.640   4.543   8.970  0.00  0.00    +0.000 A 
ATOM     33  O   UNL     1      46.253   5.577   8.717  0.00  0.00    +0.000 OA
ATOM     34  C   UNL     1      44.909   4.312  10.202  0.00  0.00    +0.000 A 
ATOM     35  H   UNL     1      46.065   3.646   7.192  0.00  0.00    +0.000 HD
ENDBRANCH  22  25
ENDBRANCH  20  21
ENDBRANCH   4  20
TORSDOF 7
ENDMDL
MODEL 4
REMARK VINA RESULT:    -6.766      3.659      8.742
REMARK INTER + INTRA:         -10.742
REMARK INTER:                  -9.624
REMARK INTRA:                  -1.118
REMARK UNBOUND:                -1.207
REMARK  Name = 
REMARK  8 active torsions:
REMARK  status: ('A' for Active; 'I' for Inactive)
REMARK    1  A    between atoms: C_1  and  N_2
REMARK    2  A    between atoms: C_6  and  C_7
REMARK    3  A    between atoms: N_9  and  C_10
REMARK    4  A    between atoms: C_10  and  C_11
REMARK    5  A    between atoms: C_10  and  C_13
REMARK    6  A    between atoms: C_16  and  C_17
REMARK    7  A    between atoms: C_17  and  N_18
REMARK    8  A    between atoms: C_19  and  C_21
REMARK                            x       y       z     vdW  Elec       q    Type
REMARK                         _______ _______ _______ _____ _____    ______ ____
ROOT
ATOM      1  C   UNL     1      50.335   7.223  15.554  0.00  0.00    +0.000 A 
ATOM      2  C   UNL     1      49.048   6.712  15.365  0.00  0.00    +0.000 A 
ATOM      3  C   UNL     1      48.353   7.025  14.198  0.00  0.00    +0.000 A 
ATOM      4  C   UNL     1      48.950   7.819  13.219  0.00  0.00    +0.000 A 
ATOM      5  C   UNL     1      50.227   8.297  13.490  0.00  0.00    +0.000 A 
ATOM      6  N   UNL     1      50.928   8.026  14.623  0.00  0.00    +0.000 NA
ENDROOT
BRANCH   1   7
ATOM      7  C   UNL     1      51.126   6.863  16.818  0.00  0.00    +0.000 C 
BRANCH   7  10
ATOM      8  C   UNL     1      51.009   4.623  17.880  0.00  0.00    +0.000 C 
ATOM      9  O   UNL     1      50.299   5.056  18.781  0.00  0.00    +0.000 OA
ATOM     10  N   UNL     1      51.431   5.436  16.859  0.00  0.00    +0.000 N 
ATOM     11  H   UNL     1      51.989   5.086  16.093  0.00  0.00    +0.000 HD
BRANCH   8  17
ATOM     12  C   UNL     1      49.351   2.229  16.815  0.00  0.00    +0.000 C 
ATOM     13  N   UNL     1      50.706   2.196  17.323  0.00  0.00    +0.000 N 
ATOM     14  N   UNL     1      51.350   1.011  17.354  0.00  0.00    +0.000 NA
ATOM     15  C   UNL     1      52.539   1.305  17.873  0.00  0.00    +0.000 A 
ATOM     16  C   UNL     1      52.664   2.669  18.166  0.00  0.00    +0.000 A 
ATOM     17  C   UNL     1      51.459   3.250  17.802  0.00  0.00    +0.000 A 
ENDBRANCH   8  17
ENDBRANCH   7  10
BRANCH   7  18
ATOM     18  C   UNL     1      52.373   7.660  16.905  0.00  0.00    +0.000 C 
ATOM     19  N   UNL     1      53.358   8.271  16.984  0.00  0.00    +0.000 NA
ENDBRANCH   7  18
ENDBRANCH   1   7
BRANCH   4  20
ATOM     20  C   UNL     1      48.236   8.147  11.938  0.00  0.00    +0.000 C 
BRANCH  20  21
ATOM     21  N   UNL     1      47.534   7.011  11.392  0.00  0.00    +0.000 N 
ATOM     22  C   UNL     1      46.164   6.927  11.375  0.00  0.00    +0.000 C 
ATOM     23  O   UNL     1      45.448   7.832  11.795  0.00  0.00    +0.000 OA
ATOM     24  H   UNL     1      48.083   6.186  11.179  0.00  0.00    +0.000 HD
BRANCH  22  25
ATOM     25  C   UNL     1      45.590   5.711  10.781  0.00  0.00    +0.000 A 
ATOM     26  C   UNL     1      45.749   5.472   9.422  0.00  0.00    +0.000 A 
ATOM     27  S   UNL     1      45.047   4.010   8.897  0.00  0.00    +0.000 S 
ATOM     28  C   UNL     1      44.465   3.665  10.458  0.00  0.00    +0.000 A 
ATOM     29  N   UNL     1      43.736   2.543  10.699  0.00  0.00    +0.000 NA
ATOM     30  C   UNL     1      43.326   2.423  11.918  0.00  0.00    +0.000 A 
ATOM     31  N   UNL     1      43.589   3.321  12.920  0.00  0.00    +0.000 N 
ATOM     32  C   UNL     1      44.367   4.440  12.736  0.00  0.00    +0.000 A 
ATOM     33  O   UNL     1      44.663   5.174  13.675  0.00  0.00    +0.000 OA
ATOM     34  C   UNL     1      44.823   4.639  11.373  0.00  0.00    +0.000 A 
ATOM     35  H   UNL     1      43.256   3.154  13.859  0.00  0.00    +0.000 HD
ENDBRANCH  22  25
ENDBRANCH  20  21
ENDBRANCH   4  20
TORSDOF 7
ENDMDL
MODEL 5
REMARK VINA RESULT:    -6.672      1.820      2.887
REMARK INTER + INTRA:         -10.609
REMARK INTER:                  -9.700
REMARK INTRA:                  -0.909
REMARK UNBOUND:                -1.207
REMARK  Name = 
REMARK  8 active torsions:
REMARK  status: ('A' for Active; 'I' for Inactive)
REMARK    1  A    between atoms: C_1  and  N_2
REMARK    2  A    between atoms: C_6  and  C_7
REMARK    3  A    between atoms: N_9  and  C_10
REMARK    4  A    between atoms: C_10  and  C_11
REMARK    5  A    between atoms: C_10  and  C_13
REMARK    6  A    between atoms: C_16  and  C_17
REMARK    7  A    between atoms: C_17  and  N_18
REMARK    8  A    between atoms: C_19  and  C_21
REMARK                            x       y       z     vdW  Elec       q    Type
REMARK                         _______ _______ _______ _____ _____    ______ ____
ROOT
ATOM      1  C   UNL     1      45.024   4.882  11.549  0.00  0.00    +0.000 A 
ATOM      2  C   UNL     1      45.610   5.851  10.730  0.00  0.00    +0.000 A 
ATOM      3  C   UNL     1      46.305   6.909  11.314  0.00  0.00    +0.000 A 
ATOM      4  C   UNL     1      46.435   6.981  12.701  0.00  0.00    +0.000 A 
ATOM      5  C   UNL     1      45.811   5.984  13.443  0.00  0.00    +0.000 A 
ATOM      6  N   UNL     1      45.113   4.948  12.909  0.00  0.00    +0.000 NA
ENDROOT
BRANCH   1   7
ATOM      7  C   UNL     1      44.282   3.695  10.921  0.00  0.00    +0.000 C 
BRANCH   7  10
ATOM      8  C   UNL     1      45.152   2.925   8.729  0.00  0.00    +0.000 C 
ATOM      9  O   UNL     1      44.403   3.690   8.131  0.00  0.00    +0.000 OA
ATOM     10  N   UNL     1      45.180   2.889  10.099  0.00  0.00    +0.000 N 
ATOM     11  H   UNL     1      45.814   2.287  10.606  0.00  0.00    +0.000 HD
BRANCH   8  17
ATOM     12  C   UNL     1      47.464   3.725   6.823  0.00  0.00    +0.000 C 
ATOM     13  N   UNL     1      47.085   2.386   7.223  0.00  0.00    +0.000 N 
ATOM     14  N   UNL     1      47.791   1.347   6.732  0.00  0.00    +0.000 NA
ATOM     15  C   UNL     1      47.202   0.279   7.263  0.00  0.00    +0.000 A 
ATOM     16  C   UNL     1      46.131   0.627   8.097  0.00  0.00    +0.000 A 
ATOM     17  C   UNL     1      46.060   2.011   8.068  0.00  0.00    +0.000 A 
ENDBRANCH   8  17
ENDBRANCH   7  10
BRANCH   7  18
ATOM     18  C   UNL     1      43.649   2.857  11.968  0.00  0.00    +0.000 C 
ATOM     19  N   UNL     1      43.148   2.186  12.774  0.00  0.00    +0.000 NA
ENDBRANCH   7  18
ENDBRANCH   1   7
BRANCH   4  20
ATOM     20  C   UNL     1      47.205   8.093  13.357  0.00  0.00    +0.000 C 
BRANCH  20  21
ATOM     21  N   UNL     1      47.631   7.755  14.693  0.00  0.00    +0.000 N 
ATOM     22  C   UNL     1      48.820   7.121  14.952  0.00  0.00    +0.000 C 
ATOM     23  O   UNL     1      49.613   6.830  14.061  0.00  0.00    +0.000 OA
ATOM     24  H   UNL     1      46.942   7.838  15.433  0.00  0.00    +0.000 HD
BRANCH  22  25
ATOM     25  C   UNL     1      49.121   6.847  16.365  0.00  0.00    +0.000 A 
ATOM     26  C   UNL     1      48.800   5.610  16.906  0.00  0.00    +0.000 A 
ATOM     27  S   UNL     1      49.236   5.445  18.546  0.00  0.00    +0.000 S 
ATOM     28  C   UNL     1      49.830   7.038  18.605  0.00  0.00    +0.000 A 
ATOM     29  N   UNL     1      50.335   7.552  19.758  0.00  0.00    +0.000 NA
ATOM     30  C   UNL     1      50.716   8.783  19.672  0.00  0.00    +0.000 A 
ATOM     31  N   UNL     1      50.646   9.543  18.533  0.00  0.00    +0.000 N 
ATOM     32  C   UNL     1      50.194   9.049  17.332  0.00  0.00    +0.000 A 
ATOM     33  O   UNL     1      50.233   9.726  16.308  0.00  0.00    +0.000 OA
ATOM     34  C   UNL     1      49.720   7.679  17.384  0.00  0.00    +0.000 A 
ATOM     35  H   UNL     1      50.984  10.495  18.529  0.00  0.00    +0.000 HD
ENDBRANCH  22  25
ENDBRANCH  20  21
ENDBRANCH   4  20
TORSDOF 7
ENDMDL
MODEL 6
REMARK VINA RESULT:    -6.273      4.214     10.496
REMARK INTER + INTRA:         -10.047
REMARK INTER:                  -8.988
REMARK INTRA:                  -1.060
REMARK UNBOUND:                -1.207
REMARK  Name = 
REMARK  8 active torsions:
REMARK  status: ('A' for Active; 'I' for Inactive)
REMARK    1  A    between atoms: C_1  and  N_2
REMARK    2  A    between atoms: C_6  and  C_7
REMARK    3  A    between atoms: N_9  and  C_10
REMARK    4  A    between atoms: C_10  and  C_11
REMARK    5  A    between atoms: C_10  and  C_13
REMARK    6  A    between atoms: C_16  and  C_17
REMARK    7  A    between atoms: C_17  and  N_18
REMARK    8  A    between atoms: C_19  and  C_21
REMARK                            x       y       z     vdW  Elec       q    Type
REMARK                         _______ _______ _______ _____ _____    ______ ____
ROOT
ATOM      1  C   UNL     1      51.378   4.232  17.715  0.00  0.00    +0.000 A 
ATOM      2  C   UNL     1      50.550   5.312  17.399  0.00  0.00    +0.000 A 
ATOM      3  C   UNL     1      49.223   5.074  17.042  0.00  0.00    +0.000 A 
ATOM      4  C   UNL     1      48.725   3.771  17.027  0.00  0.00    +0.000 A 
ATOM      5  C   UNL     1      49.618   2.753  17.342  0.00  0.00    +0.000 A 
ATOM      6  N   UNL     1      50.920   2.946  17.679  0.00  0.00    +0.000 NA
ENDROOT
BRANCH   1   7
ATOM      7  C   UNL     1      52.831   4.479  18.141  0.00  0.00    +0.000 C 
BRANCH   7  10
ATOM      8  C   UNL     1      53.663   6.798  18.435  0.00  0.00    +0.000 C 
ATOM      9  O   UNL     1      54.181   6.783  17.324  0.00  0.00    +0.000 OA
ATOM     10  N   UNL     1      52.953   5.720  18.900  0.00  0.00    +0.000 N 
ATOM     11  H   UNL     1      52.494   5.729  19.800  0.00  0.00    +0.000 HD
BRANCH   8  17
ATOM     12  C   UNL     1      51.567   9.067  18.702  0.00  0.00    +0.000 C 
ATOM     13  N   UNL     1      52.798   8.923  19.449  0.00  0.00    +0.000 N 
ATOM     14  N   UNL     1      53.102   9.861  20.370  0.00  0.00    +0.000 NA
ATOM     15  C   UNL     1      54.271   9.461  20.860  0.00  0.00    +0.000 A 
ATOM     16  C   UNL     1      54.715   8.272  20.268  0.00  0.00    +0.000 A 
ATOM     17  C   UNL     1      53.743   7.922  19.343  0.00  0.00    +0.000 A 
ENDBRANCH   8  17
ENDBRANCH   7  10
BRANCH   7  18
ATOM     18  C   UNL     1      53.349   3.337  18.932  0.00  0.00    +0.000 C 
ATOM     19  N   UNL     1      53.761   2.433  19.535  0.00  0.00    +0.000 NA
ENDBRANCH   7  18
ENDBRANCH   1   7
BRANCH   4  20
ATOM     20  C   UNL     1      47.292   3.488  16.675  0.00  0.00    +0.000 C 
BRANCH  20  21
ATOM     21  N   UNL     1      46.769   4.417  15.703  0.00  0.00    +0.000 N 
ATOM     22  C   UNL     1      46.758   4.150  14.356  0.00  0.00    +0.000 C 
ATOM     23  O   UNL     1      47.164   3.085  13.898  0.00  0.00    +0.000 OA
ATOM     24  H   UNL     1      46.570   5.358  16.023  0.00  0.00    +0.000 HD
BRANCH  22  25
ATOM     25  C   UNL     1      46.188   5.189  13.488  0.00  0.00    +0.000 A 
ATOM     26  C   UNL     1      46.915   6.345  13.235  0.00  0.00    +0.000 A 
ATOM     27  S   UNL     1      46.126   7.437  12.191  0.00  0.00    +0.000 S 
ATOM     28  C   UNL     1      44.763   6.426  12.075  0.00  0.00    +0.000 A 
ATOM     29  N   UNL     1      43.682   6.793  11.336  0.00  0.00    +0.000 NA
ATOM     30  C   UNL     1      42.704   5.951  11.364  0.00  0.00    +0.000 A 
ATOM     31  N   UNL     1      42.713   4.768  12.058  0.00  0.00    +0.000 N 
ATOM     32  C   UNL     1      43.803   4.331  12.773  0.00  0.00    +0.000 A 
ATOM     33  O   UNL     1      43.816   3.224  13.304  0.00  0.00    +0.000 OA
ATOM     34  C   UNL     1      44.918   5.259  12.802  0.00  0.00    +0.000 A 
ATOM     35  H   UNL     1      41.921   4.143  12.018  0.00  0.00    +0.000 HD
ENDBRANCH  22  25
ENDBRANCH  20  21
ENDBRANCH   4  20
TORSDOF 7
ENDMDL
MODEL 7
REMARK VINA RESULT:    -6.249      3.762      5.078
REMARK INTER + INTRA:         -10.014
REMARK INTER:                  -8.673
REMARK INTRA:                  -1.340
REMARK UNBOUND:                -1.207
REMARK  Name = 
REMARK  8 active torsions:
REMARK  status: ('A' for Active; 'I' for Inactive)
REMARK    1  A    between atoms: C_1  and  N_2
REMARK    2  A    between atoms: C_6  and  C_7
REMARK    3  A    between atoms: N_9  and  C_10
REMARK    4  A    between atoms: C_10  and  C_11
REMARK    5  A    between atoms: C_10  and  C_13
REMARK    6  A    between atoms: C_16  and  C_17
REMARK    7  A    between atoms: C_17  and  N_18
REMARK    8  A    between atoms: C_19  and  C_21
REMARK                            x       y       z     vdW  Elec       q    Type
REMARK                         _______ _______ _______ _____ _____    ______ ____
ROOT
ATOM      1  C   UNL     1      45.621   6.449  12.350  0.00  0.00    +0.000 A 
ATOM      2  C   UNL     1      45.224   7.786  12.430  0.00  0.00    +0.000 A 
ATOM      3  C   UNL     1      46.052   8.707  13.071  0.00  0.00    +0.000 A 
ATOM      4  C   UNL     1      47.274   8.298  13.603  0.00  0.00    +0.000 A 
ATOM      5  C   UNL     1      47.587   6.948  13.493  0.00  0.00    +0.000 A 
ATOM      6  N   UNL     1      46.799   6.020  12.889  0.00  0.00    +0.000 NA
ENDROOT
BRANCH   1   7
ATOM      7  C   UNL     1      44.736   5.429  11.620  0.00  0.00    +0.000 C 
BRANCH   7  10
ATOM      8  C   UNL     1      44.848   4.408   9.362  0.00  0.00    +0.000 C 
ATOM      9  O   UNL     1      43.661   4.642   9.166  0.00  0.00    +0.000 OA
ATOM     10  N   UNL     1      45.463   4.791  10.526  0.00  0.00    +0.000 N 
ATOM     11  H   UNL     1      46.448   4.634  10.688  0.00  0.00    +0.000 HD
BRANCH   8  17
ATOM     12  C   UNL     1      44.989   1.341   8.925  0.00  0.00    +0.000 C 
ATOM     13  N   UNL     1      45.748   2.358   8.229  0.00  0.00    +0.000 N 
ATOM     14  N   UNL     1      46.623   1.968   7.280  0.00  0.00    +0.000 NA
ATOM     15  C   UNL     1      47.158   3.106   6.848  0.00  0.00    +0.000 A 
ATOM     16  C   UNL     1      46.626   4.223   7.506  0.00  0.00    +0.000 A 
ATOM     17  C   UNL     1      45.699   3.726   8.410  0.00  0.00    +0.000 A 
ENDBRANCH   8  17
ENDBRANCH   7  10
BRANCH   7  18
ATOM     18  C   UNL     1      44.223   4.407  12.564  0.00  0.00    +0.000 C 
ATOM     19  N   UNL     1      43.808   3.599  13.289  0.00  0.00    +0.000 NA
ENDBRANCH   7  18
ENDBRANCH   1   7
BRANCH   4  20
ATOM     20  C   UNL     1      48.200   9.274  14.273  0.00  0.00    +0.000 C 
BRANCH  20  21
ATOM     21  N   UNL     1      49.529   9.248  13.711  0.00  0.00    +0.000 N 
ATOM     22  C   UNL     1      49.986  10.212  12.847  0.00  0.00    +0.000 C 
ATOM     23  O   UNL     1      49.299  11.178  12.524  0.00  0.00    +0.000 OA
ATOM     24  H   UNL     1      50.065   8.396  13.830  0.00  0.00    +0.000 HD
BRANCH  22  25
ATOM     25  C   UNL     1      51.364  10.055  12.361  0.00  0.00    +0.000 A 
ATOM     26  C   UNL     1      52.289  11.066  12.588  0.00  0.00    +0.000 A 
ATOM     27  S   UNL     1      53.844  10.719  11.984  0.00  0.00    +0.000 S 
ATOM     28  C   UNL     1      53.327   9.224  11.356  0.00  0.00    +0.000 A 
ATOM     29  N   UNL     1      54.185   8.418  10.676  0.00  0.00    +0.000 NA
ATOM     30  C   UNL     1      53.653   7.332  10.223  0.00  0.00    +0.000 A 
ATOM     31  N   UNL     1      52.341   6.975  10.398  0.00  0.00    +0.000 N 
ATOM     32  C   UNL     1      51.452   7.732  11.125  0.00  0.00    +0.000 A 
ATOM     33  O   UNL     1      50.309   7.339  11.345  0.00  0.00    +0.000 OA
ATOM     34  C   UNL     1      51.992   8.982  11.626  0.00  0.00    +0.000 A 
ATOM     35  H   UNL     1      51.995   6.098  10.037  0.00  0.00    +0.000 HD
ENDBRANCH  22  25
ENDBRANCH  20  21
ENDBRANCH   4  20
TORSDOF 7
ENDMDL
MODEL 8
REMARK VINA RESULT:    -6.218      2.909      4.770
REMARK INTER + INTRA:          -9.969
REMARK INTER:                  -9.311
REMARK INTRA:                  -0.658
REMARK UNBOUND:                -1.207
REMARK  Name = 
REMARK  8 active torsions:
REMARK  status: ('A' for Active; 'I' for Inactive)
REMARK    1  A    between atoms: C_1  and  N_2
REMARK    2  A    between atoms: C_6  and  C_7
REMARK    3  A    between atoms: N_9  and  C_10
REMARK    4  A    between atoms: C_10  and  C_11
REMARK    5  A    between atoms: C_10  and  C_13
REMARK    6  A    between atoms: C_16  and  C_17
REMARK    7  A    between atoms: C_17  and  N_18
REMARK    8  A    between atoms: C_19  and  C_21
REMARK                            x       y       z     vdW  Elec       q    Type
REMARK                         _______ _______ _______ _____ _____    ______ ____
ROOT
ATOM      1  C   UNL     1      47.512   7.704  13.642  0.00  0.00    +0.000 A 
ATOM      2  C   UNL     1      48.033   6.554  14.240  0.00  0.00    +0.000 A 
ATOM      3  C   UNL     1      48.790   6.672  15.404  0.00  0.00    +0.000 A 
ATOM      4  C   UNL     1      49.000   7.926  15.978  0.00  0.00    +0.000 A 
ATOM      5  C   UNL     1      48.458   9.020  15.314  0.00  0.00    +0.000 A 
ATOM      6  N   UNL     1      47.729   8.944  14.169  0.00  0.00    +0.000 NA
ENDROOT
BRANCH   1   7
ATOM      7  C   UNL     1      46.651   7.588  12.377  0.00  0.00    +0.000 C 
BRANCH   7  10
ATOM      8  C   UNL     1      45.632   5.625  11.253  0.00  0.00    +0.000 C 
ATOM      9  O   UNL     1      46.133   5.943  10.180  0.00  0.00    +0.000 OA
ATOM     10  N   UNL     1      45.864   6.359  12.388  0.00  0.00    +0.000 N 
ATOM     11  H   UNL     1      45.484   6.091  13.285  0.00  0.00    +0.000 HD
BRANCH   8  17
ATOM     12  C   UNL     1      44.471   3.867   8.978  0.00  0.00    +0.000 C 
ATOM     13  N   UNL     1      44.267   3.701  10.400  0.00  0.00    +0.000 N 
ATOM     14  N   UNL     1      43.490   2.681  10.822  0.00  0.00    +0.000 NA
ATOM     15  C   UNL     1      43.488   2.805  12.146  0.00  0.00    +0.000 A 
ATOM     16  C   UNL     1      44.263   3.889  12.577  0.00  0.00    +0.000 A 
ATOM     17  C   UNL     1      44.774   4.473  11.427  0.00  0.00    +0.000 A 
ENDBRANCH   8  17
ENDBRANCH   7  10
BRANCH   7  18
ATOM     18  C   UNL     1      45.764   8.768  12.234  0.00  0.00    +0.000 C 
ATOM     19  N   UNL     1      45.085   9.704  12.118  0.00  0.00    +0.000 NA
ENDBRANCH   7  18
ENDBRANCH   1   7
BRANCH   4  20
ATOM     20  C   UNL     1      49.786   8.081  17.250  0.00  0.00    +0.000 C 
BRANCH  20  21
ATOM     21  N   UNL     1      50.703   6.988  17.467  0.00  0.00    +0.000 N 
ATOM     22  C   UNL     1      50.474   6.003  18.395  0.00  0.00    +0.000 C 
ATOM     23  O   UNL     1      49.453   5.974  19.078  0.00  0.00    +0.000 OA
ATOM     24  H   UNL     1      51.619   7.061  17.038  0.00  0.00    +0.000 HD
BRANCH  22  25
ATOM     25  C   UNL     1      51.495   4.952  18.500  0.00  0.00    +0.000 A 
ATOM     26  C   UNL     1      52.711   5.235  19.108  0.00  0.00    +0.000 A 
ATOM     27  S   UNL     1      53.773   3.904  19.170  0.00  0.00    +0.000 S 
ATOM     28  C   UNL     1      52.665   2.911  18.345  0.00  0.00    +0.000 A 
ATOM     29  N   UNL     1      52.972   1.621  18.044  0.00  0.00    +0.000 NA
ATOM     30  C   UNL     1      52.057   0.993  17.386  0.00  0.00    +0.000 A 
ATOM     31  N   UNL     1      50.855   1.536  17.009  0.00  0.00    +0.000 N 
ATOM     32  C   UNL     1      50.480   2.817  17.338  0.00  0.00    +0.000 A 
ATOM     33  O   UNL     1      49.360   3.243  17.069  0.00  0.00    +0.000 OA
ATOM     34  C   UNL     1      51.490   3.579  18.049  0.00  0.00    +0.000 A 
ATOM     35  H   UNL     1      50.173   0.981  16.514  0.00  0.00    +0.000 HD
ENDBRANCH  22  25
ENDBRANCH  20  21
ENDBRANCH   4  20
TORSDOF 7
ENDMDL
MODEL 9
REMARK VINA RESULT:    -5.856      3.415      4.443
REMARK INTER + INTRA:          -9.459
REMARK INTER:                  -8.206
REMARK INTRA:                  -1.252
REMARK UNBOUND:                -1.207
REMARK  Name = 
REMARK  8 active torsions:
REMARK  status: ('A' for Active; 'I' for Inactive)
REMARK    1  A    between atoms: C_1  and  N_2
REMARK    2  A    between atoms: C_6  and  C_7
REMARK    3  A    between atoms: N_9  and  C_10
REMARK    4  A    between atoms: C_10  and  C_11
REMARK    5  A    between atoms: C_10  and  C_13
REMARK    6  A    between atoms: C_16  and  C_17
REMARK    7  A    between atoms: C_17  and  N_18
REMARK    8  A    between atoms: C_19  and  C_21
REMARK                            x       y       z     vdW  Elec       q    Type
REMARK                         _______ _______ _______ _____ _____    ______ ____
ROOT
ATOM      1  C   UNL     1      46.586   9.161  12.366  0.00  0.00    +0.000 A 
ATOM      2  C   UNL     1      47.665   9.886  11.854  0.00  0.00    +0.000 A 
ATOM      3  C   UNL     1      48.788  10.095  12.652  0.00  0.00    +0.000 A 
ATOM      4  C   UNL     1      48.841   9.561  13.940  0.00  0.00    +0.000 A 
ATOM      5  C   UNL     1      47.721   8.864  14.378  0.00  0.00    +0.000 A 
ATOM      6  N   UNL     1      46.604   8.654  13.634  0.00  0.00    +0.000 NA
ENDROOT
BRANCH   1   7
ATOM      7  C   UNL     1      45.355   8.895  11.490  0.00  0.00    +0.000 C 
BRANCH   7  10
ATOM      8  C   UNL     1      45.320   6.420  11.323  0.00  0.00    +0.000 C 
ATOM      9  O   UNL     1      46.368   6.420  10.686  0.00  0.00    +0.000 OA
ATOM     10  N   UNL     1      44.772   7.589  11.784  0.00  0.00    +0.000 N 
ATOM     11  H   UNL     1      43.927   7.602  12.337  0.00  0.00    +0.000 HD
BRANCH   8  17
ATOM     12  C   UNL     1      45.883   4.527  13.713  0.00  0.00    +0.000 C 
ATOM     13  N   UNL     1      44.843   4.390  12.717  0.00  0.00    +0.000 N 
ATOM     14  N   UNL     1      44.007   3.334  12.803  0.00  0.00    +0.000 NA
ATOM     15  C   UNL     1      43.194   3.481  11.761  0.00  0.00    +0.000 A 
ATOM     16  C   UNL     1      43.496   4.627  11.013  0.00  0.00    +0.000 A 
ATOM     17  C   UNL     1      44.578   5.221  11.646  0.00  0.00    +0.000 A 
ENDBRANCH   8  17
ENDBRANCH   7  10
BRANCH   7  18
ATOM     18  C   UNL     1      44.342   9.964  11.667  0.00  0.00    +0.000 C 
ATOM     19  N   UNL     1      43.540  10.790  11.820  0.00  0.00    +0.000 NA
ENDBRANCH   7  18
ENDBRANCH   1   7
BRANCH   4  20
ATOM     20  C   UNL     1      50.052   9.745  14.812  0.00  0.00    +0.000 C 
BRANCH  20  21
ATOM     21  N   UNL     1      50.008   8.921  15.996  0.00  0.00    +0.000 N 
ATOM     22  C   UNL     1      50.726   7.758  16.115  0.00  0.00    +0.000 C 
ATOM     23  O   UNL     1      51.479   7.361  15.229  0.00  0.00    +0.000 OA
ATOM     24  H   UNL     1      49.288   9.131  16.679  0.00  0.00    +0.000 HD
BRANCH  22  25
ATOM     25  C   UNL     1      50.585   7.028  17.383  0.00  0.00    +0.000 A 
ATOM     26  C   UNL     1      51.341   7.413  18.483  0.00  0.00    +0.000 A 
ATOM     27  S   UNL     1      51.042   6.483  19.879  0.00  0.00    +0.000 S 
ATOM     28  C   UNL     1      49.924   5.502  19.054  0.00  0.00    +0.000 A 
ATOM     29  N   UNL     1      49.304   4.468  19.683  0.00  0.00    +0.000 NA
ATOM     30  C   UNL     1      48.508   3.784  18.930  0.00  0.00    +0.000 A 
ATOM     31  N   UNL     1      48.269   4.048  17.606  0.00  0.00    +0.000 N 
ATOM     32  C   UNL     1      48.830   5.114  16.944  0.00  0.00    +0.000 A 
ATOM     33  O   UNL     1      48.522   5.381  15.785  0.00  0.00    +0.000 OA
ATOM     34  C   UNL     1      49.761   5.895  17.737  0.00  0.00    +0.000 A 
ATOM     35  H   UNL     1      47.615   3.486  17.080  0.00  0.00    +0.000 HD
ENDBRANCH  22  25
ENDBRANCH  20  21
ENDBRANCH   4  20
TORSDOF 7
ENDMDL
