MODEL 1
REMARK VINA RESULT:    -8.300      0.000      0.000
REMARK INTER + INTRA:         -12.889
REMARK INTER:                 -11.697
REMARK INTRA:                  -1.192
REMARK UNBOUND:                -1.192
REMARK  Name = 
REMARK  7 active torsions:
REMARK  status: ('A' for Active; 'I' for Inactive)
REMARK    1  A    between atoms: C_2  and  C_4
REMARK    2  A    between atoms: N_8  and  C_9
REMARK    3  A    between atoms: C_9  and  C_10
REMARK    4  A    between atoms: C_10  and  C_11
REMARK    5  A    between atoms: C_15  and  C_16
REMARK    6  A    between atoms: C_16  and  C_18
REMARK    7  A    between atoms: C_16  and  C_20
REMARK                            x       y       z     vdW  Elec       q    Type
REMARK                         _______ _______ _______ _____ _____    ______ ____
ROOT
ATOM      1  C   UNL     1      43.534   5.631  12.153  0.00  0.00    +0.000 C 
ENDROOT
BRANCH   1   2
ATOM      2  C   UNL     1      44.926   5.627  12.737  0.00  0.00    +0.000 A 
ATOM      3  C   UNL     1      45.356   4.552  13.520  0.00  0.00    +0.000 A 
ATOM      4  C   UNL     1      46.654   4.529  14.020  0.00  0.00    +0.000 A 
ATOM      5  C   UNL     1      47.541   5.571  13.733  0.00  0.00    +0.000 A 
ATOM      6  C   UNL     1      47.139   6.672  12.960  0.00  0.00    +0.000 A 
ATOM      7  C   UNL     1      45.809   6.692  12.496  0.00  0.00    +0.000 A 
BRANCH   6   8
ATOM      8  C   UNL     1      48.078   7.827  12.603  0.00  0.00    +0.000 C 
ATOM      9  F   UNL     1      47.801   8.284  11.333  0.00  0.00    +0.000 F 
BRANCH   8  10
ATOM     10  C   UNL     1      49.557   7.419  12.574  0.00  0.00    +0.000 C 
ATOM     11  C   UNL     1      50.591   8.149  13.449  0.00  0.00    +0.000 C 
ATOM     12  N   UNL     1      51.522   8.188  12.315  0.00  0.00    +0.000 NA
ATOM     13  C   UNL     1      50.467   7.768  11.382  0.00  0.00    +0.000 C 
ATOM     14  H   UNL     1      52.300   7.534  12.391  0.00  0.00    +0.000 HD
ENDBRANCH   8  10
BRANCH   8  15
ATOM     15  C   UNL     1      47.936   9.061  13.514  0.00  0.00    +0.000 C 
ATOM     16  F   UNL     1      47.181   8.784  14.612  0.00  0.00    +0.000 F 
ENDBRANCH   8  15
ENDBRANCH   6   8
ENDBRANCH   1   2
BRANCH   1  17
ATOM     17  C   UNL     1      43.291   4.441  11.222  0.00  0.00    +0.000 C 
BRANCH  17  22
ATOM     18  C   UNL     1      46.463   2.536   7.733  0.00  0.00    +0.000 A 
ATOM     19  C   UNL     1      45.629   1.872   8.626  0.00  0.00    +0.000 A 
ATOM     20  C   UNL     1      44.710   2.606   9.373  0.00  0.00    +0.000 A 
ATOM     21  C   UNL     1      44.653   3.990   9.232  0.00  0.00    +0.000 A 
ATOM     22  N   UNL     1      43.708   4.774   9.868  0.00  0.00    +0.000 N 
ATOM     23  N   UNL     1      45.483   4.647   8.400  0.00  0.00    +0.000 NA
ATOM     24  C   UNL     1      46.372   3.917   7.674  0.00  0.00    +0.000 A 
ATOM     25  H   UNL     1      43.979   5.745   9.710  0.00  0.00    +0.000 HD
BRANCH  18  27
ATOM     26  N   UNL     1      48.541   2.519   6.478  0.00  0.00    +0.000 N 
ATOM     27  C   UNL     1      47.420   1.833   6.858  0.00  0.00    +0.000 C 
ATOM     28  O   UNL     1      47.245   0.669   6.519  0.00  0.00    +0.000 OA
ATOM     29  H   UNL     1      49.243   1.989   5.978  0.00  0.00    +0.000 HD
ATOM     30  H   UNL     1      48.841   3.365   6.941  0.00  0.00    +0.000 HD
ENDBRANCH  18  27
ENDBRANCH  17  22
ENDBRANCH   1  17
TORSDOF 7
ENDMDL
MODEL 2
REMARK VINA RESULT:    -7.821      1.599      2.196
REMARK INTER + INTRA:         -12.213
REMARK INTER:                 -11.582
REMARK INTRA:                  -0.631
REMARK UNBOUND:                -1.192
REMARK  Name = 
REMARK  7 active torsions:
REMARK  status: ('A' for Active; 'I' for Inactive)
REMARK    1  A    between atoms: C_2  and  C_4
REMARK    2  A    between atoms: N_8  and  C_9
REMARK    3  A    between atoms: C_9  and  C_10
REMARK    4  A    between atoms: C_10  and  C_11
REMARK    5  A    between atoms: C_15  and  C_16
REMARK    6  A    between atoms: C_16  and  C_18
REMARK    7  A    between atoms: C_16  and  C_20
REMARK                            x       y       z     vdW  Elec       q    Type
REMARK                         _______ _______ _______ _____ _____    ______ ____
ROOT
ATOM      1  C   UNL     1      43.342   5.465  12.120  0.00  0.00    +0.000 C 
ENDROOT
BRANCH   1   2
ATOM      2  C   UNL     1      44.752   5.564  12.649  0.00  0.00    +0.000 A 
ATOM      3  C   UNL     1      45.322   4.488  13.334  0.00  0.00    +0.000 A 
ATOM      4  C   UNL     1      46.637   4.564  13.782  0.00  0.00    +0.000 A 
ATOM      5  C   UNL     1      47.401   5.708  13.540  0.00  0.00    +0.000 A 
ATOM      6  C   UNL     1      46.858   6.814  12.865  0.00  0.00    +0.000 A 
ATOM      7  C   UNL     1      45.513   6.729  12.454  0.00  0.00    +0.000 A 
BRANCH   6   8
ATOM      8  C   UNL     1      47.659   8.081  12.558  0.00  0.00    +0.000 C 
ATOM      9  F   UNL     1      48.108   8.650  13.729  0.00  0.00    +0.000 F 
BRANCH   8  10
ATOM     10  C   UNL     1      46.827   9.171  11.870  0.00  0.00    +0.000 C 
ATOM     11  C   UNL     1      47.336  10.622  11.800  0.00  0.00    +0.000 C 
ATOM     12  N   UNL     1      45.998  11.108  12.161  0.00  0.00    +0.000 NA
ATOM     13  C   UNL     1      45.560   9.753  12.524  0.00  0.00    +0.000 C 
ATOM     14  H   UNL     1      45.482  11.523  11.386  0.00  0.00    +0.000 HD
ENDBRANCH   8  10
BRANCH   8  15
ATOM     15  C   UNL     1      48.926   7.839  11.718  0.00  0.00    +0.000 C 
ATOM     16  F   UNL     1      49.980   7.478  12.499  0.00  0.00    +0.000 F 
ENDBRANCH   8  15
ENDBRANCH   6   8
ENDBRANCH   1   2
BRANCH   1  17
ATOM     17  C   UNL     1      43.176   4.321  11.118  0.00  0.00    +0.000 C 
BRANCH  17  22
ATOM     18  C   UNL     1      46.516   2.549   7.716  0.00  0.00    +0.000 A 
ATOM     19  C   UNL     1      45.616   1.854   8.516  0.00  0.00    +0.000 A 
ATOM     20  C   UNL     1      44.668   2.564   9.250  0.00  0.00    +0.000 A 
ATOM     21  C   UNL     1      44.647   3.955   9.189  0.00  0.00    +0.000 A 
ATOM     22  N   UNL     1      43.682   4.723   9.814  0.00  0.00    +0.000 N 
ATOM     23  N   UNL     1      45.540   4.640   8.449  0.00  0.00    +0.000 NA
ATOM     24  C   UNL     1      46.456   3.933   7.734  0.00  0.00    +0.000 A 
ATOM     25  H   UNL     1      43.980   5.694   9.730  0.00  0.00    +0.000 HD
BRANCH  18  27
ATOM     26  N   UNL     1      48.527   2.643   6.359  0.00  0.00    +0.000 N 
ATOM     27  C   UNL     1      47.510   1.876   6.858  0.00  0.00    +0.000 C 
ATOM     28  O   UNL     1      47.456   0.674   6.635  0.00  0.00    +0.000 OA
ATOM     29  H   UNL     1      49.264   2.149   5.873  0.00  0.00    +0.000 HD
ATOM     30  H   UNL     1      48.747   3.558   6.728  0.00  0.00    +0.000 HD
ENDBRANCH  18  27
ENDBRANCH  17  22
ENDBRANCH   1  17
TORSDOF 7
ENDMDL
MODEL 3
REMARK VINA RESULT:    -7.208      1.670      2.565
REMARK INTER + INTRA:         -11.349
REMARK INTER:                 -10.438
REMARK INTRA:                  -0.911
REMARK UNBOUND:                -1.192
REMARK  Name = 
REMARK  7 active torsions:
REMARK  status: ('A' for Active; 'I' for Inactive)
REMARK    1  A    between atoms: C_2  and  C_4
REMARK    2  A    between atoms: N_8  and  C_9
REMARK    3  A    between atoms: C_9  and  C_10
REMARK    4  A    between atoms: C_10  and  C_11
REMARK    5  A    between atoms: C_15  and  C_16
REMARK    6  A    between atoms: C_16  and  C_18
REMARK    7  A    between atoms: C_16  and  C_20
REMARK                            x       y       z     vdW  Elec       q    Type
REMARK                         _______ _______ _______ _____ _____    ______ ____
ROOT
ATOM      1  C   UNL     1      43.664   4.306  12.543  0.00  0.00    +0.000 C 
ENDROOT
BRANCH   1   2
ATOM      2  C   UNL     1      44.456   5.574  12.333  0.00  0.00    +0.000 A 
ATOM      3  C   UNL     1      43.950   6.591  11.519  0.00  0.00    +0.000 A 
ATOM      4  C   UNL     1      44.660   7.777  11.361  0.00  0.00    +0.000 A 
ATOM      5  C   UNL     1      45.875   7.967  12.024  0.00  0.00    +0.000 A 
ATOM      6  C   UNL     1      46.421   6.962  12.840  0.00  0.00    +0.000 A 
ATOM      7  C   UNL     1      45.702   5.755  12.955  0.00  0.00    +0.000 A 
BRANCH   6   8
ATOM      8  C   UNL     1      47.737   7.128  13.601  0.00  0.00    +0.000 C 
ATOM      9  F   UNL     1      47.805   6.218  14.632  0.00  0.00    +0.000 F 
BRANCH   8  10
ATOM     10  C   UNL     1      47.883   8.504  14.265  0.00  0.00    +0.000 C 
ATOM     11  C   UNL     1      48.360   9.722  13.454  0.00  0.00    +0.000 C 
ATOM     12  N   UNL     1      49.248  10.109  14.558  0.00  0.00    +0.000 NA
ATOM     13  C   UNL     1      49.044   8.817  15.228  0.00  0.00    +0.000 C 
ATOM     14  H   UNL     1      48.923  10.915  15.091  0.00  0.00    +0.000 HD
ENDBRANCH   8  10
BRANCH   8  15
ATOM     15  C   UNL     1      48.995   6.868  12.752  0.00  0.00    +0.000 C 
ATOM     16  F   UNL     1      48.904   7.465  11.532  0.00  0.00    +0.000 F 
ENDBRANCH   8  15
ENDBRANCH   6   8
ENDBRANCH   1   2
BRANCH   1  17
ATOM     17  C   UNL     1      43.317   3.613  11.224  0.00  0.00    +0.000 C 
BRANCH  17  22
ATOM     18  C   UNL     1      46.497   2.641   7.375  0.00  0.00    +0.000 A 
ATOM     19  C   UNL     1      46.116   3.863   7.920  0.00  0.00    +0.000 A 
ATOM     20  C   UNL     1      45.365   3.879   9.093  0.00  0.00    +0.000 A 
ATOM     21  C   UNL     1      44.991   2.679   9.692  0.00  0.00    +0.000 A 
ATOM     22  N   UNL     1      44.328   2.616  10.904  0.00  0.00    +0.000 N 
ATOM     23  N   UNL     1      45.321   1.491   9.151  0.00  0.00    +0.000 NA
ATOM     24  C   UNL     1      46.058   1.490   8.008  0.00  0.00    +0.000 A 
ATOM     25  H   UNL     1      44.052   1.643  11.036  0.00  0.00    +0.000 HD
BRANCH  18  27
ATOM     26  N   UNL     1      47.097   3.407   5.151  0.00  0.00    +0.000 N 
ATOM     27  C   UNL     1      47.344   2.531   6.172  0.00  0.00    +0.000 C 
ATOM     28  O   UNL     1      48.259   1.721   6.104  0.00  0.00    +0.000 OA
ATOM     29  H   UNL     1      47.758   3.400   4.384  0.00  0.00    +0.000 HD
ATOM     30  H   UNL     1      46.540   4.241   5.275  0.00  0.00    +0.000 HD
ENDBRANCH  18  27
ENDBRANCH  17  22
ENDBRANCH   1  17
TORSDOF 7
ENDMDL
MODEL 4
REMARK VINA RESULT:    -6.960      3.872      7.472
REMARK INTER + INTRA:         -11.000
REMARK INTER:                  -9.943
REMARK INTRA:                  -1.057
REMARK UNBOUND:                -1.192
REMARK  Name = 
REMARK  7 active torsions:
REMARK  status: ('A' for Active; 'I' for Inactive)
REMARK    1  A    between atoms: C_2  and  C_4
REMARK    2  A    between atoms: N_8  and  C_9
REMARK    3  A    between atoms: C_9  and  C_10
REMARK    4  A    between atoms: C_10  and  C_11
REMARK    5  A    between atoms: C_15  and  C_16
REMARK    6  A    between atoms: C_16  and  C_18
REMARK    7  A    between atoms: C_16  and  C_20
REMARK                            x       y       z     vdW  Elec       q    Type
REMARK                         _______ _______ _______ _____ _____    ______ ____
ROOT
ATOM      1  C   UNL     1      48.042   7.377  12.009  0.00  0.00    +0.000 C 
ENDROOT
BRANCH   1   2
ATOM      2  C   UNL     1      46.598   6.992  11.798  0.00  0.00    +0.000 A 
ATOM      3  C   UNL     1      45.607   7.976  11.760  0.00  0.00    +0.000 A 
ATOM      4  C   UNL     1      44.282   7.623  11.521  0.00  0.00    +0.000 A 
ATOM      5  C   UNL     1      43.935   6.286  11.306  0.00  0.00    +0.000 A 
ATOM      6  C   UNL     1      44.902   5.269  11.349  0.00  0.00    +0.000 A 
ATOM      7  C   UNL     1      46.231   5.646  11.629  0.00  0.00    +0.000 A 
BRANCH   6   8
ATOM      8  C   UNL     1      44.576   3.795  11.100  0.00  0.00    +0.000 C 
ATOM      9  F   UNL     1      45.575   2.998  11.611  0.00  0.00    +0.000 F 
BRANCH   8  10
ATOM     10  C   UNL     1      44.491   3.437   9.611  0.00  0.00    +0.000 C 
ATOM     11  C   UNL     1      45.106   2.130   9.080  0.00  0.00    +0.000 C 
ATOM     12  N   UNL     1      45.670   2.858   7.938  0.00  0.00    +0.000 NA
ATOM     13  C   UNL     1      45.359   4.154   8.559  0.00  0.00    +0.000 C 
ATOM     14  H   UNL     1      45.188   2.689   7.056  0.00  0.00    +0.000 HD
ENDBRANCH   8  10
BRANCH   8  15
ATOM     15  C   UNL     1      43.285   3.310  11.786  0.00  0.00    +0.000 C 
ATOM     16  F   UNL     1      43.359   3.444  13.138  0.00  0.00    +0.000 F 
ENDBRANCH   8  15
ENDBRANCH   6   8
ENDBRANCH   1   2
BRANCH   1  17
ATOM     17  C   UNL     1      48.285   7.984  13.393  0.00  0.00    +0.000 C 
BRANCH  17  22
ATOM     18  C   UNL     1      47.940   4.259  16.840  0.00  0.00    +0.000 A 
ATOM     19  C   UNL     1      47.150   4.505  15.722  0.00  0.00    +0.000 A 
ATOM     20  C   UNL     1      47.541   5.488  14.815  0.00  0.00    +0.000 A 
ATOM     21  C   UNL     1      48.701   6.221  15.049  0.00  0.00    +0.000 A 
ATOM     22  N   UNL     1      49.203   7.146  14.151  0.00  0.00    +0.000 N 
ATOM     23  N   UNL     1      49.453   6.018  16.148  0.00  0.00    +0.000 NA
ATOM     24  C   UNL     1      49.060   5.053  17.022  0.00  0.00    +0.000 A 
ATOM     25  H   UNL     1      49.963   7.632  14.625  0.00  0.00    +0.000 HD
BRANCH  18  27
ATOM     26  N   UNL     1      48.426   3.126  18.931  0.00  0.00    +0.000 N 
ATOM     27  C   UNL     1      47.635   3.196  17.816  0.00  0.00    +0.000 C 
ATOM     28  O   UNL     1      46.689   2.435  17.663  0.00  0.00    +0.000 OA
ATOM     29  H   UNL     1      48.135   2.472  19.647  0.00  0.00    +0.000 HD
ATOM     30  H   UNL     1      49.033   3.882  19.213  0.00  0.00    +0.000 HD
ENDBRANCH  18  27
ENDBRANCH  17  22
ENDBRANCH   1  17
TORSDOF 7
ENDMDL
MODEL 5
REMARK VINA RESULT:    -6.747      5.093      8.197
REMARK INTER + INTRA:         -10.700
REMARK INTER:                 -10.042
REMARK INTRA:                  -0.658
REMARK UNBOUND:                -1.192
REMARK  Name = 
REMARK  7 active torsions:
REMARK  status: ('A' for Active; 'I' for Inactive)
REMARK    1  A    between atoms: C_2  and  C_4
REMARK    2  A    between atoms: N_8  and  C_9
REMARK    3  A    between atoms: C_9  and  C_10
REMARK    4  A    between atoms: C_10  and  C_11
REMARK    5  A    between atoms: C_15  and  C_16
REMARK    6  A    between atoms: C_16  and  C_18
REMARK    7  A    between atoms: C_16  and  C_20
REMARK                            x       y       z     vdW  Elec       q    Type
REMARK                         _______ _______ _______ _____ _____    ______ ____
ROOT
ATOM      1  C   UNL     1      47.901   5.090  15.185  0.00  0.00    +0.000 C 
ENDROOT
BRANCH   1   2
ATOM      2  C   UNL     1      47.099   5.533  13.986  0.00  0.00    +0.000 A 
ATOM      3  C   UNL     1      47.291   6.806  13.444  0.00  0.00    +0.000 A 
ATOM      4  C   UNL     1      46.583   7.197  12.312  0.00  0.00    +0.000 A 
ATOM      5  C   UNL     1      45.685   6.317  11.701  0.00  0.00    +0.000 A 
ATOM      6  C   UNL     1      45.457   5.034  12.226  0.00  0.00    +0.000 A 
ATOM      7  C   UNL     1      46.158   4.674  13.394  0.00  0.00    +0.000 A 
BRANCH   6   8
ATOM      8  C   UNL     1      44.499   4.028  11.583  0.00  0.00    +0.000 C 
ATOM      9  F   UNL     1      44.414   2.895  12.361  0.00  0.00    +0.000 F 
BRANCH   8  10
ATOM     10  C   UNL     1      44.968   3.541  10.206  0.00  0.00    +0.000 C 
ATOM     11  C   UNL     1      44.474   4.225   8.919  0.00  0.00    +0.000 C 
ATOM     12  N   UNL     1      44.263   2.911   8.301  0.00  0.00    +0.000 NA
ATOM     13  C   UNL     1      44.442   2.230   9.591  0.00  0.00    +0.000 C 
ATOM     14  H   UNL     1      44.959   2.665   7.597  0.00  0.00    +0.000 HD
ENDBRANCH   8  10
BRANCH   8  15
ATOM     15  C   UNL     1      43.051   4.533  11.448  0.00  0.00    +0.000 C 
ATOM     16  F   UNL     1      42.591   5.045  12.622  0.00  0.00    +0.000 F 
ENDBRANCH   8  15
ENDBRANCH   6   8
ENDBRANCH   1   2
BRANCH   1  17
ATOM     17  C   UNL     1      47.038   4.382  16.232  0.00  0.00    +0.000 C 
BRANCH  17  22
ATOM     18  C   UNL     1      51.559   2.597  17.731  0.00  0.00    +0.000 A 
ATOM     19  C   UNL     1      50.909   3.773  18.091  0.00  0.00    +0.000 A 
ATOM     20  C   UNL     1      49.589   3.971  17.689  0.00  0.00    +0.000 A 
ATOM     21  C   UNL     1      48.948   3.005  16.919  0.00  0.00    +0.000 A 
ATOM     22  N   UNL     1      47.615   3.087  16.562  0.00  0.00    +0.000 N 
ATOM     23  N   UNL     1      49.581   1.881  16.532  0.00  0.00    +0.000 NA
ATOM     24  C   UNL     1      50.867   1.699  16.935  0.00  0.00    +0.000 A 
ATOM     25  H   UNL     1      47.444   2.338  15.892  0.00  0.00    +0.000 HD
BRANCH  18  27
ATOM     26  N   UNL     1      53.279   2.617  19.444  0.00  0.00    +0.000 N 
ATOM     27  C   UNL     1      52.931   2.277  18.165  0.00  0.00    +0.000 C 
ATOM     28  O   UNL     1      53.717   1.692  17.430  0.00  0.00    +0.000 OA
ATOM     29  H   UNL     1      54.179   2.287  19.767  0.00  0.00    +0.000 HD
ATOM     30  H   UNL     1      52.593   2.854  20.147  0.00  0.00    +0.000 HD
ENDBRANCH  18  27
ENDBRANCH  17  22
ENDBRANCH   1  17
TORSDOF 7
ENDMDL
MODEL 6
REMARK VINA RESULT:    -6.692      3.874      7.575
REMARK INTER + INTRA:         -10.623
REMARK INTER:                  -9.458
REMARK INTRA:                  -1.166
REMARK UNBOUND:                -1.192
REMARK  Name = 
REMARK  7 active torsions:
REMARK  status: ('A' for Active; 'I' for Inactive)
REMARK    1  A    between atoms: C_2  and  C_4
REMARK    2  A    between atoms: N_8  and  C_9
REMARK    3  A    between atoms: C_9  and  C_10
REMARK    4  A    between atoms: C_10  and  C_11
REMARK    5  A    between atoms: C_15  and  C_16
REMARK    6  A    between atoms: C_16  and  C_18
REMARK    7  A    between atoms: C_16  and  C_20
REMARK                            x       y       z     vdW  Elec       q    Type
REMARK                         _______ _______ _______ _____ _____    ______ ____
ROOT
ATOM      1  C   UNL     1      48.948   7.968  12.331  0.00  0.00    +0.000 C 
ENDROOT
BRANCH   1   2
ATOM      2  C   UNL     1      47.460   8.036  12.087  0.00  0.00    +0.000 A 
ATOM      3  C   UNL     1      46.789   9.258  12.175  0.00  0.00    +0.000 A 
ATOM      4  C   UNL     1      45.425   9.326  11.907  0.00  0.00    +0.000 A 
ATOM      5  C   UNL     1      44.720   8.178  11.536  0.00  0.00    +0.000 A 
ATOM      6  C   UNL     1      45.359   6.930  11.450  0.00  0.00    +0.000 A 
ATOM      7  C   UNL     1      46.732   6.879  11.762  0.00  0.00    +0.000 A 
BRANCH   6   8
ATOM      8  C   UNL     1      44.635   5.649  11.030  0.00  0.00    +0.000 C 
ATOM      9  F   UNL     1      43.348   5.941  10.637  0.00  0.00    +0.000 F 
BRANCH   8  10
ATOM     10  C   UNL     1      44.490   4.634  12.172  0.00  0.00    +0.000 C 
ATOM     11  C   UNL     1      45.294   3.322  12.165  0.00  0.00    +0.000 C 
ATOM     12  N   UNL     1      44.094   2.584  12.577  0.00  0.00    +0.000 NA
ATOM     13  C   UNL     1      43.237   3.748  12.310  0.00  0.00    +0.000 C 
ATOM     14  H   UNL     1      44.103   2.284  13.552  0.00  0.00    +0.000 HD
ENDBRANCH   8  10
BRANCH   8  15
ATOM     15  C   UNL     1      45.271   4.930   9.826  0.00  0.00    +0.000 C 
ATOM     16  F   UNL     1      44.330   4.303   9.068  0.00  0.00    +0.000 F 
ENDBRANCH   8  15
ENDBRANCH   6   8
ENDBRANCH   1   2
BRANCH   1  17
ATOM     17  C   UNL     1      49.321   8.373  13.759  0.00  0.00    +0.000 C 
BRANCH  17  22
ATOM     18  C   UNL     1      48.150   4.498  16.840  0.00  0.00    +0.000 A 
ATOM     19  C   UNL     1      47.438   5.020  15.765  0.00  0.00    +0.000 A 
ATOM     20  C   UNL     1      48.040   5.976  14.950  0.00  0.00    +0.000 A 
ATOM     21  C   UNL     1      49.333   6.410  15.231  0.00  0.00    +0.000 A 
ATOM     22  N   UNL     1      50.029   7.284  14.416  0.00  0.00    +0.000 N 
ATOM     23  N   UNL     1      50.017   5.941  16.292  0.00  0.00    +0.000 NA
ATOM     24  C   UNL     1      49.418   5.005  17.077  0.00  0.00    +0.000 A 
ATOM     25  H   UNL     1      50.877   7.542  14.921  0.00  0.00    +0.000 HD
BRANCH  18  27
ATOM     26  N   UNL     1      48.353   3.109  18.820  0.00  0.00    +0.000 N 
ATOM     27  C   UNL     1      47.615   3.440  17.716  0.00  0.00    +0.000 C 
ATOM     28  O   UNL     1      46.536   2.906  17.493  0.00  0.00    +0.000 OA
ATOM     29  H   UNL     1      47.920   2.469  19.474  0.00  0.00    +0.000 HD
ATOM     30  H   UNL     1      49.096   3.697  19.171  0.00  0.00    +0.000 HD
ENDBRANCH  18  27
ENDBRANCH  17  22
ENDBRANCH   1  17
TORSDOF 7
ENDMDL
MODEL 7
REMARK VINA RESULT:    -6.681      4.339      6.734
REMARK INTER + INTRA:         -10.608
REMARK INTER:                  -9.612
REMARK INTRA:                  -0.996
REMARK UNBOUND:                -1.192
REMARK  Name = 
REMARK  7 active torsions:
REMARK  status: ('A' for Active; 'I' for Inactive)
REMARK    1  A    between atoms: C_2  and  C_4
REMARK    2  A    between atoms: N_8  and  C_9
REMARK    3  A    between atoms: C_9  and  C_10
REMARK    4  A    between atoms: C_10  and  C_11
REMARK    5  A    between atoms: C_15  and  C_16
REMARK    6  A    between atoms: C_16  and  C_18
REMARK    7  A    between atoms: C_16  and  C_20
REMARK                            x       y       z     vdW  Elec       q    Type
REMARK                         _______ _______ _______ _____ _____    ______ ____
ROOT
ATOM      1  C   UNL     1      49.236   8.215  14.853  0.00  0.00    +0.000 C 
ENDROOT
BRANCH   1   2
ATOM      2  C   UNL     1      49.920   7.190  15.724  0.00  0.00    +0.000 A 
ATOM      3  C   UNL     1      51.315   7.139  15.786  0.00  0.00    +0.000 A 
ATOM      4  C   UNL     1      51.942   6.222  16.624  0.00  0.00    +0.000 A 
ATOM      5  C   UNL     1      51.185   5.355  17.416  0.00  0.00    +0.000 A 
ATOM      6  C   UNL     1      49.782   5.369  17.370  0.00  0.00    +0.000 A 
ATOM      7  C   UNL     1      49.168   6.280  16.487  0.00  0.00    +0.000 A 
BRANCH   6   8
ATOM      8  C   UNL     1      48.909   4.454  18.232  0.00  0.00    +0.000 C 
ATOM      9  F   UNL     1      49.417   4.385  19.510  0.00  0.00    +0.000 F 
BRANCH   8  10
ATOM     10  C   UNL     1      48.872   3.005  17.731  0.00  0.00    +0.000 C 
ATOM     11  C   UNL     1      50.161   2.297  17.276  0.00  0.00    +0.000 C 
ATOM     12  N   UNL     1      49.452   1.757  16.109  0.00  0.00    +0.000 NA
ATOM     13  C   UNL     1      48.304   2.644  16.345  0.00  0.00    +0.000 C 
ATOM     14  H   UNL     1      49.235   0.763  16.176  0.00  0.00    +0.000 HD
ENDBRANCH   8  10
BRANCH   8  15
ATOM     15  C   UNL     1      47.458   4.942  18.402  0.00  0.00    +0.000 C 
ATOM     16  F   UNL     1      47.366   5.903  19.361  0.00  0.00    +0.000 F 
ENDBRANCH   8  15
ENDBRANCH   6   8
ENDBRANCH   1   2
BRANCH   1  17
ATOM     17  C   UNL     1      49.432   7.933  13.361  0.00  0.00    +0.000 C 
BRANCH  17  22
ATOM     18  C   UNL     1      45.113   5.254  13.167  0.00  0.00    +0.000 A 
ATOM     19  C   UNL     1      45.355   6.568  12.785  0.00  0.00    +0.000 A 
ATOM     20  C   UNL     1      46.666   7.040  12.763  0.00  0.00    +0.000 A 
ATOM     21  C   UNL     1      47.710   6.199  13.141  0.00  0.00    +0.000 A 
ATOM     22  N   UNL     1      49.041   6.564  13.057  0.00  0.00    +0.000 N 
ATOM     23  N   UNL     1      47.482   4.936  13.551  0.00  0.00    +0.000 NA
ATOM     24  C   UNL     1      46.198   4.489  13.563  0.00  0.00    +0.000 A 
ATOM     25  H   UNL     1      49.575   5.833  13.525  0.00  0.00    +0.000 HD
BRANCH  18  27
ATOM     26  N   UNL     1      42.704   5.502  13.001  0.00  0.00    +0.000 N 
ATOM     27  C   UNL     1      43.765   4.654  13.159  0.00  0.00    +0.000 C 
ATOM     28  O   UNL     1      43.601   3.444  13.246  0.00  0.00    +0.000 OA
ATOM     29  H   UNL     1      41.797   5.068  12.878  0.00  0.00    +0.000 HD
ATOM     30  H   UNL     1      42.812   6.450  12.668  0.00  0.00    +0.000 HD
ENDBRANCH  18  27
ENDBRANCH  17  22
ENDBRANCH   1  17
TORSDOF 7
ENDMDL
MODEL 8
REMARK VINA RESULT:    -6.452      4.609      8.110
REMARK INTER + INTRA:         -10.284
REMARK INTER:                  -9.398
REMARK INTRA:                  -0.886
REMARK UNBOUND:                -1.192
REMARK  Name = 
REMARK  7 active torsions:
REMARK  status: ('A' for Active; 'I' for Inactive)
REMARK    1  A    between atoms: C_2  and  C_4
REMARK    2  A    between atoms: N_8  and  C_9
REMARK    3  A    between atoms: C_9  and  C_10
REMARK    4  A    between atoms: C_10  and  C_11
REMARK    5  A    between atoms: C_15  and  C_16
REMARK    6  A    between atoms: C_16  and  C_18
REMARK    7  A    between atoms: C_16  and  C_20
REMARK                            x       y       z     vdW  Elec       q    Type
REMARK                         _______ _______ _______ _____ _____    ______ ____
ROOT
ATOM      1  C   UNL     1      48.470   6.997  12.750  0.00  0.00    +0.000 C 
ENDROOT
BRANCH   1   2
ATOM      2  C   UNL     1      47.027   6.841  12.334  0.00  0.00    +0.000 A 
ATOM      3  C   UNL     1      46.225   7.969  12.145  0.00  0.00    +0.000 A 
ATOM      4  C   UNL     1      44.908   7.825  11.718  0.00  0.00    +0.000 A 
ATOM      5  C   UNL     1      44.382   6.556  11.465  0.00  0.00    +0.000 A 
ATOM      6  C   UNL     1      45.155   5.399  11.657  0.00  0.00    +0.000 A 
ATOM      7  C   UNL     1      46.474   5.567  12.124  0.00  0.00    +0.000 A 
BRANCH   6   8
ATOM      8  C   UNL     1      44.632   3.989  11.375  0.00  0.00    +0.000 C 
ATOM      9  F   UNL     1      45.573   3.054  11.745  0.00  0.00    +0.000 F 
BRANCH   8  10
ATOM     10  C   UNL     1      44.365   3.729   9.886  0.00  0.00    +0.000 C 
ATOM     11  C   UNL     1      44.641   2.347   9.268  0.00  0.00    +0.000 C 
ATOM     12  N   UNL     1      45.266   2.992   8.106  0.00  0.00    +0.000 NA
ATOM     13  C   UNL     1      45.289   4.292   8.791  0.00  0.00    +0.000 C 
ATOM     14  H   UNL     1      44.697   2.972   7.261  0.00  0.00    +0.000 HD
ENDBRANCH   8  10
BRANCH   8  15
ATOM     15  C   UNL     1      43.363   3.617  12.164  0.00  0.00    +0.000 C 
ATOM     16  F   UNL     1      43.349   2.295  12.489  0.00  0.00    +0.000 F 
ENDBRANCH   8  15
ENDBRANCH   6   8
ENDBRANCH   1   2
BRANCH   1  17
ATOM     17  C   UNL     1      48.618   7.816  14.034  0.00  0.00    +0.000 C 
BRANCH  17  22
ATOM     18  C   UNL     1      50.696   4.771  17.539  0.00  0.00    +0.000 A 
ATOM     19  C   UNL     1      51.194   5.942  16.979  0.00  0.00    +0.000 A 
ATOM     20  C   UNL     1      50.367   6.710  16.161  0.00  0.00    +0.000 A 
ATOM     21  C   UNL     1      49.066   6.287  15.900  0.00  0.00    +0.000 A 
ATOM     22  N   UNL     1      48.160   7.040  15.176  0.00  0.00    +0.000 N 
ATOM     23  N   UNL     1      48.587   5.135  16.406  0.00  0.00    +0.000 NA
ATOM     24  C   UNL     1      49.403   4.398  17.205  0.00  0.00    +0.000 A 
ATOM     25  H   UNL     1      47.348   6.444  15.015  0.00  0.00    +0.000 HD
BRANCH  18  27
ATOM     26  N   UNL     1      51.692   2.630  18.100  0.00  0.00    +0.000 N 
ATOM     27  C   UNL     1      51.478   3.931  18.465  0.00  0.00    +0.000 C 
ATOM     28  O   UNL     1      51.956   4.386  19.496  0.00  0.00    +0.000 OA
ATOM     29  H   UNL     1      52.328   2.100  18.683  0.00  0.00    +0.000 HD
ATOM     30  H   UNL     1      51.544   2.300  17.156  0.00  0.00    +0.000 HD
ENDBRANCH  18  27
ENDBRANCH  17  22
ENDBRANCH   1  17
TORSDOF 7
ENDMDL
MODEL 9
REMARK VINA RESULT:    -6.391      4.163      6.126
REMARK INTER + INTRA:         -10.198
REMARK INTER:                  -8.825
REMARK INTRA:                  -1.373
REMARK UNBOUND:                -1.192
REMARK  Name = 
REMARK  7 active torsions:
REMARK  status: ('A' for Active; 'I' for Inactive)
REMARK    1  A    between atoms: C_2  and  C_4
REMARK    2  A    between atoms: N_8  and  C_9
REMARK    3  A    between atoms: C_9  and  C_10
REMARK    4  A    between atoms: C_10  and  C_11
REMARK    5  A    between atoms: C_15  and  C_16
REMARK    6  A    between atoms: C_16  and  C_18
REMARK    7  A    between atoms: C_16  and  C_20
REMARK                            x       y       z     vdW  Elec       q    Type
REMARK                         _______ _______ _______ _____ _____    ______ ____
ROOT
ATOM      1  C   UNL     1      49.282   8.139  14.646  0.00  0.00    +0.000 C 
ENDROOT
BRANCH   1   2
ATOM      2  C   UNL     1      48.915   7.628  16.018  0.00  0.00    +0.000 A 
ATOM      3  C   UNL     1      48.423   8.506  16.987  0.00  0.00    +0.000 A 
ATOM      4  C   UNL     1      48.044   8.025  18.236  0.00  0.00    +0.000 A 
ATOM      5  C   UNL     1      48.141   6.662  18.528  0.00  0.00    +0.000 A 
ATOM      6  C   UNL     1      48.644   5.752  17.584  0.00  0.00    +0.000 A 
ATOM      7  C   UNL     1      49.056   6.267  16.338  0.00  0.00    +0.000 A 
BRANCH   6   8
ATOM      8  C   UNL     1      48.752   4.249  17.849  0.00  0.00    +0.000 C 
ATOM      9  F   UNL     1      48.804   4.011  19.204  0.00  0.00    +0.000 F 
BRANCH   8  10
ATOM     10  C   UNL     1      50.032   3.624  17.278  0.00  0.00    +0.000 C 
ATOM     11  C   UNL     1      50.228   2.098  17.273  0.00  0.00    +0.000 C 
ATOM     12  N   UNL     1      51.609   2.274  17.737  0.00  0.00    +0.000 NA
ATOM     13  C   UNL     1      51.371   3.693  18.036  0.00  0.00    +0.000 C 
ATOM     14  H   UNL     1      52.314   2.108  17.020  0.00  0.00    +0.000 HD
ENDBRANCH   8  10
BRANCH   8  15
ATOM     15  C   UNL     1      47.549   3.431  17.342  0.00  0.00    +0.000 C 
ATOM     16  F   UNL     1      47.550   3.334  15.985  0.00  0.00    +0.000 F 
ENDBRANCH   8  15
ENDBRANCH   6   8
ENDBRANCH   1   2
BRANCH   1  17
ATOM     17  C   UNL     1      49.106   7.073  13.563  0.00  0.00    +0.000 C 
BRANCH  17  22
ATOM     18  C   UNL     1      45.115   4.331  12.004  0.00  0.00    +0.000 A 
ATOM     19  C   UNL     1      45.831   4.252  13.193  0.00  0.00    +0.000 A 
ATOM     20  C   UNL     1      46.782   5.230  13.481  0.00  0.00    +0.000 A 
ATOM     21  C   UNL     1      47.016   6.256  12.570  0.00  0.00    +0.000 A 
ATOM     22  N   UNL     1      47.873   7.310  12.825  0.00  0.00    +0.000 N 
ATOM     23  N   UNL     1      46.356   6.319  11.397  0.00  0.00    +0.000 NA
ATOM     24  C   UNL     1      45.429   5.361  11.132  0.00  0.00    +0.000 A 
ATOM     25  H   UNL     1      47.968   7.829  11.952  0.00  0.00    +0.000 HD
BRANCH  18  27
ATOM     26  N   UNL     1      43.789   2.368  12.535  0.00  0.00    +0.000 N 
ATOM     27  C   UNL     1      44.049   3.377  11.647  0.00  0.00    +0.000 C 
ATOM     28  O   UNL     1      43.391   3.503  10.623  0.00  0.00    +0.000 OA
ATOM     29  H   UNL     1      42.980   1.794  12.337  0.00  0.00    +0.000 HD
ATOM     30  H   UNL     1      44.122   2.387  13.489  0.00  0.00    +0.000 HD
ENDBRANCH  18  27
ENDBRANCH  17  22
ENDBRANCH   1  17
TORSDOF 7
ENDMDL
