MODEL 1
REMARK VINA RESULT:    -7.804      0.000      0.000
REMARK INTER + INTRA:         -10.271
REMARK INTER:                  -9.857
REMARK INTRA:                  -0.414
REMARK UNBOUND:                -0.414
REMARK  Name = 
REMARK  6 active torsions:
REMARK  status: ('A' for Active; 'I' for Inactive)
REMARK    1  A    between atoms: C_1  and  O_2
REMARK    2  A    between atoms: O_2  and  C_3
REMARK    3  A    between atoms: N_9  and  C_10
REMARK    4  A    between atoms: C_10  and  C_11
REMARK    5  A    between atoms: C_15  and  C_16
REMARK    6  A    between atoms: C_16  and  N_17
REMARK                            x       y       z     vdW  Elec       q    Type
REMARK                         _______ _______ _______ _____ _____    ______ ____
ROOT
ATOM      1  C   UNL     1      46.867   6.248  12.170  0.00  0.00    +0.000 A 
ATOM      2  C   UNL     1      46.666   5.766  13.461  0.00  0.00    +0.000 A 
ATOM      3  C   UNL     1      45.655   4.833  13.723  0.00  0.00    +0.000 A 
ATOM      4  C   UNL     1      44.843   4.369  12.672  0.00  0.00    +0.000 A 
ATOM      5  C   UNL     1      43.767   3.448  12.608  0.00  0.00    +0.000 A 
ATOM      6  C   UNL     1      43.366   3.362  11.299  0.00  0.00    +0.000 A 
ATOM      7  N   UNL     1      44.158   4.206  10.552  0.00  0.00    +0.000 N 
ATOM      8  C   UNL     1      45.057   4.857  11.377  0.00  0.00    +0.000 A 
ATOM      9  C   UNL     1      46.050   5.818  11.115  0.00  0.00    +0.000 A 
ENDROOT
BRANCH   1  11
ATOM     10  C   UNL     1      49.059   7.056  12.516  0.00  0.00    +0.000 C 
ATOM     11  O   UNL     1      47.820   7.173  11.825  0.00  0.00    +0.000 OA
ENDBRANCH   1  11
BRANCH   7  12
ATOM     12  C   UNL     1      44.111   4.278   9.094  0.00  0.00    +0.000 C 
BRANCH  12  13
ATOM     13  C   UNL     1      44.979   3.230   8.445  0.00  0.00    +0.000 A 
ATOM     14  C   UNL     1      45.077   1.949   8.999  0.00  0.00    +0.000 A 
ATOM     15  C   UNL     1      45.919   0.997   8.431  0.00  0.00    +0.000 A 
ATOM     16  C   UNL     1      46.676   1.314   7.301  0.00  0.00    +0.000 A 
ATOM     17  C   UNL     1      46.583   2.581   6.710  0.00  0.00    +0.000 A 
ATOM     18  C   UNL     1      45.731   3.532   7.297  0.00  0.00    +0.000 A 
BRANCH  17  19
ATOM     19  C   UNL     1      47.471   2.929   5.539  0.00  0.00    +0.000 C 
BRANCH  19  20
ATOM     20  N   UNL     1      48.482   1.912   5.258  0.00  0.00    +0.000 NA
ATOM     21  H   UNL     1      49.389   2.269   5.555  0.00  0.00    +0.000 HD
ATOM     22  H   UNL     1      48.542   1.781   4.249  0.00  0.00    +0.000 HD
ENDBRANCH  19  20
ENDBRANCH  17  19
ENDBRANCH  12  13
ENDBRANCH   7  12
TORSDOF 5
ENDMDL
MODEL 2
REMARK VINA RESULT:    -7.095      1.842      2.461
REMARK INTER + INTRA:          -9.376
REMARK INTER:                  -8.728
REMARK INTRA:                  -0.648
REMARK UNBOUND:                -0.414
REMARK  Name = 
REMARK  6 active torsions:
REMARK  status: ('A' for Active; 'I' for Inactive)
REMARK    1  A    between atoms: C_1  and  O_2
REMARK    2  A    between atoms: O_2  and  C_3
REMARK    3  A    between atoms: N_9  and  C_10
REMARK    4  A    between atoms: C_10  and  C_11
REMARK    5  A    between atoms: C_15  and  C_16
REMARK    6  A    between atoms: C_16  and  N_17
REMARK                            x       y       z     vdW  Elec       q    Type
REMARK                         _______ _______ _______ _____ _____    ______ ____
ROOT
ATOM      1  C   UNL     1      45.376   7.551  11.977  0.00  0.00    +0.000 A 
ATOM      2  C   UNL     1      46.222   7.510  13.083  0.00  0.00    +0.000 A 
ATOM      3  C   UNL     1      46.619   6.284  13.630  0.00  0.00    +0.000 A 
ATOM      4  C   UNL     1      46.169   5.082  13.052  0.00  0.00    +0.000 A 
ATOM      5  C   UNL     1      46.387   3.715  13.357  0.00  0.00    +0.000 A 
ATOM      6  C   UNL     1      45.712   2.965  12.429  0.00  0.00    +0.000 A 
ATOM      7  N   UNL     1      45.078   3.827  11.561  0.00  0.00    +0.000 N 
ATOM      8  C   UNL     1      45.323   5.136  11.939  0.00  0.00    +0.000 A 
ATOM      9  C   UNL     1      44.895   6.364  11.405  0.00  0.00    +0.000 A 
ENDROOT
BRANCH   1  11
ATOM     10  C   UNL     1      45.306   9.911  12.038  0.00  0.00    +0.000 C 
ATOM     11  O   UNL     1      44.923   8.704  11.387  0.00  0.00    +0.000 OA
ENDBRANCH   1  11
BRANCH   7  12
ATOM     12  C   UNL     1      44.371   3.390  10.360  0.00  0.00    +0.000 C 
BRANCH  12  13
ATOM     13  C   UNL     1      45.287   3.289   9.167  0.00  0.00    +0.000 A 
ATOM     14  C   UNL     1      45.598   4.427   8.414  0.00  0.00    +0.000 A 
ATOM     15  C   UNL     1      46.402   4.325   7.281  0.00  0.00    +0.000 A 
ATOM     16  C   UNL     1      46.904   3.084   6.886  0.00  0.00    +0.000 A 
ATOM     17  C   UNL     1      46.629   1.930   7.631  0.00  0.00    +0.000 A 
ATOM     18  C   UNL     1      45.814   2.048   8.770  0.00  0.00    +0.000 A 
BRANCH  17  19
ATOM     19  C   UNL     1      47.113   0.587   7.140  0.00  0.00    +0.000 C 
BRANCH  19  20
ATOM     20  N   UNL     1      46.606  -0.534   7.928  0.00  0.00    +0.000 NA
ATOM     21  H   UNL     1      47.401  -1.052   8.300  0.00  0.00    +0.000 HD
ATOM     22  H   UNL     1      46.113  -1.174   7.308  0.00  0.00    +0.000 HD
ENDBRANCH  19  20
ENDBRANCH  17  19
ENDBRANCH  12  13
ENDBRANCH   7  12
TORSDOF 5
ENDMDL
MODEL 3
REMARK VINA RESULT:    -7.060      2.560      5.946
REMARK INTER + INTRA:          -9.331
REMARK INTER:                  -8.789
REMARK INTRA:                  -0.543
REMARK UNBOUND:                -0.414
REMARK  Name = 
REMARK  6 active torsions:
REMARK  status: ('A' for Active; 'I' for Inactive)
REMARK    1  A    between atoms: C_1  and  O_2
REMARK    2  A    between atoms: O_2  and  C_3
REMARK    3  A    between atoms: N_9  and  C_10
REMARK    4  A    between atoms: C_10  and  C_11
REMARK    5  A    between atoms: C_15  and  C_16
REMARK    6  A    between atoms: C_16  and  N_17
REMARK                            x       y       z     vdW  Elec       q    Type
REMARK                         _______ _______ _______ _____ _____    ______ ____
ROOT
ATOM      1  C   UNL     1      45.684   3.748   8.116  0.00  0.00    +0.000 A 
ATOM      2  C   UNL     1      45.459   2.396   8.364  0.00  0.00    +0.000 A 
ATOM      3  C   UNL     1      44.717   1.991   9.480  0.00  0.00    +0.000 A 
ATOM      4  C   UNL     1      44.183   2.958  10.352  0.00  0.00    +0.000 A 
ATOM      5  C   UNL     1      43.405   2.877  11.534  0.00  0.00    +0.000 A 
ATOM      6  C   UNL     1      43.146   4.157  11.954  0.00  0.00    +0.000 A 
ATOM      7  N   UNL     1      43.745   5.027  11.071  0.00  0.00    +0.000 N 
ATOM      8  C   UNL     1      44.412   4.314  10.090  0.00  0.00    +0.000 A 
ATOM      9  C   UNL     1      45.184   4.724   8.989  0.00  0.00    +0.000 A 
ENDROOT
BRANCH   1  11
ATOM     10  C   UNL     1      46.800   3.264   6.091  0.00  0.00    +0.000 C 
ATOM     11  O   UNL     1      46.412   4.233   7.059  0.00  0.00    +0.000 OA
ENDBRANCH   1  11
BRANCH   7  12
ATOM     12  C   UNL     1      43.572   6.476  11.120  0.00  0.00    +0.000 C 
BRANCH  12  13
ATOM     13  C   UNL     1      44.750   7.168  11.758  0.00  0.00    +0.000 A 
ATOM     14  C   UNL     1      44.882   8.559  11.680  0.00  0.00    +0.000 A 
ATOM     15  C   UNL     1      45.996   9.194  12.223  0.00  0.00    +0.000 A 
ATOM     16  C   UNL     1      46.993   8.445  12.851  0.00  0.00    +0.000 A 
ATOM     17  C   UNL     1      46.879   7.053  12.966  0.00  0.00    +0.000 A 
ATOM     18  C   UNL     1      45.750   6.427  12.410  0.00  0.00    +0.000 A 
BRANCH  17  19
ATOM     19  C   UNL     1      48.007   6.256  13.575  0.00  0.00    +0.000 C 
BRANCH  19  20
ATOM     20  N   UNL     1      49.318   6.598  13.028  0.00  0.00    +0.000 NA
ATOM     21  H   UNL     1      49.537   5.940  12.281  0.00  0.00    +0.000 HD
ATOM     22  H   UNL     1      50.022   6.455  13.751  0.00  0.00    +0.000 HD
ENDBRANCH  19  20
ENDBRANCH  17  19
ENDBRANCH  12  13
ENDBRANCH   7  12
TORSDOF 5
ENDMDL
MODEL 4
REMARK VINA RESULT:    -7.038      1.915      2.927
REMARK INTER + INTRA:          -9.303
REMARK INTER:                  -8.618
REMARK INTRA:                  -0.685
REMARK UNBOUND:                -0.414
REMARK  Name = 
REMARK  6 active torsions:
REMARK  status: ('A' for Active; 'I' for Inactive)
REMARK    1  A    between atoms: C_1  and  O_2
REMARK    2  A    between atoms: O_2  and  C_3
REMARK    3  A    between atoms: N_9  and  C_10
REMARK    4  A    between atoms: C_10  and  C_11
REMARK    5  A    between atoms: C_15  and  C_16
REMARK    6  A    between atoms: C_16  and  N_17
REMARK                            x       y       z     vdW  Elec       q    Type
REMARK                         _______ _______ _______ _____ _____    ______ ____
ROOT
ATOM      1  C   UNL     1      47.076   4.481  14.283  0.00  0.00    +0.000 A 
ATOM      2  C   UNL     1      47.767   5.645  14.610  0.00  0.00    +0.000 A 
ATOM      3  C   UNL     1      47.522   6.837  13.916  0.00  0.00    +0.000 A 
ATOM      4  C   UNL     1      46.561   6.862  12.889  0.00  0.00    +0.000 A 
ATOM      5  C   UNL     1      46.089   7.881  12.024  0.00  0.00    +0.000 A 
ATOM      6  C   UNL     1      45.114   7.337  11.227  0.00  0.00    +0.000 A 
ATOM      7  N   UNL     1      44.972   6.010  11.570  0.00  0.00    +0.000 N 
ATOM      8  C   UNL     1      45.869   5.687  12.572  0.00  0.00    +0.000 A 
ATOM      9  C   UNL     1      46.135   4.480  13.244  0.00  0.00    +0.000 A 
ENDROOT
BRANCH   1  11
ATOM     10  C   UNL     1      47.838   3.327  16.198  0.00  0.00    +0.000 C 
ATOM     11  O   UNL     1      47.264   3.268  14.896  0.00  0.00    +0.000 OA
ENDBRANCH   1  11
BRANCH   7  12
ATOM     12  C   UNL     1      43.931   5.142  11.026  0.00  0.00    +0.000 C 
BRANCH  12  13
ATOM     13  C   UNL     1      44.481   4.148  10.035  0.00  0.00    +0.000 A 
ATOM     14  C   UNL     1      44.166   2.789  10.145  0.00  0.00    +0.000 A 
ATOM     15  C   UNL     1      44.715   1.864   9.261  0.00  0.00    +0.000 A 
ATOM     16  C   UNL     1      45.587   2.285   8.255  0.00  0.00    +0.000 A 
ATOM     17  C   UNL     1      45.905   3.642   8.106  0.00  0.00    +0.000 A 
ATOM     18  C   UNL     1      45.345   4.563   9.007  0.00  0.00    +0.000 A 
BRANCH  17  19
ATOM     19  C   UNL     1      46.914   4.066   7.065  0.00  0.00    +0.000 C 
BRANCH  19  20
ATOM     20  N   UNL     1      47.852   3.005   6.705  0.00  0.00    +0.000 NA
ATOM     21  H   UNL     1      47.363   2.112   6.752  0.00  0.00    +0.000 HD
ATOM     22  H   UNL     1      48.587   2.966   7.409  0.00  0.00    +0.000 HD
ENDBRANCH  19  20
ENDBRANCH  17  19
ENDBRANCH  12  13
ENDBRANCH   7  12
TORSDOF 5
ENDMDL
MODEL 5
REMARK VINA RESULT:    -6.918      1.568      2.131
REMARK INTER + INTRA:          -9.151
REMARK INTER:                  -8.733
REMARK INTRA:                  -0.418
REMARK UNBOUND:                -0.414
REMARK  Name = 
REMARK  6 active torsions:
REMARK  status: ('A' for Active; 'I' for Inactive)
REMARK    1  A    between atoms: C_1  and  O_2
REMARK    2  A    between atoms: O_2  and  C_3
REMARK    3  A    between atoms: N_9  and  C_10
REMARK    4  A    between atoms: C_10  and  C_11
REMARK    5  A    between atoms: C_15  and  C_16
REMARK    6  A    between atoms: C_16  and  N_17
REMARK                            x       y       z     vdW  Elec       q    Type
REMARK                         _______ _______ _______ _____ _____    ______ ____
ROOT
ATOM      1  C   UNL     1      47.099   6.279  12.683  0.00  0.00    +0.000 A 
ATOM      2  C   UNL     1      46.375   7.407  13.063  0.00  0.00    +0.000 A 
ATOM      3  C   UNL     1      45.027   7.540  12.708  0.00  0.00    +0.000 A 
ATOM      4  C   UNL     1      44.395   6.522  11.972  0.00  0.00    +0.000 A 
ATOM      5  C   UNL     1      43.078   6.356  11.474  0.00  0.00    +0.000 A 
ATOM      6  C   UNL     1      43.017   5.140  10.843  0.00  0.00    +0.000 A 
ATOM      7  N   UNL     1      44.258   4.549  10.933  0.00  0.00    +0.000 N 
ATOM      8  C   UNL     1      45.131   5.391  11.599  0.00  0.00    +0.000 A 
ATOM      9  C   UNL     1      46.493   5.267  11.926  0.00  0.00    +0.000 A 
ENDROOT
BRANCH   1  11
ATOM     10  C   UNL     1      49.305   7.113  12.562  0.00  0.00    +0.000 C 
ATOM     11  O   UNL     1      48.424   6.073  12.972  0.00  0.00    +0.000 OA
ENDBRANCH   1  11
BRANCH   7  12
ATOM     12  C   UNL     1      44.538   3.185  10.492  0.00  0.00    +0.000 C 
BRANCH  12  13
ATOM     13  C   UNL     1      45.365   3.153   9.231  0.00  0.00    +0.000 A 
ATOM     14  C   UNL     1      45.590   4.327   8.503  0.00  0.00    +0.000 A 
ATOM     15  C   UNL     1      46.310   4.290   7.311  0.00  0.00    +0.000 A 
ATOM     16  C   UNL     1      46.812   3.078   6.831  0.00  0.00    +0.000 A 
ATOM     17  C   UNL     1      46.622   1.890   7.549  0.00  0.00    +0.000 A 
ATOM     18  C   UNL     1      45.892   1.943   8.749  0.00  0.00    +0.000 A 
BRANCH  17  19
ATOM     19  C   UNL     1      47.103   0.580   6.972  0.00  0.00    +0.000 C 
BRANCH  19  20
ATOM     20  N   UNL     1      46.750  -0.576   7.792  0.00  0.00    +0.000 NA
ATOM     21  H   UNL     1      47.362  -0.592   8.607  0.00  0.00    +0.000 HD
ATOM     22  H   UNL     1      46.953  -1.425   7.266  0.00  0.00    +0.000 HD
ENDBRANCH  19  20
ENDBRANCH  17  19
ENDBRANCH  12  13
ENDBRANCH   7  12
TORSDOF 5
ENDMDL
MODEL 6
REMARK VINA RESULT:    -6.804      2.135      2.644
REMARK INTER + INTRA:          -9.008
REMARK INTER:                  -8.485
REMARK INTRA:                  -0.524
REMARK UNBOUND:                -0.414
REMARK  Name = 
REMARK  6 active torsions:
REMARK  status: ('A' for Active; 'I' for Inactive)
REMARK    1  A    between atoms: C_1  and  O_2
REMARK    2  A    between atoms: O_2  and  C_3
REMARK    3  A    between atoms: N_9  and  C_10
REMARK    4  A    between atoms: C_10  and  C_11
REMARK    5  A    between atoms: C_15  and  C_16
REMARK    6  A    between atoms: C_16  and  N_17
REMARK                            x       y       z     vdW  Elec       q    Type
REMARK                         _______ _______ _______ _____ _____    ______ ____
ROOT
ATOM      1  C   UNL     1      44.932   8.882  11.643  0.00  0.00    +0.000 A 
ATOM      2  C   UNL     1      45.840   8.881  12.700  0.00  0.00    +0.000 A 
ATOM      3  C   UNL     1      46.284   7.675  13.255  0.00  0.00    +0.000 A 
ATOM      4  C   UNL     1      45.820   6.453  12.734  0.00  0.00    +0.000 A 
ATOM      5  C   UNL     1      46.074   5.098  13.060  0.00  0.00    +0.000 A 
ATOM      6  C   UNL     1      45.359   4.315  12.191  0.00  0.00    +0.000 A 
ATOM      7  N   UNL     1      44.665   5.145  11.339  0.00  0.00    +0.000 N 
ATOM      8  C   UNL     1      44.912   6.466  11.669  0.00  0.00    +0.000 A 
ATOM      9  C   UNL     1      44.437   7.675  11.130  0.00  0.00    +0.000 A 
ENDROOT
BRANCH   1  11
ATOM     10  C   UNL     1      43.069   9.935  10.643  0.00  0.00    +0.000 C 
ATOM     11  O   UNL     1      44.431  10.014  11.051  0.00  0.00    +0.000 OA
ENDBRANCH   1  11
BRANCH   7  12
ATOM     12  C   UNL     1      43.898   4.668  10.191  0.00  0.00    +0.000 C 
BRANCH  12  13
ATOM     13  C   UNL     1      44.679   3.689   9.353  0.00  0.00    +0.000 A 
ATOM     14  C   UNL     1      44.485   2.311   9.507  0.00  0.00    +0.000 A 
ATOM     15  C   UNL     1      45.244   1.405   8.771  0.00  0.00    +0.000 A 
ATOM     16  C   UNL     1      46.208   1.864   7.871  0.00  0.00    +0.000 A 
ATOM     17  C   UNL     1      46.410   3.237   7.678  0.00  0.00    +0.000 A 
ATOM     18  C   UNL     1      45.639   4.140   8.430  0.00  0.00    +0.000 A 
BRANCH  17  19
ATOM     19  C   UNL     1      47.513   3.711   6.762  0.00  0.00    +0.000 C 
BRANCH  19  20
ATOM     20  N   UNL     1      48.373   2.630   6.286  0.00  0.00    +0.000 NA
ATOM     21  H   UNL     1      48.451   1.932   7.024  0.00  0.00    +0.000 HD
ATOM     22  H   UNL     1      49.311   2.998   6.139  0.00  0.00    +0.000 HD
ENDBRANCH  19  20
ENDBRANCH  17  19
ENDBRANCH  12  13
ENDBRANCH   7  12
TORSDOF 5
ENDMDL
MODEL 7
REMARK VINA RESULT:    -5.672      4.409      8.059
REMARK INTER + INTRA:          -7.577
REMARK INTER:                  -6.910
REMARK INTRA:                  -0.668
REMARK UNBOUND:                -0.414
REMARK  Name = 
REMARK  6 active torsions:
REMARK  status: ('A' for Active; 'I' for Inactive)
REMARK    1  A    between atoms: C_1  and  O_2
REMARK    2  A    between atoms: O_2  and  C_3
REMARK    3  A    between atoms: N_9  and  C_10
REMARK    4  A    between atoms: C_10  and  C_11
REMARK    5  A    between atoms: C_15  and  C_16
REMARK    6  A    between atoms: C_16  and  N_17
REMARK                            x       y       z     vdW  Elec       q    Type
REMARK                         _______ _______ _______ _____ _____    ______ ____
ROOT
ATOM      1  C   UNL     1      45.034   4.729  12.729  0.00  0.00    +0.000 A 
ATOM      2  C   UNL     1      44.219   5.622  12.036  0.00  0.00    +0.000 A 
ATOM      3  C   UNL     1      44.549   6.980  11.966  0.00  0.00    +0.000 A 
ATOM      4  C   UNL     1      45.720   7.448  12.591  0.00  0.00    +0.000 A 
ATOM      5  C   UNL     1      46.320   8.727  12.698  0.00  0.00    +0.000 A 
ATOM      6  C   UNL     1      47.484   8.586  13.410  0.00  0.00    +0.000 A 
ATOM      7  N   UNL     1      47.619   7.259  13.750  0.00  0.00    +0.000 N 
ATOM      8  C   UNL     1      46.534   6.541  13.281  0.00  0.00    +0.000 A 
ATOM      9  C   UNL     1      46.190   5.182  13.381  0.00  0.00    +0.000 A 
ENDROOT
BRANCH   1  11
ATOM     10  C   UNL     1      43.683   2.897  12.099  0.00  0.00    +0.000 C 
ATOM     11  O   UNL     1      44.780   3.388  12.863  0.00  0.00    +0.000 OA
ENDBRANCH   1  11
BRANCH   7  12
ATOM     12  C   UNL     1      48.807   6.707  14.397  0.00  0.00    +0.000 C 
BRANCH  12  13
ATOM     13  C   UNL     1      48.577   6.421  15.859  0.00  0.00    +0.000 A 
ATOM     14  C   UNL     1      48.682   7.447  16.807  0.00  0.00    +0.000 A 
ATOM     15  C   UNL     1      48.521   7.173  18.163  0.00  0.00    +0.000 A 
ATOM     16  C   UNL     1      48.254   5.871  18.589  0.00  0.00    +0.000 A 
ATOM     17  C   UNL     1      48.121   4.827  17.664  0.00  0.00    +0.000 A 
ATOM     18  C   UNL     1      48.289   5.118  16.300  0.00  0.00    +0.000 A 
BRANCH  17  19
ATOM     19  C   UNL     1      47.914   3.414  18.153  0.00  0.00    +0.000 C 
BRANCH  19  20
ATOM     20  N   UNL     1      46.631   2.844  17.746  0.00  0.00    +0.000 NA
ATOM     21  H   UNL     1      46.688   2.595  16.759  0.00  0.00    +0.000 HD
ATOM     22  H   UNL     1      45.915   3.565  17.818  0.00  0.00    +0.000 HD
ENDBRANCH  19  20
ENDBRANCH  17  19
ENDBRANCH  12  13
ENDBRANCH   7  12
TORSDOF 5
ENDMDL
MODEL 8
REMARK VINA RESULT:    -5.602      3.952      6.473
REMARK INTER + INTRA:          -7.489
REMARK INTER:                  -6.884
REMARK INTRA:                  -0.605
REMARK UNBOUND:                -0.414
REMARK  Name = 
REMARK  6 active torsions:
REMARK  status: ('A' for Active; 'I' for Inactive)
REMARK    1  A    between atoms: C_1  and  O_2
REMARK    2  A    between atoms: O_2  and  C_3
REMARK    3  A    between atoms: N_9  and  C_10
REMARK    4  A    between atoms: C_10  and  C_11
REMARK    5  A    between atoms: C_15  and  C_16
REMARK    6  A    between atoms: C_16  and  N_17
REMARK                            x       y       z     vdW  Elec       q    Type
REMARK                         _______ _______ _______ _____ _____    ______ ____
ROOT
ATOM      1  C   UNL     1      46.761   3.898  13.748  0.00  0.00    +0.000 A 
ATOM      2  C   UNL     1      45.997   3.309  12.743  0.00  0.00    +0.000 A 
ATOM      3  C   UNL     1      45.253   4.099  11.858  0.00  0.00    +0.000 A 
ATOM      4  C   UNL     1      45.286   5.501  11.977  0.00  0.00    +0.000 A 
ATOM      5  C   UNL     1      44.667   6.552  11.257  0.00  0.00    +0.000 A 
ATOM      6  C   UNL     1      45.085   7.739  11.803  0.00  0.00    +0.000 A 
ATOM      7  N   UNL     1      45.940   7.452  12.844  0.00  0.00    +0.000 N 
ATOM      8  C   UNL     1      46.060   6.082  12.988  0.00  0.00    +0.000 A 
ATOM      9  C   UNL     1      46.783   5.291  13.899  0.00  0.00    +0.000 A 
ENDROOT
BRANCH   1  11
ATOM     10  C   UNL     1      47.540   3.766  15.974  0.00  0.00    +0.000 C 
ATOM     11  O   UNL     1      47.505   3.202  14.667  0.00  0.00    +0.000 OA
ENDBRANCH   1  11
BRANCH   7  12
ATOM     12  C   UNL     1      46.690   8.469  13.577  0.00  0.00    +0.000 C 
BRANCH  12  13
ATOM     13  C   UNL     1      47.712   9.158  12.709  0.00  0.00    +0.000 A 
ATOM     14  C   UNL     1      47.382  10.328  12.017  0.00  0.00    +0.000 A 
ATOM     15  C   UNL     1      48.309  10.936  11.174  0.00  0.00    +0.000 A 
ATOM     16  C   UNL     1      49.580  10.380  11.012  0.00  0.00    +0.000 A 
ATOM     17  C   UNL     1      49.948   9.221  11.708  0.00  0.00    +0.000 A 
ATOM     18  C   UNL     1      49.001   8.618  12.553  0.00  0.00    +0.000 A 
BRANCH  17  19
ATOM     19  C   UNL     1      51.297   8.591  11.455  0.00  0.00    +0.000 C 
BRANCH  19  20
ATOM     20  N   UNL     1      51.211   7.216  10.969  0.00  0.00    +0.000 NA
ATOM     21  H   UNL     1      51.335   6.586  11.761  0.00  0.00    +0.000 HD
ATOM     22  H   UNL     1      51.993   7.041  10.340  0.00  0.00    +0.000 HD
ENDBRANCH  19  20
ENDBRANCH  17  19
ENDBRANCH  12  13
ENDBRANCH   7  12
TORSDOF 5
ENDMDL
MODEL 9
REMARK VINA RESULT:    -5.394      2.732      5.183
REMARK INTER + INTRA:          -7.227
REMARK INTER:                  -6.584
REMARK INTRA:                  -0.643
REMARK UNBOUND:                -0.414
REMARK  Name = 
REMARK  6 active torsions:
REMARK  status: ('A' for Active; 'I' for Inactive)
REMARK    1  A    between atoms: C_1  and  O_2
REMARK    2  A    between atoms: O_2  and  C_3
REMARK    3  A    between atoms: N_9  and  C_10
REMARK    4  A    between atoms: C_10  and  C_11
REMARK    5  A    between atoms: C_15  and  C_16
REMARK    6  A    between atoms: C_16  and  N_17
REMARK                            x       y       z     vdW  Elec       q    Type
REMARK                         _______ _______ _______ _____ _____    ______ ____
ROOT
ATOM      1  C   UNL     1      49.341   6.722  16.001  0.00  0.00    +0.000 A 
ATOM      2  C   UNL     1      50.559   7.231  15.553  0.00  0.00    +0.000 A 
ATOM      3  C   UNL     1      50.687   7.726  14.250  0.00  0.00    +0.000 A 
ATOM      4  C   UNL     1      49.574   7.722  13.388  0.00  0.00    +0.000 A 
ATOM      5  C   UNL     1      49.380   8.144  12.049  0.00  0.00    +0.000 A 
ATOM      6  C   UNL     1      48.066   7.922  11.726  0.00  0.00    +0.000 A 
ATOM      7  N   UNL     1      47.442   7.370  12.823  0.00  0.00    +0.000 N 
ATOM      8  C   UNL     1      48.355   7.212  13.850  0.00  0.00    +0.000 A 
ATOM      9  C   UNL     1      48.230   6.684  15.147  0.00  0.00    +0.000 A 
ENDROOT
BRANCH   1  11
ATOM     10  C   UNL     1      48.316   5.035  17.297  0.00  0.00    +0.000 C 
ATOM     11  O   UNL     1      49.130   6.202  17.253  0.00  0.00    +0.000 OA
ENDBRANCH   1  11
BRANCH   7  12
ATOM     12  C   UNL     1      46.004   7.123  12.896  0.00  0.00    +0.000 C 
BRANCH  12  13
ATOM     13  C   UNL     1      45.629   5.781  12.320  0.00  0.00    +0.000 A 
ATOM     14  C   UNL     1      45.659   4.633  13.120  0.00  0.00    +0.000 A 
ATOM     15  C   UNL     1      45.363   3.386  12.576  0.00  0.00    +0.000 A 
ATOM     16  C   UNL     1      45.033   3.270  11.224  0.00  0.00    +0.000 A 
ATOM     17  C   UNL     1      44.972   4.404  10.403  0.00  0.00    +0.000 A 
ATOM     18  C   UNL     1      45.276   5.655  10.965  0.00  0.00    +0.000 A 
BRANCH  17  19
ATOM     19  C   UNL     1      44.694   4.246   8.927  0.00  0.00    +0.000 C 
BRANCH  19  20
ATOM     20  N   UNL     1      45.773   4.748   8.079  0.00  0.00    +0.000 NA
ATOM     21  H   UNL     1      46.611   4.197   8.265  0.00  0.00    +0.000 HD
ATOM     22  H   UNL     1      45.991   5.703   8.357  0.00  0.00    +0.000 HD
ENDBRANCH  19  20
ENDBRANCH  17  19
ENDBRANCH  12  13
ENDBRANCH   7  12
TORSDOF 5
ENDMDL
