MODEL 1
REMARK VINA RESULT:    -8.684      0.000      0.000
REMARK INTER + INTRA:         -12.246
REMARK INTER:                 -11.222
REMARK INTRA:                  -1.023
REMARK UNBOUND:                -1.023
REMARK  Name = 
REMARK  5 active torsions:
REMARK  status: ('A' for Active; 'I' for Inactive)
REMARK    1  A    between atoms: C_2  and  C_4
REMARK    2  A    between atoms: C_7  and  N_8
REMARK    3  A    between atoms: N_8  and  C_9
REMARK    4  A    between atoms: C_9  and  C_10
REMARK    5  A    between atoms: C_12  and  N_13
REMARK                            x       y       z     vdW  Elec       q    Type
REMARK                         _______ _______ _______ _____ _____    ______ ____
ROOT
ATOM      1  C   UNL     1      43.610   4.862  11.319  0.00  0.00    +0.000 C 
ENDROOT
BRANCH   1   2
ATOM      2  C   UNL     1      44.909   5.196  12.008  0.00  0.00    +0.000 A 
ATOM      3  C   UNL     1      45.372   6.521  12.111  0.00  0.00    +0.000 A 
ATOM      4  C   UNL     1      46.495   6.870  12.881  0.00  0.00    +0.000 A 
ATOM      5  C   UNL     1      47.178   5.833  13.527  0.00  0.00    +0.000 A 
ATOM      6  C   UNL     1      46.757   4.503  13.419  0.00  0.00    +0.000 A 
ATOM      7  C   UNL     1      45.622   4.202  12.674  0.00  0.00    +0.000 A 
ATOM      8  F   UNL     1      45.204   2.929  12.624  0.00  0.00    +0.000 F 
BRANCH   4   9
ATOM      9  N   UNL     1      46.825   8.199  13.051  0.00  0.00    +0.000 N 
ATOM     10  C   UNL     1      46.009   9.266  12.466  0.00  0.00    +0.000 C 
ATOM     11  C   UNL     1      46.936  10.427  12.035  0.00  0.00    +0.000 C 
ATOM     12  N   UNL     1      47.772  10.953  13.136  0.00  0.00    +0.000 NA
ATOM     13  C   UNL     1      48.549   9.836  13.722  0.00  0.00    +0.000 C 
ATOM     14  C   UNL     1      47.691   8.623  14.161  0.00  0.00    +0.000 C 
ATOM     15  H   UNL     1      47.146  11.311  13.859  0.00  0.00    +0.000 HD
ENDBRANCH   4   9
ENDBRANCH   1   2
BRANCH   1  16
ATOM     16  N   UNL     1      43.746   4.876   9.869  0.00  0.00    +0.000 N 
ATOM     17  H   UNL     1      42.956   5.255   9.359  0.00  0.00    +0.000 HD
BRANCH  16  21
ATOM     18  C   UNL     1      46.369   2.298   7.816  0.00  0.00    +0.000 A 
ATOM     19  C   UNL     1      45.424   1.766   8.693  0.00  0.00    +0.000 A 
ATOM     20  C   UNL     1      44.544   2.613   9.372  0.00  0.00    +0.000 A 
ATOM     21  C   UNL     1      44.553   3.996   9.166  0.00  0.00    +0.000 A 
ATOM     22  C   UNL     1      45.524   4.517   8.297  0.00  0.00    +0.000 A 
ATOM     23  C   UNL     1      46.429   3.682   7.631  0.00  0.00    +0.000 A 
BRANCH  18  25
ATOM     24  N   UNL     1      48.397   2.051   6.495  0.00  0.00    +0.000 N 
ATOM     25  C   UNL     1      47.349   1.431   7.114  0.00  0.00    +0.000 C 
ATOM     26  O   UNL     1      47.237   0.211   7.102  0.00  0.00    +0.000 OA
ATOM     27  H   UNL     1      49.104   1.449   6.090  0.00  0.00    +0.000 HD
ATOM     28  H   UNL     1      48.644   3.017   6.667  0.00  0.00    +0.000 HD
ENDBRANCH  18  25
ENDBRANCH  16  21
ENDBRANCH   1  16
TORSDOF 5
ENDMDL
MODEL 2
REMARK VINA RESULT:    -8.121      1.440      1.990
REMARK INTER + INTRA:         -11.519
REMARK INTER:                 -10.683
REMARK INTRA:                  -0.835
REMARK UNBOUND:                -1.023
REMARK  Name = 
REMARK  5 active torsions:
REMARK  status: ('A' for Active; 'I' for Inactive)
REMARK    1  A    between atoms: C_2  and  C_4
REMARK    2  A    between atoms: C_7  and  N_8
REMARK    3  A    between atoms: N_8  and  C_9
REMARK    4  A    between atoms: C_9  and  C_10
REMARK    5  A    between atoms: C_12  and  N_13
REMARK                            x       y       z     vdW  Elec       q    Type
REMARK                         _______ _______ _______ _____ _____    ______ ____
ROOT
ATOM      1  C   UNL     1      44.108   5.854  10.867  0.00  0.00    +0.000 C 
ENDROOT
BRANCH   1   2
ATOM      2  C   UNL     1      45.244   5.562  11.816  0.00  0.00    +0.000 A 
ATOM      3  C   UNL     1      46.423   6.329  11.816  0.00  0.00    +0.000 A 
ATOM      4  C   UNL     1      47.424   6.174  12.790  0.00  0.00    +0.000 A 
ATOM      5  C   UNL     1      47.226   5.186  13.763  0.00  0.00    +0.000 A 
ATOM      6  C   UNL     1      46.074   4.389  13.770  0.00  0.00    +0.000 A 
ATOM      7  C   UNL     1      45.093   4.595  12.807  0.00  0.00    +0.000 A 
ATOM      8  F   UNL     1      43.975   3.857  12.860  0.00  0.00    +0.000 F 
BRANCH   4   9
ATOM      9  N   UNL     1      48.496   7.041  12.817  0.00  0.00    +0.000 N 
ATOM     10  C   UNL     1      49.226   7.310  14.059  0.00  0.00    +0.000 C 
ATOM     11  C   UNL     1      49.687   8.787  14.059  0.00  0.00    +0.000 C 
ATOM     12  N   UNL     1      50.508   9.147  12.882  0.00  0.00    +0.000 NA
ATOM     13  C   UNL     1      49.749   8.823  11.651  0.00  0.00    +0.000 C 
ATOM     14  C   UNL     1      49.234   7.364  11.585  0.00  0.00    +0.000 C 
ATOM     15  H   UNL     1      51.346   8.563  12.895  0.00  0.00    +0.000 HD
ENDBRANCH   4   9
ENDBRANCH   1   2
BRANCH   1  16
ATOM     16  N   UNL     1      43.764   4.692  10.058  0.00  0.00    +0.000 N 
ATOM     17  H   UNL     1      42.928   4.195  10.342  0.00  0.00    +0.000 HD
BRANCH  16  21
ATOM     18  C   UNL     1      46.426   2.339   7.797  0.00  0.00    +0.000 A 
ATOM     19  C   UNL     1      46.420   3.724   7.634  0.00  0.00    +0.000 A 
ATOM     20  C   UNL     1      45.546   4.513   8.385  0.00  0.00    +0.000 A 
ATOM     21  C   UNL     1      44.693   3.954   9.342  0.00  0.00    +0.000 A 
ATOM     22  C   UNL     1      44.697   2.558   9.479  0.00  0.00    +0.000 A 
ATOM     23  C   UNL     1      45.549   1.754   8.714  0.00  0.00    +0.000 A 
BRANCH  18  25
ATOM     24  N   UNL     1      48.422   2.043   6.436  0.00  0.00    +0.000 N 
ATOM     25  C   UNL     1      47.309   1.467   6.982  0.00  0.00    +0.000 C 
ATOM     26  O   UNL     1      47.065   0.277   6.817  0.00  0.00    +0.000 OA
ATOM     27  H   UNL     1      49.061   1.424   5.952  0.00  0.00    +0.000 HD
ATOM     28  H   UNL     1      48.772   2.946   6.727  0.00  0.00    +0.000 HD
ENDBRANCH  18  25
ENDBRANCH  16  21
ENDBRANCH   1  16
TORSDOF 5
ENDMDL
MODEL 3
REMARK VINA RESULT:    -7.700      1.871      2.548
REMARK INTER + INTRA:         -10.973
REMARK INTER:                 -10.248
REMARK INTRA:                  -0.726
REMARK UNBOUND:                -1.023
REMARK  Name = 
REMARK  5 active torsions:
REMARK  status: ('A' for Active; 'I' for Inactive)
REMARK    1  A    between atoms: C_2  and  C_4
REMARK    2  A    between atoms: C_7  and  N_8
REMARK    3  A    between atoms: N_8  and  C_9
REMARK    4  A    between atoms: C_9  and  C_10
REMARK    5  A    between atoms: C_12  and  N_13
REMARK                            x       y       z     vdW  Elec       q    Type
REMARK                         _______ _______ _______ _____ _____    ______ ____
ROOT
ATOM      1  C   UNL     1      44.220   4.627  11.676  0.00  0.00    +0.000 C 
ENDROOT
BRANCH   1   2
ATOM      2  C   UNL     1      44.870   5.968  11.905  0.00  0.00    +0.000 A 
ATOM      3  C   UNL     1      46.190   6.078  12.379  0.00  0.00    +0.000 A 
ATOM      4  C   UNL     1      46.866   7.308  12.451  0.00  0.00    +0.000 A 
ATOM      5  C   UNL     1      46.159   8.453  12.063  0.00  0.00    +0.000 A 
ATOM      6  C   UNL     1      44.835   8.376  11.614  0.00  0.00    +0.000 A 
ATOM      7  C   UNL     1      44.212   7.136  11.527  0.00  0.00    +0.000 A 
ATOM      8  F   UNL     1      42.962   7.076  11.047  0.00  0.00    +0.000 F 
BRANCH   4   9
ATOM      9  N   UNL     1      48.200   7.340  12.800  0.00  0.00    +0.000 N 
ATOM     10  C   UNL     1      48.687   6.665  14.006  0.00  0.00    +0.000 C 
ATOM     11  C   UNL     1      49.838   7.499  14.617  0.00  0.00    +0.000 C 
ATOM     12  N   UNL     1      50.950   7.748  13.674  0.00  0.00    +0.000 NA
ATOM     13  C   UNL     1      50.408   8.395  12.456  0.00  0.00    +0.000 C 
ATOM     14  C   UNL     1      49.235   7.629  11.795  0.00  0.00    +0.000 C 
ATOM     15  H   UNL     1      51.337   6.844  13.401  0.00  0.00    +0.000 HD
ENDBRANCH   4   9
ENDBRANCH   1   2
BRANCH   1  16
ATOM     16  N   UNL     1      43.880   4.421  10.274  0.00  0.00    +0.000 N 
ATOM     17  H   UNL     1      42.890   4.365  10.069  0.00  0.00    +0.000 HD
BRANCH  16  21
ATOM     18  C   UNL     1      46.601   2.657   7.587  0.00  0.00    +0.000 A 
ATOM     19  C   UNL     1      45.872   1.850   8.460  0.00  0.00    +0.000 A 
ATOM     20  C   UNL     1      44.961   2.426   9.349  0.00  0.00    +0.000 A 
ATOM     21  C   UNL     1      44.723   3.804   9.364  0.00  0.00    +0.000 A 
ATOM     22  C   UNL     1      45.480   4.603   8.495  0.00  0.00    +0.000 A 
ATOM     23  C   UNL     1      46.415   4.041   7.617  0.00  0.00    +0.000 A 
BRANCH  18  25
ATOM     24  N   UNL     1      47.957   2.833   5.574  0.00  0.00    +0.000 N 
ATOM     25  C   UNL     1      47.611   2.083   6.662  0.00  0.00    +0.000 C 
ATOM     26  O   UNL     1      48.128   0.991   6.869  0.00  0.00    +0.000 OA
ATOM     27  H   UNL     1      48.705   2.473   4.995  0.00  0.00    +0.000 HD
ATOM     28  H   UNL     1      47.727   3.815   5.488  0.00  0.00    +0.000 HD
ENDBRANCH  18  25
ENDBRANCH  16  21
ENDBRANCH   1  16
TORSDOF 5
ENDMDL
MODEL 4
REMARK VINA RESULT:    -7.213      2.678      3.459
REMARK INTER + INTRA:         -10.344
REMARK INTER:                  -9.644
REMARK INTRA:                  -0.700
REMARK UNBOUND:                -1.023
REMARK  Name = 
REMARK  5 active torsions:
REMARK  status: ('A' for Active; 'I' for Inactive)
REMARK    1  A    between atoms: C_2  and  C_4
REMARK    2  A    between atoms: C_7  and  N_8
REMARK    3  A    between atoms: N_8  and  C_9
REMARK    4  A    between atoms: C_9  and  C_10
REMARK    5  A    between atoms: C_12  and  N_13
REMARK                            x       y       z     vdW  Elec       q    Type
REMARK                         _______ _______ _______ _____ _____    ______ ____
ROOT
ATOM      1  C   UNL     1      44.783   5.204  11.893  0.00  0.00    +0.000 C 
ENDROOT
BRANCH   1   2
ATOM      2  C   UNL     1      45.151   6.666  11.902  0.00  0.00    +0.000 A 
ATOM      3  C   UNL     1      44.385   7.625  11.215  0.00  0.00    +0.000 A 
ATOM      4  C   UNL     1      44.618   9.006  11.338  0.00  0.00    +0.000 A 
ATOM      5  C   UNL     1      45.683   9.408  12.154  0.00  0.00    +0.000 A 
ATOM      6  C   UNL     1      46.480   8.473  12.827  0.00  0.00    +0.000 A 
ATOM      7  C   UNL     1      46.197   7.117  12.705  0.00  0.00    +0.000 A 
ATOM      8  F   UNL     1      46.938   6.241  13.396  0.00  0.00    +0.000 F 
BRANCH   4   9
ATOM      9  N   UNL     1      43.754   9.904  10.745  0.00  0.00    +0.000 N 
ATOM     10  C   UNL     1      42.529  10.340  11.420  0.00  0.00    +0.000 C 
ATOM     11  C   UNL     1      41.422  10.553  10.360  0.00  0.00    +0.000 C 
ATOM     12  N   UNL     1      41.801  11.508   9.296  0.00  0.00    +0.000 NA
ATOM     13  C   UNL     1      43.062  11.050   8.668  0.00  0.00    +0.000 C 
ATOM     14  C   UNL     1      44.217  10.794   9.669  0.00  0.00    +0.000 C 
ATOM     15  H   UNL     1      41.982  12.411   9.738  0.00  0.00    +0.000 HD
ENDBRANCH   4   9
ENDBRANCH   1   2
BRANCH   1  16
ATOM     16  N   UNL     1      44.178   4.805  10.628  0.00  0.00    +0.000 N 
ATOM     17  H   UNL     1      43.167   4.738  10.630  0.00  0.00    +0.000 HD
BRANCH  16  21
ATOM     18  C   UNL     1      46.351   2.591   7.780  0.00  0.00    +0.000 A 
ATOM     19  C   UNL     1      45.589   1.923   8.738  0.00  0.00    +0.000 A 
ATOM     20  C   UNL     1      44.858   2.649   9.682  0.00  0.00    +0.000 A 
ATOM     21  C   UNL     1      44.833   4.048   9.671  0.00  0.00    +0.000 A 
ATOM     22  C   UNL     1      45.621   4.704   8.714  0.00  0.00    +0.000 A 
ATOM     23  C   UNL     1      46.379   3.988   7.779  0.00  0.00    +0.000 A 
BRANCH  18  25
ATOM     24  N   UNL     1      48.056   2.580   6.044  0.00  0.00    +0.000 N 
ATOM     25  C   UNL     1      47.175   1.850   6.791  0.00  0.00    +0.000 C 
ATOM     26  O   UNL     1      47.087   0.635   6.660  0.00  0.00    +0.000 OA
ATOM     27  H   UNL     1      48.672   2.058   5.433  0.00  0.00    +0.000 HD
ATOM     28  H   UNL     1      48.316   3.530   6.273  0.00  0.00    +0.000 HD
ENDBRANCH  18  25
ENDBRANCH  16  21
ENDBRANCH   1  16
TORSDOF 5
ENDMDL
MODEL 5
REMARK VINA RESULT:    -7.159      3.011      7.438
REMARK INTER + INTRA:         -10.275
REMARK INTER:                  -9.619
REMARK INTRA:                  -0.656
REMARK UNBOUND:                -1.023
REMARK  Name = 
REMARK  5 active torsions:
REMARK  status: ('A' for Active; 'I' for Inactive)
REMARK    1  A    between atoms: C_2  and  C_4
REMARK    2  A    between atoms: C_7  and  N_8
REMARK    3  A    between atoms: N_8  and  C_9
REMARK    4  A    between atoms: C_9  and  C_10
REMARK    5  A    between atoms: C_12  and  N_13
REMARK                            x       y       z     vdW  Elec       q    Type
REMARK                         _______ _______ _______ _____ _____    ______ ____
ROOT
ATOM      1  C   UNL     1      45.121   6.574  11.250  0.00  0.00    +0.000 C 
ENDROOT
BRANCH   1   2
ATOM      2  C   UNL     1      44.722   5.196  10.786  0.00  0.00    +0.000 A 
ATOM      3  C   UNL     1      45.357   4.571   9.697  0.00  0.00    +0.000 A 
ATOM      4  C   UNL     1      45.111   3.232   9.347  0.00  0.00    +0.000 A 
ATOM      5  C   UNL     1      44.165   2.533  10.108  0.00  0.00    +0.000 A 
ATOM      6  C   UNL     1      43.497   3.140  11.178  0.00  0.00    +0.000 A 
ATOM      7  C   UNL     1      43.792   4.456  11.513  0.00  0.00    +0.000 A 
ATOM      8  F   UNL     1      43.181   5.004  12.572  0.00  0.00    +0.000 F 
BRANCH   4   9
ATOM      9  N   UNL     1      45.857   2.633   8.354  0.00  0.00    +0.000 N 
ATOM     10  C   UNL     1      45.754   1.196   8.086  0.00  0.00    +0.000 C 
ATOM     11  C   UNL     1      47.144   0.664   7.665  0.00  0.00    +0.000 C 
ATOM     12  N   UNL     1      47.718   1.372   6.500  0.00  0.00    +0.000 NA
ATOM     13  C   UNL     1      47.768   2.823   6.799  0.00  0.00    +0.000 C 
ATOM     14  C   UNL     1      46.415   3.428   7.249  0.00  0.00    +0.000 C 
ATOM     15  H   UNL     1      47.085   1.238   5.710  0.00  0.00    +0.000 HD
ENDBRANCH   4   9
ENDBRANCH   1   2
BRANCH   1  16
ATOM     16  N   UNL     1      46.535   6.643  11.594  0.00  0.00    +0.000 N 
ATOM     17  H   UNL     1      47.177   6.614  10.811  0.00  0.00    +0.000 HD
BRANCH  16  21
ATOM     18  C   UNL     1      48.017   5.558  15.384  0.00  0.00    +0.000 A 
ATOM     19  C   UNL     1      47.126   4.713  14.724  0.00  0.00    +0.000 A 
ATOM     20  C   UNL     1      46.635   5.060  13.463  0.00  0.00    +0.000 A 
ATOM     21  C   UNL     1      47.048   6.227  12.812  0.00  0.00    +0.000 A 
ATOM     22  C   UNL     1      47.929   7.076  13.499  0.00  0.00    +0.000 A 
ATOM     23  C   UNL     1      48.408   6.752  14.774  0.00  0.00    +0.000 A 
BRANCH  18  25
ATOM     24  N   UNL     1      47.793   5.705  17.803  0.00  0.00    +0.000 N 
ATOM     25  C   UNL     1      48.522   5.241  16.744  0.00  0.00    +0.000 C 
ATOM     26  O   UNL     1      49.539   4.578  16.916  0.00  0.00    +0.000 OA
ATOM     27  H   UNL     1      48.097   5.415  18.724  0.00  0.00    +0.000 HD
ATOM     28  H   UNL     1      46.849   6.055  17.708  0.00  0.00    +0.000 HD
ENDBRANCH  18  25
ENDBRANCH  16  21
ENDBRANCH   1  16
TORSDOF 5
ENDMDL
MODEL 6
REMARK VINA RESULT:    -7.129      2.646      6.898
REMARK INTER + INTRA:         -10.236
REMARK INTER:                  -9.407
REMARK INTRA:                  -0.829
REMARK UNBOUND:                -1.023
REMARK  Name = 
REMARK  5 active torsions:
REMARK  status: ('A' for Active; 'I' for Inactive)
REMARK    1  A    between atoms: C_2  and  C_4
REMARK    2  A    between atoms: C_7  and  N_8
REMARK    3  A    between atoms: N_8  and  C_9
REMARK    4  A    between atoms: C_9  and  C_10
REMARK    5  A    between atoms: C_12  and  N_13
REMARK                            x       y       z     vdW  Elec       q    Type
REMARK                         _______ _______ _______ _____ _____    ______ ____
ROOT
ATOM      1  C   UNL     1      43.815   6.683  11.393  0.00  0.00    +0.000 C 
ENDROOT
BRANCH   1   2
ATOM      2  C   UNL     1      43.803   5.197  11.133  0.00  0.00    +0.000 A 
ATOM      3  C   UNL     1      44.420   4.641   9.998  0.00  0.00    +0.000 A 
ATOM      4  C   UNL     1      44.556   3.254   9.817  0.00  0.00    +0.000 A 
ATOM      5  C   UNL     1      44.014   2.421  10.804  0.00  0.00    +0.000 A 
ATOM      6  C   UNL     1      43.371   2.947  11.930  0.00  0.00    +0.000 A 
ATOM      7  C   UNL     1      43.284   4.326  12.089  0.00  0.00    +0.000 A 
ATOM      8  F   UNL     1      42.710   4.812  13.198  0.00  0.00    +0.000 F 
BRANCH   4   9
ATOM      9  N   UNL     1      45.283   2.769   8.750  0.00  0.00    +0.000 N 
ATOM     10  C   UNL     1      45.316   1.337   8.439  0.00  0.00    +0.000 C 
ATOM     11  C   UNL     1      46.718   0.974   7.897  0.00  0.00    +0.000 C 
ATOM     12  N   UNL     1      47.120   1.773   6.719  0.00  0.00    +0.000 NA
ATOM     13  C   UNL     1      47.035   3.211   7.064  0.00  0.00    +0.000 C 
ATOM     14  C   UNL     1      45.664   3.651   7.635  0.00  0.00    +0.000 C 
ATOM     15  H   UNL     1      46.445   1.591   5.974  0.00  0.00    +0.000 HD
ENDBRANCH   4   9
ENDBRANCH   1   2
BRANCH   1  16
ATOM     16  N   UNL     1      44.579   7.018  12.588  0.00  0.00    +0.000 N 
ATOM     17  H   UNL     1      44.055   7.466  13.330  0.00  0.00    +0.000 HD
BRANCH  16  21
ATOM     18  C   UNL     1      48.750   7.584  12.433  0.00  0.00    +0.000 A 
ATOM     19  C   UNL     1      47.898   8.633  12.091  0.00  0.00    +0.000 A 
ATOM     20  C   UNL     1      46.513   8.458  12.146  0.00  0.00    +0.000 A 
ATOM     21  C   UNL     1      45.944   7.257  12.582  0.00  0.00    +0.000 A 
ATOM     22  C   UNL     1      46.815   6.204  12.903  0.00  0.00    +0.000 A 
ATOM     23  C   UNL     1      48.204   6.359  12.826  0.00  0.00    +0.000 A 
BRANCH  18  25
ATOM     24  N   UNL     1      50.917   7.816  13.515  0.00  0.00    +0.000 N 
ATOM     25  C   UNL     1      50.225   7.722  12.340  0.00  0.00    +0.000 C 
ATOM     26  O   UNL     1      50.805   7.734  11.261  0.00  0.00    +0.000 OA
ATOM     27  H   UNL     1      51.927   7.826  13.446  0.00  0.00    +0.000 HD
ATOM     28  H   UNL     1      50.510   7.589  14.413  0.00  0.00    +0.000 HD
ENDBRANCH  18  25
ENDBRANCH  16  21
ENDBRANCH   1  16
TORSDOF 5
ENDMDL
MODEL 7
REMARK VINA RESULT:    -6.794      4.928      7.959
REMARK INTER + INTRA:          -9.803
REMARK INTER:                  -9.104
REMARK INTRA:                  -0.699
REMARK UNBOUND:                -1.023
REMARK  Name = 
REMARK  5 active torsions:
REMARK  status: ('A' for Active; 'I' for Inactive)
REMARK    1  A    between atoms: C_2  and  C_4
REMARK    2  A    between atoms: C_7  and  N_8
REMARK    3  A    between atoms: N_8  and  C_9
REMARK    4  A    between atoms: C_9  and  C_10
REMARK    5  A    between atoms: C_12  and  N_13
REMARK                            x       y       z     vdW  Elec       q    Type
REMARK                         _______ _______ _______ _____ _____    ______ ____
ROOT
ATOM      1  C   UNL     1      48.549   6.620  15.668  0.00  0.00    +0.000 C 
ENDROOT
BRANCH   1   2
ATOM      2  C   UNL     1      48.040   6.511  14.253  0.00  0.00    +0.000 A 
ATOM      3  C   UNL     1      46.962   5.671  13.919  0.00  0.00    +0.000 A 
ATOM      4  C   UNL     1      46.373   5.671  12.643  0.00  0.00    +0.000 A 
ATOM      5  C   UNL     1      46.925   6.526  11.680  0.00  0.00    +0.000 A 
ATOM      6  C   UNL     1      48.015   7.352  11.978  0.00  0.00    +0.000 A 
ATOM      7  C   UNL     1      48.550   7.346  13.261  0.00  0.00    +0.000 A 
ATOM      8  F   UNL     1      49.560   8.181  13.542  0.00  0.00    +0.000 F 
BRANCH   4   9
ATOM      9  N   UNL     1      45.238   4.922  12.410  0.00  0.00    +0.000 N 
ATOM     10  C   UNL     1      45.312   3.474  12.199  0.00  0.00    +0.000 C 
ATOM     11  C   UNL     1      44.231   3.061  11.172  0.00  0.00    +0.000 C 
ATOM     12  N   UNL     1      42.862   3.462  11.565  0.00  0.00    +0.000 NA
ATOM     13  C   UNL     1      42.842   4.924  11.805  0.00  0.00    +0.000 C 
ATOM     14  C   UNL     1      43.912   5.421  12.809  0.00  0.00    +0.000 C 
ATOM     15  H   UNL     1      42.642   2.998  12.447  0.00  0.00    +0.000 HD
ENDBRANCH   4   9
ENDBRANCH   1   2
BRANCH   1  16
ATOM     16  N   UNL     1      48.210   5.444  16.459  0.00  0.00    +0.000 N 
ATOM     17  H   UNL     1      47.399   5.540  17.059  0.00  0.00    +0.000 HD
BRANCH  16  21
ATOM     18  C   UNL     1      51.007   2.446  17.419  0.00  0.00    +0.000 A 
ATOM     19  C   UNL     1      51.358   3.788  17.562  0.00  0.00    +0.000 A 
ATOM     20  C   UNL     1      50.434   4.789  17.253  0.00  0.00    +0.000 A 
ATOM     21  C   UNL     1      49.134   4.483  16.839  0.00  0.00    +0.000 A 
ATOM     22  C   UNL     1      48.804   3.129  16.681  0.00  0.00    +0.000 A 
ATOM     23  C   UNL     1      49.729   2.117  16.961  0.00  0.00    +0.000 A 
BRANCH  18  25
ATOM     24  N   UNL     1      51.480   0.184  18.183  0.00  0.00    +0.000 N 
ATOM     25  C   UNL     1      51.980   1.358  17.694  0.00  0.00    +0.000 C 
ATOM     26  O   UNL     1      53.178   1.494  17.476  0.00  0.00    +0.000 OA
ATOM     27  H   UNL     1      52.137  -0.579  18.289  0.00  0.00    +0.000 HD
ATOM     28  H   UNL     1      50.495  -0.043  18.166  0.00  0.00    +0.000 HD
ENDBRANCH  18  25
ENDBRANCH  16  21
ENDBRANCH   1  16
TORSDOF 5
ENDMDL
MODEL 8
REMARK VINA RESULT:    -6.246      4.157      6.158
REMARK INTER + INTRA:          -9.094
REMARK INTER:                  -8.389
REMARK INTRA:                  -0.706
REMARK UNBOUND:                -1.023
REMARK  Name = 
REMARK  5 active torsions:
REMARK  status: ('A' for Active; 'I' for Inactive)
REMARK    1  A    between atoms: C_2  and  C_4
REMARK    2  A    between atoms: C_7  and  N_8
REMARK    3  A    between atoms: N_8  and  C_9
REMARK    4  A    between atoms: C_9  and  C_10
REMARK    5  A    between atoms: C_12  and  N_13
REMARK                            x       y       z     vdW  Elec       q    Type
REMARK                         _______ _______ _______ _____ _____    ______ ____
ROOT
ATOM      1  C   UNL     1      48.253   7.612  13.201  0.00  0.00    +0.000 C 
ENDROOT
BRANCH   1   2
ATOM      2  C   UNL     1      49.111   7.343  14.412  0.00  0.00    +0.000 A 
ATOM      3  C   UNL     1      48.645   6.570  15.490  0.00  0.00    +0.000 A 
ATOM      4  C   UNL     1      49.477   6.178  16.553  0.00  0.00    +0.000 A 
ATOM      5  C   UNL     1      50.806   6.620  16.525  0.00  0.00    +0.000 A 
ATOM      6  C   UNL     1      51.288   7.414  15.478  0.00  0.00    +0.000 A 
ATOM      7  C   UNL     1      50.442   7.754  14.429  0.00  0.00    +0.000 A 
ATOM      8  F   UNL     1      50.935   8.472  13.411  0.00  0.00    +0.000 F 
BRANCH   4   9
ATOM      9  N   UNL     1      49.000   5.312  17.516  0.00  0.00    +0.000 N 
ATOM     10  C   UNL     1      48.912   5.713  18.922  0.00  0.00    +0.000 C 
ATOM     11  C   UNL     1      49.216   4.485  19.813  0.00  0.00    +0.000 C 
ATOM     12  N   UNL     1      48.334   3.329  19.543  0.00  0.00    +0.000 NA
ATOM     13  C   UNL     1      48.424   2.983  18.105  0.00  0.00    +0.000 C 
ATOM     14  C   UNL     1      48.152   4.168  17.146  0.00  0.00    +0.000 C 
ATOM     15  H   UNL     1      47.373   3.618  19.735  0.00  0.00    +0.000 HD
ENDBRANCH   4   9
ENDBRANCH   1   2
BRANCH   1  16
ATOM     16  N   UNL     1      46.865   7.227  13.423  0.00  0.00    +0.000 N 
ATOM     17  H   UNL     1      46.491   7.449  14.338  0.00  0.00    +0.000 HD
BRANCH  16  21
ATOM     18  C   UNL     1      44.835   4.052  11.542  0.00  0.00    +0.000 A 
ATOM     19  C   UNL     1      44.919   5.291  10.906  0.00  0.00    +0.000 A 
ATOM     20  C   UNL     1      45.597   6.347  11.519  0.00  0.00    +0.000 A 
ATOM     21  C   UNL     1      46.241   6.188  12.751  0.00  0.00    +0.000 A 
ATOM     22  C   UNL     1      46.130   4.943  13.386  0.00  0.00    +0.000 A 
ATOM     23  C   UNL     1      45.430   3.883  12.795  0.00  0.00    +0.000 A 
BRANCH  18  25
ATOM     24  N   UNL     1      44.668   2.272   9.891  0.00  0.00    +0.000 N 
ATOM     25  C   UNL     1      44.083   2.922  10.940  0.00  0.00    +0.000 C 
ATOM     26  O   UNL     1      42.991   2.572  11.373  0.00  0.00    +0.000 OA
ATOM     27  H   UNL     1      44.188   1.453   9.541  0.00  0.00    +0.000 HD
ATOM     28  H   UNL     1      45.645   2.382   9.653  0.00  0.00    +0.000 HD
ENDBRANCH  18  25
ENDBRANCH  16  21
ENDBRANCH   1  16
TORSDOF 5
ENDMDL
MODEL 9
REMARK VINA RESULT:    -6.222      3.062      7.140
REMARK INTER + INTRA:          -9.063
REMARK INTER:                  -8.293
REMARK INTRA:                  -0.770
REMARK UNBOUND:                -1.023
REMARK  Name = 
REMARK  5 active torsions:
REMARK  status: ('A' for Active; 'I' for Inactive)
REMARK    1  A    between atoms: C_2  and  C_4
REMARK    2  A    between atoms: C_7  and  N_8
REMARK    3  A    between atoms: N_8  and  C_9
REMARK    4  A    between atoms: C_9  and  C_10
REMARK    5  A    between atoms: C_12  and  N_13
REMARK                            x       y       z     vdW  Elec       q    Type
REMARK                         _______ _______ _______ _____ _____    ______ ____
ROOT
ATOM      1  C   UNL     1      46.069   5.058  13.519  0.00  0.00    +0.000 C 
ENDROOT
BRANCH   1   2
ATOM      2  C   UNL     1      45.177   4.810  12.329  0.00  0.00    +0.000 A 
ATOM      3  C   UNL     1      45.676   4.263  11.133  0.00  0.00    +0.000 A 
ATOM      4  C   UNL     1      44.839   3.880  10.071  0.00  0.00    +0.000 A 
ATOM      5  C   UNL     1      43.464   4.097  10.226  0.00  0.00    +0.000 A 
ATOM      6  C   UNL     1      42.942   4.665  11.395  0.00  0.00    +0.000 A 
ATOM      7  C   UNL     1      43.801   5.001  12.436  0.00  0.00    +0.000 A 
ATOM      8  F   UNL     1      43.279   5.496  13.566  0.00  0.00    +0.000 F 
BRANCH   4   9
ATOM      9  N   UNL     1      45.371   3.231   8.976  0.00  0.00    +0.000 N 
ATOM     10  C   UNL     1      45.162   1.796   8.767  0.00  0.00    +0.000 C 
ATOM     11  C   UNL     1      46.432   1.194   8.120  0.00  0.00    +0.000 C 
ATOM     12  N   UNL     1      46.818   1.855   6.854  0.00  0.00    +0.000 NA
ATOM     13  C   UNL     1      46.981   3.307   7.103  0.00  0.00    +0.000 C 
ATOM     14  C   UNL     1      45.756   3.981   7.770  0.00  0.00    +0.000 C 
ATOM     15  H   UNL     1      46.050   1.736   6.192  0.00  0.00    +0.000 HD
ENDBRANCH   4   9
ENDBRANCH   1   2
BRANCH   1  16
ATOM     16  N   UNL     1      46.405   6.469  13.660  0.00  0.00    +0.000 N 
ATOM     17  H   UNL     1      45.616   7.102  13.719  0.00  0.00    +0.000 HD
BRANCH  16  21
ATOM     18  C   UNL     1      50.115   7.978  12.360  0.00  0.00    +0.000 A 
ATOM     19  C   UNL     1      49.081   7.804  11.441  0.00  0.00    +0.000 A 
ATOM     20  C   UNL     1      47.844   7.311  11.864  0.00  0.00    +0.000 A 
ATOM     21  C   UNL     1      47.592   7.022  13.209  0.00  0.00    +0.000 A 
ATOM     22  C   UNL     1      48.650   7.183  14.117  0.00  0.00    +0.000 A 
ATOM     23  C   UNL     1      49.902   7.651  13.701  0.00  0.00    +0.000 A 
BRANCH  18  25
ATOM     24  N   UNL     1      52.532   8.002  12.645  0.00  0.00    +0.000 N 
ATOM     25  C   UNL     1      51.456   8.456  11.935  0.00  0.00    +0.000 C 
ATOM     26  O   UNL     1      51.599   9.210  10.980  0.00  0.00    +0.000 OA
ATOM     27  H   UNL     1      53.446   8.265  12.299  0.00  0.00    +0.000 HD
ATOM     28  H   UNL     1      52.478   7.219  13.283  0.00  0.00    +0.000 HD
ENDBRANCH  18  25
ENDBRANCH  16  21
ENDBRANCH   1  16
TORSDOF 5
ENDMDL
