MODEL 1
REMARK VINA RESULT:    -8.389      0.000      0.000
REMARK INTER + INTRA:         -11.765
REMARK INTER:                 -10.841
REMARK INTRA:                  -0.924
REMARK UNBOUND:                -0.924
REMARK  Name = 
REMARK  6 active torsions:
REMARK  status: ('A' for Active; 'I' for Inactive)
REMARK    1  A    between atoms: C_1  and  C_2
REMARK    2  A    between atoms: C_4  and  C_5
REMARK    3  A    between atoms: C_10  and  N_11
REMARK    4  A    between atoms: N_11  and  C_12
REMARK    5  A    between atoms: C_12  and  C_13
REMARK    6  A    between atoms: C_16  and  C_17
REMARK                            x       y       z     vdW  Elec       q    Type
REMARK                         _______ _______ _______ _____ _____    ______ ____
ROOT
ATOM      1  N   UNL     1      43.971   4.773   9.735  0.00  0.00    +0.000 N 
ATOM      2  H   UNL     1      43.087   4.852   9.240  0.00  0.00    +0.000 HD
ENDROOT
BRANCH   1   9
ATOM      3  C   UNL     1      44.151   1.672   9.682  0.00  0.00    +0.000 C 
ATOM      4  C   UNL     1      44.968   2.640   8.891  0.00  0.00    +0.000 A 
ATOM      5  C   UNL     1      45.967   2.079   8.072  0.00  0.00    +0.000 A 
ATOM      6  C   UNL     1      46.810   2.875   7.310  0.00  0.00    +0.000 A 
ATOM      7  C   UNL     1      46.612   4.239   7.405  0.00  0.00    +0.000 A 
ATOM      8  N   UNL     1      45.667   4.821   8.193  0.00  0.00    +0.000 NA
ATOM      9  C   UNL     1      44.847   4.031   8.938  0.00  0.00    +0.000 A 
BRANCH   6  10
ATOM     10  C   UNL     1      47.840   2.209   6.475  0.00  0.00    +0.000 C 
ATOM     11  N   UNL     1      48.282   2.820   5.339  0.00  0.00    +0.000 N 
ATOM     12  O   UNL     1      48.300   1.117   6.793  0.00  0.00    +0.000 OA
ATOM     13  H   UNL     1      47.969   3.705   4.978  0.00  0.00    +0.000 HD
ATOM     14  H   UNL     1      48.982   2.313   4.809  0.00  0.00    +0.000 HD
ENDBRANCH   6  10
ENDBRANCH   1   9
BRANCH   1  15
ATOM     15  C   UNL     1      43.969   4.921  11.199  0.00  0.00    +0.000 C 
ATOM     16  C   UNL     1      43.035   4.034  12.006  0.00  0.00    +0.000 C 
ATOM     17  C   UNL     1      42.714   5.482  11.874  0.00  0.00    +0.000 C 
BRANCH  15  18
ATOM     18  C   UNL     1      45.266   5.502  11.787  0.00  0.00    +0.000 A 
ATOM     19  C   UNL     1      45.941   4.858  12.843  0.00  0.00    +0.000 A 
ATOM     20  C   UNL     1      47.105   5.392  13.411  0.00  0.00    +0.000 A 
ATOM     21  C   UNL     1      47.640   6.596  12.935  0.00  0.00    +0.000 A 
ATOM     22  C   UNL     1      46.993   7.242  11.876  0.00  0.00    +0.000 A 
ATOM     23  C   UNL     1      45.838   6.697  11.312  0.00  0.00    +0.000 A 
BRANCH  21  24
ATOM     24  C   UNL     1      48.877   7.212  13.532  0.00  0.00    +0.000 C 
ATOM     25  F   UNL     1      48.746   8.534  13.834  0.00  0.00    +0.000 F 
ATOM     26  F   UNL     1      49.254   6.600  14.689  0.00  0.00    +0.000 F 
ATOM     27  F   UNL     1      49.954   7.124  12.701  0.00  0.00    +0.000 F 
ENDBRANCH  21  24
ENDBRANCH  15  18
ENDBRANCH   1  15
TORSDOF 5
ENDMDL
MODEL 2
REMARK VINA RESULT:    -7.664      4.329      6.664
REMARK INTER + INTRA:         -10.828
REMARK INTER:                 -10.452
REMARK INTRA:                  -0.376
REMARK UNBOUND:                -0.924
REMARK  Name = 
REMARK  6 active torsions:
REMARK  status: ('A' for Active; 'I' for Inactive)
REMARK    1  A    between atoms: C_1  and  C_2
REMARK    2  A    between atoms: C_4  and  C_5
REMARK    3  A    between atoms: C_10  and  N_11
REMARK    4  A    between atoms: N_11  and  C_12
REMARK    5  A    between atoms: C_12  and  C_13
REMARK    6  A    between atoms: C_16  and  C_17
REMARK                            x       y       z     vdW  Elec       q    Type
REMARK                         _______ _______ _______ _____ _____    ______ ____
ROOT
ATOM      1  N   UNL     1      45.254   4.643  12.380  0.00  0.00    +0.000 N 
ATOM      2  H   UNL     1      44.839   4.362  13.264  0.00  0.00    +0.000 HD
ENDROOT
BRANCH   1   9
ATOM      3  C   UNL     1      47.018   4.400  14.925  0.00  0.00    +0.000 C 
ATOM      4  C   UNL     1      47.189   5.360  13.794  0.00  0.00    +0.000 A 
ATOM      5  C   UNL     1      48.236   6.292  13.927  0.00  0.00    +0.000 A 
ATOM      6  C   UNL     1      48.478   7.253  12.957  0.00  0.00    +0.000 A 
ATOM      7  C   UNL     1      47.636   7.240  11.862  0.00  0.00    +0.000 A 
ATOM      8  N   UNL     1      46.606   6.365  11.700  0.00  0.00    +0.000 NA
ATOM      9  C   UNL     1      46.376   5.428  12.660  0.00  0.00    +0.000 A 
BRANCH   6  10
ATOM     10  C   UNL     1      49.599   8.202  13.172  0.00  0.00    +0.000 C 
ATOM     11  N   UNL     1      50.764   7.752  13.719  0.00  0.00    +0.000 N 
ATOM     12  O   UNL     1      49.491   9.385  12.865  0.00  0.00    +0.000 OA
ATOM     13  H   UNL     1      50.958   6.811  14.017  0.00  0.00    +0.000 HD
ATOM     14  H   UNL     1      51.490   8.448  13.845  0.00  0.00    +0.000 HD
ENDBRANCH   6  10
ENDBRANCH   1   9
BRANCH   1  15
ATOM     15  C   UNL     1      44.402   4.659  11.180  0.00  0.00    +0.000 C 
ATOM     16  C   UNL     1      43.325   5.728  11.083  0.00  0.00    +0.000 C 
ATOM     17  C   UNL     1      42.917   4.318  11.336  0.00  0.00    +0.000 C 
BRANCH  15  18
ATOM     18  C   UNL     1      45.031   4.009   9.937  0.00  0.00    +0.000 A 
ATOM     19  C   UNL     1      45.069   2.608   9.788  0.00  0.00    +0.000 A 
ATOM     20  C   UNL     1      45.669   1.999   8.677  0.00  0.00    +0.000 A 
ATOM     21  C   UNL     1      46.251   2.778   7.669  0.00  0.00    +0.000 A 
ATOM     22  C   UNL     1      46.209   4.171   7.791  0.00  0.00    +0.000 A 
ATOM     23  C   UNL     1      45.602   4.767   8.898  0.00  0.00    +0.000 A 
BRANCH  21  24
ATOM     24  C   UNL     1      46.922   2.162   6.469  0.00  0.00    +0.000 C 
ATOM     25  F   UNL     1      46.423   2.590   5.276  0.00  0.00    +0.000 F 
ATOM     26  F   UNL     1      48.258   2.425   6.433  0.00  0.00    +0.000 F 
ATOM     27  F   UNL     1      46.813   0.803   6.455  0.00  0.00    +0.000 F 
ENDBRANCH  21  24
ENDBRANCH  15  18
ENDBRANCH   1  15
TORSDOF 5
ENDMDL
MODEL 3
REMARK VINA RESULT:    -7.365      4.255      6.587
REMARK INTER + INTRA:         -10.442
REMARK INTER:                  -9.904
REMARK INTRA:                  -0.538
REMARK UNBOUND:                -0.924
REMARK  Name = 
REMARK  6 active torsions:
REMARK  status: ('A' for Active; 'I' for Inactive)
REMARK    1  A    between atoms: C_1  and  C_2
REMARK    2  A    between atoms: C_4  and  C_5
REMARK    3  A    between atoms: C_10  and  N_11
REMARK    4  A    between atoms: N_11  and  C_12
REMARK    5  A    between atoms: C_12  and  C_13
REMARK    6  A    between atoms: C_16  and  C_17
REMARK                            x       y       z     vdW  Elec       q    Type
REMARK                         _______ _______ _______ _____ _____    ______ ____
ROOT
ATOM      1  N   UNL     1      45.031   4.867  12.467  0.00  0.00    +0.000 N 
ATOM      2  H   UNL     1      44.656   4.794  13.409  0.00  0.00    +0.000 HD
ENDROOT
BRANCH   1   9
ATOM      3  C   UNL     1      44.856   7.794  11.443  0.00  0.00    +0.000 C 
ATOM      4  C   UNL     1      46.047   7.111  12.031  0.00  0.00    +0.000 A 
ATOM      5  C   UNL     1      47.234   7.866  12.073  0.00  0.00    +0.000 A 
ATOM      6  C   UNL     1      48.414   7.333  12.570  0.00  0.00    +0.000 A 
ATOM      7  C   UNL     1      48.353   6.027  13.016  0.00  0.00    +0.000 A 
ATOM      8  N   UNL     1      47.230   5.259  12.982  0.00  0.00    +0.000 NA
ATOM      9  C   UNL     1      46.078   5.791  12.490  0.00  0.00    +0.000 A 
BRANCH   6  10
ATOM     10  C   UNL     1      49.625   8.192  12.578  0.00  0.00    +0.000 C 
ATOM     11  N   UNL     1      50.744   7.769  13.232  0.00  0.00    +0.000 N 
ATOM     12  O   UNL     1      49.633   9.275  12.003  0.00  0.00    +0.000 OA
ATOM     13  H   UNL     1      50.846   6.908  13.744  0.00  0.00    +0.000 HD
ATOM     14  H   UNL     1      51.536   8.401  13.206  0.00  0.00    +0.000 HD
ENDBRANCH   6  10
ENDBRANCH   1   9
BRANCH   1  15
ATOM     15  C   UNL     1      44.163   4.494  11.338  0.00  0.00    +0.000 C 
ATOM     16  C   UNL     1      42.802   5.163  11.231  0.00  0.00    +0.000 C 
ATOM     17  C   UNL     1      42.869   3.731  11.633  0.00  0.00    +0.000 C 
BRANCH  15  18
ATOM     18  C   UNL     1      44.908   3.943  10.111  0.00  0.00    +0.000 A 
ATOM     19  C   UNL     1      45.484   4.806   9.159  0.00  0.00    +0.000 A 
ATOM     20  C   UNL     1      46.137   4.319   8.019  0.00  0.00    +0.000 A 
ATOM     21  C   UNL     1      46.241   2.941   7.794  0.00  0.00    +0.000 A 
ATOM     22  C   UNL     1      45.690   2.066   8.737  0.00  0.00    +0.000 A 
ATOM     23  C   UNL     1      45.048   2.563   9.873  0.00  0.00    +0.000 A 
BRANCH  21  24
ATOM     24  C   UNL     1      46.917   2.378   6.572  0.00  0.00    +0.000 C 
ATOM     25  F   UNL     1      46.810   1.025   6.454  0.00  0.00    +0.000 F 
ATOM     26  F   UNL     1      46.412   2.895   5.417  0.00  0.00    +0.000 F 
ATOM     27  F   UNL     1      48.252   2.651   6.546  0.00  0.00    +0.000 F 
ENDBRANCH  21  24
ENDBRANCH  15  18
ENDBRANCH   1  15
TORSDOF 5
ENDMDL
MODEL 4
REMARK VINA RESULT:    -6.343      1.915      2.820
REMARK INTER + INTRA:          -9.121
REMARK INTER:                  -8.770
REMARK INTRA:                  -0.351
REMARK UNBOUND:                -0.924
REMARK  Name = 
REMARK  6 active torsions:
REMARK  status: ('A' for Active; 'I' for Inactive)
REMARK    1  A    between atoms: C_1  and  C_2
REMARK    2  A    between atoms: C_4  and  C_5
REMARK    3  A    between atoms: C_10  and  N_11
REMARK    4  A    between atoms: N_11  and  C_12
REMARK    5  A    between atoms: C_12  and  C_13
REMARK    6  A    between atoms: C_16  and  C_17
REMARK                            x       y       z     vdW  Elec       q    Type
REMARK                         _______ _______ _______ _____ _____    ______ ____
ROOT
ATOM      1  N   UNL     1      44.205   5.501  10.294  0.00  0.00    +0.000 N 
ATOM      2  H   UNL     1      43.215   5.292  10.397  0.00  0.00    +0.000 HD
ENDROOT
BRANCH   1   9
ATOM      3  C   UNL     1      43.765   2.495  10.942  0.00  0.00    +0.000 C 
ATOM      4  C   UNL     1      44.642   3.073   9.880  0.00  0.00    +0.000 A 
ATOM      5  C   UNL     1      45.392   2.148   9.128  0.00  0.00    +0.000 A 
ATOM      6  C   UNL     1      46.264   2.563   8.133  0.00  0.00    +0.000 A 
ATOM      7  C   UNL     1      46.351   3.926   7.927  0.00  0.00    +0.000 A 
ATOM      8  N   UNL     1      45.654   4.853   8.640  0.00  0.00    +0.000 NA
ATOM      9  C   UNL     1      44.803   4.435   9.616  0.00  0.00    +0.000 A 
BRANCH   6  10
ATOM     10  C   UNL     1      47.021   1.528   7.387  0.00  0.00    +0.000 C 
ATOM     11  N   UNL     1      48.037   1.905   6.558  0.00  0.00    +0.000 N 
ATOM     12  O   UNL     1      46.748   0.338   7.506  0.00  0.00    +0.000 OA
ATOM     13  H   UNL     1      48.339   2.847   6.376  0.00  0.00    +0.000 HD
ATOM     14  H   UNL     1      48.512   1.153   6.073  0.00  0.00    +0.000 HD
ENDBRANCH   6  10
ENDBRANCH   1   9
BRANCH   1  15
ATOM     15  C   UNL     1      44.822   6.447  11.237  0.00  0.00    +0.000 C 
ATOM     16  C   UNL     1      44.281   7.868  11.280  0.00  0.00    +0.000 C 
ATOM     17  C   UNL     1      45.618   7.626  10.670  0.00  0.00    +0.000 C 
BRANCH  15  18
ATOM     18  C   UNL     1      45.514   5.792  12.443  0.00  0.00    +0.000 A 
ATOM     19  C   UNL     1      46.809   6.179  12.840  0.00  0.00    +0.000 A 
ATOM     20  C   UNL     1      47.466   5.568  13.917  0.00  0.00    +0.000 A 
ATOM     21  C   UNL     1      46.842   4.545  14.641  0.00  0.00    +0.000 A 
ATOM     22  C   UNL     1      45.549   4.158  14.273  0.00  0.00    +0.000 A 
ATOM     23  C   UNL     1      44.901   4.779  13.203  0.00  0.00    +0.000 A 
BRANCH  21  24
ATOM     24  C   UNL     1      47.522   3.850  15.791  0.00  0.00    +0.000 C 
ATOM     25  F   UNL     1      47.989   2.607  15.488  0.00  0.00    +0.000 F 
ATOM     26  F   UNL     1      48.594   4.549  16.257  0.00  0.00    +0.000 F 
ATOM     27  F   UNL     1      46.694   3.687  16.862  0.00  0.00    +0.000 F 
ENDBRANCH  21  24
ENDBRANCH  15  18
ENDBRANCH   1  15
TORSDOF 5
ENDMDL
MODEL 5
REMARK VINA RESULT:    -6.108      5.856      8.254
REMARK INTER + INTRA:          -8.817
REMARK INTER:                  -8.288
REMARK INTRA:                  -0.529
REMARK UNBOUND:                -0.924
REMARK  Name = 
REMARK  6 active torsions:
REMARK  status: ('A' for Active; 'I' for Inactive)
REMARK    1  A    between atoms: C_1  and  C_2
REMARK    2  A    between atoms: C_4  and  C_5
REMARK    3  A    between atoms: C_10  and  N_11
REMARK    4  A    between atoms: N_11  and  C_12
REMARK    5  A    between atoms: C_12  and  C_13
REMARK    6  A    between atoms: C_16  and  C_17
REMARK                            x       y       z     vdW  Elec       q    Type
REMARK                         _______ _______ _______ _____ _____    ______ ____
ROOT
ATOM      1  N   UNL     1      48.066   6.597  15.473  0.00  0.00    +0.000 N 
ATOM      2  H   UNL     1      47.893   7.442  16.011  0.00  0.00    +0.000 HD
ENDROOT
BRANCH   1   9
ATOM      3  C   UNL     1      47.177   4.028  16.976  0.00  0.00    +0.000 C 
ATOM      4  C   UNL     1      48.549   4.616  16.922  0.00  0.00    +0.000 A 
ATOM      5  C   UNL     1      49.533   3.957  17.684  0.00  0.00    +0.000 A 
ATOM      6  C   UNL     1      50.838   4.424  17.738  0.00  0.00    +0.000 A 
ATOM      7  C   UNL     1      51.110   5.563  17.006  0.00  0.00    +0.000 A 
ATOM      8  N   UNL     1      50.186   6.236  16.268  0.00  0.00    +0.000 NA
ATOM      9  C   UNL     1      48.907   5.772  16.224  0.00  0.00    +0.000 A 
BRANCH   6  10
ATOM     10  C   UNL     1      51.817   3.676  18.567  0.00  0.00    +0.000 C 
ATOM     11  N   UNL     1      52.058   2.361  18.297  0.00  0.00    +0.000 N 
ATOM     12  O   UNL     1      52.411   4.224  19.489  0.00  0.00    +0.000 OA
ATOM     13  H   UNL     1      51.623   1.810  17.577  0.00  0.00    +0.000 HD
ATOM     14  H   UNL     1      52.733   1.904  18.900  0.00  0.00    +0.000 HD
ENDBRANCH   6  10
ENDBRANCH   1   9
BRANCH   1  15
ATOM     15  C   UNL     1      47.905   6.653  14.011  0.00  0.00    +0.000 C 
ATOM     16  C   UNL     1      49.096   7.102  13.178  0.00  0.00    +0.000 C 
ATOM     17  C   UNL     1      47.934   8.022  13.326  0.00  0.00    +0.000 C 
BRANCH  15  18
ATOM     18  C   UNL     1      46.808   5.734  13.450  0.00  0.00    +0.000 A 
ATOM     19  C   UNL     1      46.961   4.334  13.444  0.00  0.00    +0.000 A 
ATOM     20  C   UNL     1      45.984   3.485  12.906  0.00  0.00    +0.000 A 
ATOM     21  C   UNL     1      44.810   4.014  12.356  0.00  0.00    +0.000 A 
ATOM     22  C   UNL     1      44.631   5.401  12.367  0.00  0.00    +0.000 A 
ATOM     23  C   UNL     1      45.608   6.236  12.913  0.00  0.00    +0.000 A 
BRANCH  21  24
ATOM     24  C   UNL     1      43.745   3.137  11.751  0.00  0.00    +0.000 C 
ATOM     25  F   UNL     1      44.127   2.521  10.597  0.00  0.00    +0.000 F 
ATOM     26  F   UNL     1      43.354   2.141  12.594  0.00  0.00    +0.000 F 
ATOM     27  F   UNL     1      42.612   3.830  11.448  0.00  0.00    +0.000 F 
ENDBRANCH  21  24
ENDBRANCH  15  18
ENDBRANCH   1  15
TORSDOF 5
ENDMDL
MODEL 6
REMARK VINA RESULT:    -6.040      5.708      8.208
REMARK INTER + INTRA:          -8.729
REMARK INTER:                  -8.135
REMARK INTRA:                  -0.594
REMARK UNBOUND:                -0.924
REMARK  Name = 
REMARK  6 active torsions:
REMARK  status: ('A' for Active; 'I' for Inactive)
REMARK    1  A    between atoms: C_1  and  C_2
REMARK    2  A    between atoms: C_4  and  C_5
REMARK    3  A    between atoms: C_10  and  N_11
REMARK    4  A    between atoms: N_11  and  C_12
REMARK    5  A    between atoms: C_12  and  C_13
REMARK    6  A    between atoms: C_16  and  C_17
REMARK                            x       y       z     vdW  Elec       q    Type
REMARK                         _______ _______ _______ _____ _____    ______ ____
ROOT
ATOM      1  N   UNL     1      48.047   5.500  16.118  0.00  0.00    +0.000 N 
ATOM      2  H   UNL     1      47.528   5.882  16.904  0.00  0.00    +0.000 HD
ENDROOT
BRANCH   1   9
ATOM      3  C   UNL     1      50.531   6.264  17.819  0.00  0.00    +0.000 C 
ATOM      4  C   UNL     1      50.122   4.898  17.378  0.00  0.00    +0.000 A 
ATOM      5  C   UNL     1      50.994   3.849  17.730  0.00  0.00    +0.000 A 
ATOM      6  C   UNL     1      50.738   2.538  17.353  0.00  0.00    +0.000 A 
ATOM      7  C   UNL     1      49.588   2.328  16.618  0.00  0.00    +0.000 A 
ATOM      8  N   UNL     1      48.727   3.314  16.247  0.00  0.00    +0.000 NA
ATOM      9  C   UNL     1      48.988   4.597  16.619  0.00  0.00    +0.000 A 
BRANCH   6  10
ATOM     10  C   UNL     1      51.706   1.490  17.760  0.00  0.00    +0.000 C 
ATOM     11  N   UNL     1      51.247   0.261  18.134  0.00  0.00    +0.000 N 
ATOM     12  O   UNL     1      52.913   1.712  17.763  0.00  0.00    +0.000 OA
ATOM     13  H   UNL     1      50.285  -0.027  18.179  0.00  0.00    +0.000 HD
ATOM     14  H   UNL     1      51.956  -0.411  18.405  0.00  0.00    +0.000 HD
ENDBRANCH   6  10
ENDBRANCH   1   9
BRANCH   1  15
ATOM     15  C   UNL     1      48.101   6.279  14.870  0.00  0.00    +0.000 C 
ATOM     16  C   UNL     1      49.374   7.055  14.567  0.00  0.00    +0.000 C 
ATOM     17  C   UNL     1      48.151   7.807  14.966  0.00  0.00    +0.000 C 
BRANCH  15  18
ATOM     18  C   UNL     1      47.154   5.787  13.764  0.00  0.00    +0.000 A 
ATOM     19  C   UNL     1      47.169   6.365  12.480  0.00  0.00    +0.000 A 
ATOM     20  C   UNL     1      46.288   5.950  11.472  0.00  0.00    +0.000 A 
ATOM     21  C   UNL     1      45.359   4.931  11.716  0.00  0.00    +0.000 A 
ATOM     22  C   UNL     1      45.339   4.333  12.980  0.00  0.00    +0.000 A 
ATOM     23  C   UNL     1      46.227   4.749  13.975  0.00  0.00    +0.000 A 
BRANCH  21  24
ATOM     24  C   UNL     1      44.383   4.470  10.665  0.00  0.00    +0.000 C 
ATOM     25  F   UNL     1      43.141   5.017  10.787  0.00  0.00    +0.000 F 
ATOM     26  F   UNL     1      44.801   4.769   9.404  0.00  0.00    +0.000 F 
ATOM     27  F   UNL     1      44.200   3.120  10.683  0.00  0.00    +0.000 F 
ENDBRANCH  21  24
ENDBRANCH  15  18
ENDBRANCH   1  15
TORSDOF 5
ENDMDL
MODEL 7
REMARK VINA RESULT:    -5.975      2.318      2.928
REMARK INTER + INTRA:          -8.646
REMARK INTER:                  -7.891
REMARK INTRA:                  -0.755
REMARK UNBOUND:                -0.924
REMARK  Name = 
REMARK  6 active torsions:
REMARK  status: ('A' for Active; 'I' for Inactive)
REMARK    1  A    between atoms: C_1  and  C_2
REMARK    2  A    between atoms: C_4  and  C_5
REMARK    3  A    between atoms: C_10  and  N_11
REMARK    4  A    between atoms: N_11  and  C_12
REMARK    5  A    between atoms: C_12  and  C_13
REMARK    6  A    between atoms: C_16  and  C_17
REMARK                            x       y       z     vdW  Elec       q    Type
REMARK                         _______ _______ _______ _____ _____    ______ ____
ROOT
ATOM      1  N   UNL     1      44.113   4.396  10.464  0.00  0.00    +0.000 N 
ATOM      2  H   UNL     1      43.223   3.906  10.495  0.00  0.00    +0.000 HD
ENDROOT
BRANCH   1   9
ATOM      3  C   UNL     1      44.109   1.431   9.537  0.00  0.00    +0.000 C 
ATOM      4  C   UNL     1      44.883   2.563   8.946  0.00  0.00    +0.000 A 
ATOM      5  C   UNL     1      45.747   2.233   7.884  0.00  0.00    +0.000 A 
ATOM      6  C   UNL     1      46.540   3.191   7.270  0.00  0.00    +0.000 A 
ATOM      7  C   UNL     1      46.431   4.478   7.761  0.00  0.00    +0.000 A 
ATOM      8  N   UNL     1      45.619   4.837   8.792  0.00  0.00    +0.000 NA
ATOM      9  C   UNL     1      44.847   3.888   9.389  0.00  0.00    +0.000 A 
BRANCH   6  10
ATOM     10  C   UNL     1      47.427   2.763   6.160  0.00  0.00    +0.000 C 
ATOM     11  N   UNL     1      48.623   2.175   6.445  0.00  0.00    +0.000 N 
ATOM     12  O   UNL     1      47.098   2.930   4.990  0.00  0.00    +0.000 OA
ATOM     13  H   UNL     1      48.998   1.999   7.362  0.00  0.00    +0.000 HD
ATOM     14  H   UNL     1      49.186   1.909   5.645  0.00  0.00    +0.000 HD
ENDBRANCH   6  10
ENDBRANCH   1   9
BRANCH   1  15
ATOM     15  C   UNL     1      44.612   5.021  11.699  0.00  0.00    +0.000 C 
ATOM     16  C   UNL     1      45.328   4.138  12.708  0.00  0.00    +0.000 C 
ATOM     17  C   UNL     1      43.960   4.632  13.029  0.00  0.00    +0.000 C 
BRANCH  15  18
ATOM     18  C   UNL     1      44.879   6.532  11.591  0.00  0.00    +0.000 A 
ATOM     19  C   UNL     1      46.123   7.081  11.960  0.00  0.00    +0.000 A 
ATOM     20  C   UNL     1      46.371   8.459  11.899  0.00  0.00    +0.000 A 
ATOM     21  C   UNL     1      45.375   9.340  11.459  0.00  0.00    +0.000 A 
ATOM     22  C   UNL     1      44.138   8.812  11.073  0.00  0.00    +0.000 A 
ATOM     23  C   UNL     1      43.905   7.437  11.130  0.00  0.00    +0.000 A 
BRANCH  21  24
ATOM     24  C   UNL     1      45.595  10.829  11.397  0.00  0.00    +0.000 C 
ATOM     25  F   UNL     1      44.567  11.516  10.825  0.00  0.00    +0.000 F 
ATOM     26  F   UNL     1      45.770  11.377  12.632  0.00  0.00    +0.000 F 
ATOM     27  F   UNL     1      46.709  11.160  10.685  0.00  0.00    +0.000 F 
ENDBRANCH  21  24
ENDBRANCH  15  18
ENDBRANCH   1  15
TORSDOF 5
ENDMDL
MODEL 8
REMARK VINA RESULT:    -5.949      5.445      8.258
REMARK INTER + INTRA:          -8.612
REMARK INTER:                  -8.231
REMARK INTRA:                  -0.381
REMARK UNBOUND:                -0.924
REMARK  Name = 
REMARK  6 active torsions:
REMARK  status: ('A' for Active; 'I' for Inactive)
REMARK    1  A    between atoms: C_1  and  C_2
REMARK    2  A    between atoms: C_4  and  C_5
REMARK    3  A    between atoms: C_10  and  N_11
REMARK    4  A    between atoms: N_11  and  C_12
REMARK    5  A    between atoms: C_12  and  C_13
REMARK    6  A    between atoms: C_16  and  C_17
REMARK                            x       y       z     vdW  Elec       q    Type
REMARK                         _______ _______ _______ _____ _____    ______ ____
ROOT
ATOM      1  N   UNL     1      48.092   7.132  14.735  0.00  0.00    +0.000 N 
ATOM      2  H   UNL     1      47.813   8.022  15.138  0.00  0.00    +0.000 HD
ENDROOT
BRANCH   1   9
ATOM      3  C   UNL     1      50.924   8.107  15.556  0.00  0.00    +0.000 C 
ATOM      4  C   UNL     1      50.213   6.885  16.038  0.00  0.00    +0.000 A 
ATOM      5  C   UNL     1      50.934   6.058  16.921  0.00  0.00    +0.000 A 
ATOM      6  C   UNL     1      50.393   4.881  17.415  0.00  0.00    +0.000 A 
ATOM      7  C   UNL     1      49.115   4.572  16.991  0.00  0.00    +0.000 A 
ATOM      8  N   UNL     1      48.389   5.336  16.130  0.00  0.00    +0.000 NA
ATOM      9  C   UNL     1      48.931   6.488  15.648  0.00  0.00    +0.000 A 
BRANCH   6  10
ATOM     10  C   UNL     1      51.217   4.062  18.338  0.00  0.00    +0.000 C 
ATOM     11  N   UNL     1      51.180   4.319  19.677  0.00  0.00    +0.000 N 
ATOM     12  O   UNL     1      51.929   3.158  17.915  0.00  0.00    +0.000 OA
ATOM     13  H   UNL     1      50.644   5.038  20.132  0.00  0.00    +0.000 HD
ATOM     14  H   UNL     1      51.768   3.730  20.256  0.00  0.00    +0.000 HD
ENDBRANCH   6  10
ENDBRANCH   1   9
BRANCH   1  15
ATOM     15  C   UNL     1      48.044   6.980  13.272  0.00  0.00    +0.000 C 
ATOM     16  C   UNL     1      49.348   7.092  12.499  0.00  0.00    +0.000 C 
ATOM     17  C   UNL     1      48.358   8.200  12.402  0.00  0.00    +0.000 C 
BRANCH  15  18
ATOM     18  C   UNL     1      46.843   6.174  12.749  0.00  0.00    +0.000 A 
ATOM     19  C   UNL     1      46.124   5.306  13.594  0.00  0.00    +0.000 A 
ATOM     20  C   UNL     1      45.049   4.540  13.125  0.00  0.00    +0.000 A 
ATOM     21  C   UNL     1      44.651   4.621  11.784  0.00  0.00    +0.000 A 
ATOM     22  C   UNL     1      45.342   5.490  10.933  0.00  0.00    +0.000 A 
ATOM     23  C   UNL     1      46.407   6.254  11.414  0.00  0.00    +0.000 A 
BRANCH  21  24
ATOM     24  C   UNL     1      43.514   3.800  11.236  0.00  0.00    +0.000 C 
ATOM     25  F   UNL     1      43.238   2.683  11.965  0.00  0.00    +0.000 F 
ATOM     26  F   UNL     1      42.349   4.504  11.176  0.00  0.00    +0.000 F 
ATOM     27  F   UNL     1      43.750   3.368   9.965  0.00  0.00    +0.000 F 
ENDBRANCH  21  24
ENDBRANCH  15  18
ENDBRANCH   1  15
TORSDOF 5
ENDMDL
MODEL 9
REMARK VINA RESULT:    -5.850      4.879      6.937
REMARK INTER + INTRA:          -8.485
REMARK INTER:                  -7.450
REMARK INTRA:                  -1.035
REMARK UNBOUND:                -0.924
REMARK  Name = 
REMARK  6 active torsions:
REMARK  status: ('A' for Active; 'I' for Inactive)
REMARK    1  A    between atoms: C_1  and  C_2
REMARK    2  A    between atoms: C_4  and  C_5
REMARK    3  A    between atoms: C_10  and  N_11
REMARK    4  A    between atoms: N_11  and  C_12
REMARK    5  A    between atoms: C_12  and  C_13
REMARK    6  A    between atoms: C_16  and  C_17
REMARK                            x       y       z     vdW  Elec       q    Type
REMARK                         _______ _______ _______ _____ _____    ______ ____
ROOT
ATOM      1  N   UNL     1      48.961   6.893  13.238  0.00  0.00    +0.000 N 
ATOM      2  H   UNL     1      49.396   6.792  12.325  0.00  0.00    +0.000 HD
ENDROOT
BRANCH   1   9
ATOM      3  C   UNL     1      46.509   8.701  12.633  0.00  0.00    +0.000 C 
ATOM      4  C   UNL     1      46.509   7.228  12.880  0.00  0.00    +0.000 A 
ATOM      5  C   UNL     1      45.246   6.605  12.892  0.00  0.00    +0.000 A 
ATOM      6  C   UNL     1      45.112   5.246  13.139  0.00  0.00    +0.000 A 
ATOM      7  C   UNL     1      46.282   4.550  13.371  0.00  0.00    +0.000 A 
ATOM      8  N   UNL     1      47.519   5.116  13.380  0.00  0.00    +0.000 NA
ATOM      9  C   UNL     1      47.640   6.450  13.140  0.00  0.00    +0.000 A 
BRANCH   6  10
ATOM     10  C   UNL     1      43.746   4.664  13.139  0.00  0.00    +0.000 C 
ATOM     11  N   UNL     1      42.665   5.488  13.033  0.00  0.00    +0.000 N 
ATOM     12  O   UNL     1      43.578   3.453  13.230  0.00  0.00    +0.000 OA
ATOM     13  H   UNL     1      42.685   6.492  12.964  0.00  0.00    +0.000 HD
ATOM     14  H   UNL     1      41.760   5.032  13.043  0.00  0.00    +0.000 HD
ENDBRANCH   6  10
ENDBRANCH   1   9
BRANCH   1  15
ATOM     15  C   UNL     1      49.531   7.870  14.180  0.00  0.00    +0.000 C 
ATOM     16  C   UNL     1      50.030   9.193  13.622  0.00  0.00    +0.000 C 
ATOM     17  C   UNL     1      51.026   8.188  14.086  0.00  0.00    +0.000 C 
BRANCH  15  18
ATOM     18  C   UNL     1      49.049   7.718  15.632  0.00  0.00    +0.000 A 
ATOM     19  C   UNL     1      48.555   8.821  16.357  0.00  0.00    +0.000 A 
ATOM     20  C   UNL     1      48.144   8.705  17.691  0.00  0.00    +0.000 A 
ATOM     21  C   UNL     1      48.209   7.471  18.349  0.00  0.00    +0.000 A 
ATOM     22  C   UNL     1      48.682   6.360  17.643  0.00  0.00    +0.000 A 
ATOM     23  C   UNL     1      49.081   6.485  16.311  0.00  0.00    +0.000 A 
BRANCH  21  24
ATOM     24  C   UNL     1      47.796   7.309  19.789  0.00  0.00    +0.000 C 
ATOM     25  F   UNL     1      47.109   8.374  20.289  0.00  0.00    +0.000 F 
ATOM     26  F   UNL     1      46.993   6.225  19.977  0.00  0.00    +0.000 F 
ATOM     27  F   UNL     1      48.862   7.128  20.618  0.00  0.00    +0.000 F 
ENDBRANCH  21  24
ENDBRANCH  15  18
ENDBRANCH   1  15
TORSDOF 5
ENDMDL
