MODEL 1
REMARK VINA RESULT:    -8.166      0.000      0.000
REMARK INTER + INTRA:         -12.823
REMARK INTER:                 -11.507
REMARK INTRA:                  -1.316
REMARK UNBOUND:                -1.316
REMARK  Name = 
REMARK  7 active torsions:
REMARK  status: ('A' for Active; 'I' for Inactive)
REMARK    1  A    between atoms: C_2  and  C_3
REMARK    2  A    between atoms: C_3  and  N_4
REMARK    3  A    between atoms: C_3  and  C_17
REMARK    4  A    between atoms: C_5  and  C_7
REMARK    5  A    between atoms: C_20  and  C_21
REMARK    6  A    between atoms: C_21  and  N_22
REMARK    7  A    between atoms: C_23  and  C_25
REMARK                            x       y       z     vdW  Elec       q    Type
REMARK                         _______ _______ _______ _____ _____    ______ ____
ROOT
ATOM      1  C   UNL     1      47.724   4.853  15.281  0.00  0.00    +0.000 C 
ENDROOT
BRANCH   1   2
ATOM      2  C   UNL     1      46.876   4.868  14.013  0.00  0.00    +0.000 A 
ATOM      3  C   UNL     1      46.409   3.652  13.491  0.00  0.00    +0.000 A 
ATOM      4  C   UNL     1      45.554   3.628  12.388  0.00  0.00    +0.000 A 
ATOM      5  C   UNL     1      45.143   4.812  11.757  0.00  0.00    +0.000 A 
ATOM      6  C   UNL     1      45.684   6.023  12.215  0.00  0.00    +0.000 A 
ATOM      7 CL   UNL     1      45.314   7.529  11.453  0.00  0.00    +0.000 Cl
ATOM      8  C   UNL     1      46.539   6.049  13.330  0.00  0.00    +0.000 A 
BRANCH   5   9
ATOM      9  C   UNL     1      44.127   4.722  10.643  0.00  0.00    +0.000 C 
BRANCH   9  10
ATOM     10  N   UNL     1      44.503   3.774   9.617  0.00  0.00    +0.000 N 
ATOM     11  C   UNL     1      45.393   4.101   8.617  0.00  0.00    +0.000 C 
ATOM     12  O   UNL     1      45.929   5.203   8.544  0.00  0.00    +0.000 OA
ATOM     13  H   UNL     1      44.119   2.840   9.673  0.00  0.00    +0.000 HD
BRANCH  11  14
ATOM     14  C   UNL     1      45.696   2.962   7.658  0.00  0.00    +0.000 C 
ATOM     15  C   UNL     1      47.087   3.052   7.048  0.00  0.00    +0.000 C 
ATOM     16  C   UNL     1      47.453   1.605   6.797  0.00  0.00    +0.000 C 
ATOM     17  N   UNL     1      46.913   0.886   7.949  0.00  0.00    +0.000 NA
ATOM     18  C   UNL     1      45.672   1.587   8.331  0.00  0.00    +0.000 C 
ATOM     19  H   UNL     1      47.569   0.968   8.728  0.00  0.00    +0.000 HD
ENDBRANCH  11  14
ENDBRANCH   9  10
ENDBRANCH   5   9
ENDBRANCH   1   2
BRANCH   1  20
ATOM     20  N   UNL     1      47.899   6.205  15.781  0.00  0.00    +0.000 N 
ATOM     21  C   UNL     1      49.115   6.626  16.255  0.00  0.00    +0.000 C 
ATOM     22  O   UNL     1      50.087   5.876  16.243  0.00  0.00    +0.000 OA
ATOM     23  H   UNL     1      47.072   6.783  15.883  0.00  0.00    +0.000 HD
BRANCH  21  24
ATOM     24  C   UNL     1      49.221   8.007  16.747  0.00  0.00    +0.000 A 
ATOM     25  C   UNL     1      50.071   8.891  16.093  0.00  0.00    +0.000 A 
ATOM     26  S   UNL     1      50.059  10.468  16.740  0.00  0.00    +0.000 S 
ATOM     27  C   UNL     1      48.929  10.027  17.931  0.00  0.00    +0.000 A 
ATOM     28  N   UNL     1      48.483  10.940  18.835  0.00  0.00    +0.000 NA
ATOM     29  C   UNL     1      47.633  10.477  19.688  0.00  0.00    +0.000 A 
ATOM     30  N   UNL     1      47.185   9.183  19.716  0.00  0.00    +0.000 N 
ATOM     31  C   UNL     1      47.612   8.223  18.829  0.00  0.00    +0.000 A 
ATOM     32  O   UNL     1      47.209   7.066  18.899  0.00  0.00    +0.000 OA
ATOM     33  C   UNL     1      48.567   8.693  17.841  0.00  0.00    +0.000 A 
ATOM     34  H   UNL     1      46.525   8.883  20.419  0.00  0.00    +0.000 HD
ENDBRANCH  21  24
ENDBRANCH   1  20
BRANCH   1  36
ATOM     35  N   UNL     1      46.773   3.236  17.150  0.00  0.00    +0.000 NA
ATOM     36  C   UNL     1      47.200   3.938  16.326  0.00  0.00    +0.000 C 
ENDBRANCH   1  36
TORSDOF 7
ENDMDL
MODEL 2
REMARK VINA RESULT:    -8.037      2.816      3.901
REMARK INTER + INTRA:         -12.642
REMARK INTER:                 -11.479
REMARK INTRA:                  -1.164
REMARK UNBOUND:                -1.316
REMARK  Name = 
REMARK  7 active torsions:
REMARK  status: ('A' for Active; 'I' for Inactive)
REMARK    1  A    between atoms: C_2  and  C_3
REMARK    2  A    between atoms: C_3  and  N_4
REMARK    3  A    between atoms: C_3  and  C_17
REMARK    4  A    between atoms: C_5  and  C_7
REMARK    5  A    between atoms: C_20  and  C_21
REMARK    6  A    between atoms: C_21  and  N_22
REMARK    7  A    between atoms: C_23  and  C_25
REMARK                            x       y       z     vdW  Elec       q    Type
REMARK                         _______ _______ _______ _____ _____    ______ ____
ROOT
ATOM      1  C   UNL     1      47.674   7.505  13.066  0.00  0.00    +0.000 C 
ENDROOT
BRANCH   1   2
ATOM      2  C   UNL     1      46.586   6.795  12.265  0.00  0.00    +0.000 A 
ATOM      3  C   UNL     1      46.776   6.590  10.890  0.00  0.00    +0.000 A 
ATOM      4  C   UNL     1      45.850   5.863  10.140  0.00  0.00    +0.000 A 
ATOM      5  C   UNL     1      44.695   5.326  10.729  0.00  0.00    +0.000 A 
ATOM      6  C   UNL     1      44.454   5.611  12.081  0.00  0.00    +0.000 A 
ATOM      7 CL   UNL     1      43.019   5.073  12.879  0.00  0.00    +0.000 Cl
ATOM      8  C   UNL     1      45.388   6.336  12.839  0.00  0.00    +0.000 A 
BRANCH   5   9
ATOM      9  C   UNL     1      43.795   4.454   9.887  0.00  0.00    +0.000 C 
BRANCH   9  10
ATOM     10  N   UNL     1      44.470   3.898   8.734  0.00  0.00    +0.000 N 
ATOM     11  C   UNL     1      45.203   2.734   8.813  0.00  0.00    +0.000 C 
ATOM     12  O   UNL     1      45.317   2.094   9.854  0.00  0.00    +0.000 OA
ATOM     13  H   UNL     1      44.358   4.371   7.848  0.00  0.00    +0.000 HD
BRANCH  11  14
ATOM     14  C   UNL     1      45.801   2.285   7.490  0.00  0.00    +0.000 C 
ATOM     15  C   UNL     1      46.671   3.350   6.838  0.00  0.00    +0.000 C 
ATOM     16  C   UNL     1      47.687   2.544   6.060  0.00  0.00    +0.000 C 
ATOM     17  N   UNL     1      47.986   1.402   6.922  0.00  0.00    +0.000 NA
ATOM     18  C   UNL     1      46.732   1.078   7.630  0.00  0.00    +0.000 C 
ATOM     19  H   UNL     1      48.674   1.686   7.621  0.00  0.00    +0.000 HD
ENDBRANCH  11  14
ENDBRANCH   9  10
ENDBRANCH   5   9
ENDBRANCH   1   2
BRANCH   1  20
ATOM     20  N   UNL     1      48.095   6.676  14.181  0.00  0.00    +0.000 N 
ATOM     21  C   UNL     1      48.515   7.243  15.357  0.00  0.00    +0.000 C 
ATOM     22  O   UNL     1      48.519   8.463  15.500  0.00  0.00    +0.000 OA
ATOM     23  H   UNL     1      48.186   5.679  14.022  0.00  0.00    +0.000 HD
BRANCH  21  24
ATOM     24  C   UNL     1      48.928   6.344  16.444  0.00  0.00    +0.000 A 
ATOM     25  C   UNL     1      49.966   6.734  17.282  0.00  0.00    +0.000 A 
ATOM     26  S   UNL     1      50.308   5.619  18.525  0.00  0.00    +0.000 S 
ATOM     27  C   UNL     1      49.092   4.562  17.982  0.00  0.00    +0.000 A 
ATOM     28  N   UNL     1      48.857   3.388  18.626  0.00  0.00    +0.000 NA
ATOM     29  C   UNL     1      47.912   2.675  18.112  0.00  0.00    +0.000 A 
ATOM     30  N   UNL     1      47.179   3.033  17.011  0.00  0.00    +0.000 N 
ATOM     31  C   UNL     1      47.386   4.205  16.322  0.00  0.00    +0.000 A 
ATOM     32  O   UNL     1      46.727   4.482  15.324  0.00  0.00    +0.000 OA
ATOM     33  C   UNL     1      48.435   5.050  16.865  0.00  0.00    +0.000 A 
ATOM     34  H   UNL     1      46.460   2.422  16.653  0.00  0.00    +0.000 HD
ENDBRANCH  21  24
ENDBRANCH   1  20
BRANCH   1  36
ATOM     35  N   UNL     1      49.737   8.287  11.600  0.00  0.00    +0.000 NA
ATOM     36  C   UNL     1      48.823   7.943  12.234  0.00  0.00    +0.000 C 
ENDBRANCH   1  36
TORSDOF 7
ENDMDL
MODEL 3
REMARK VINA RESULT:    -7.875      1.561      2.401
REMARK INTER + INTRA:         -12.414
REMARK INTER:                 -11.346
REMARK INTRA:                  -1.068
REMARK UNBOUND:                -1.316
REMARK  Name = 
REMARK  7 active torsions:
REMARK  status: ('A' for Active; 'I' for Inactive)
REMARK    1  A    between atoms: C_2  and  C_3
REMARK    2  A    between atoms: C_3  and  N_4
REMARK    3  A    between atoms: C_3  and  C_17
REMARK    4  A    between atoms: C_5  and  C_7
REMARK    5  A    between atoms: C_20  and  C_21
REMARK    6  A    between atoms: C_21  and  N_22
REMARK    7  A    between atoms: C_23  and  C_25
REMARK                            x       y       z     vdW  Elec       q    Type
REMARK                         _______ _______ _______ _____ _____    ______ ____
ROOT
ATOM      1  C   UNL     1      47.612   4.797  15.058  0.00  0.00    +0.000 C 
ENDROOT
BRANCH   1   2
ATOM      2  C   UNL     1      46.731   4.746  13.813  0.00  0.00    +0.000 A 
ATOM      3  C   UNL     1      46.337   3.497  13.308  0.00  0.00    +0.000 A 
ATOM      4  C   UNL     1      45.457   3.408  12.229  0.00  0.00    +0.000 A 
ATOM      5  C   UNL     1      44.946   4.557  11.605  0.00  0.00    +0.000 A 
ATOM      6  C   UNL     1      45.412   5.804  12.046  0.00  0.00    +0.000 A 
ATOM      7 CL   UNL     1      44.916   7.277  11.289  0.00  0.00    +0.000 Cl
ATOM      8  C   UNL     1      46.293   5.897  13.136  0.00  0.00    +0.000 A 
BRANCH   5   9
ATOM      9  C   UNL     1      43.910   4.389  10.520  0.00  0.00    +0.000 C 
BRANCH   9  10
ATOM     10  N   UNL     1      44.366   3.550   9.433  0.00  0.00    +0.000 N 
ATOM     11  C   UNL     1      45.270   4.002   8.497  0.00  0.00    +0.000 C 
ATOM     12  O   UNL     1      45.752   5.131   8.534  0.00  0.00    +0.000 OA
ATOM     13  H   UNL     1      44.029   2.598   9.399  0.00  0.00    +0.000 HD
BRANCH  11  14
ATOM     14  C   UNL     1      45.661   2.964   7.459  0.00  0.00    +0.000 C 
ATOM     15  C   UNL     1      46.758   3.444   6.520  0.00  0.00    +0.000 C 
ATOM     16  C   UNL     1      47.478   2.168   6.142  0.00  0.00    +0.000 C 
ATOM     17  N   UNL     1      47.492   1.378   7.371  0.00  0.00    +0.000 NA
ATOM     18  C   UNL     1      46.232   1.684   8.075  0.00  0.00    +0.000 C 
ATOM     19  H   UNL     1      48.264   1.697   7.960  0.00  0.00    +0.000 HD
ENDBRANCH  11  14
ENDBRANCH   9  10
ENDBRANCH   5   9
ENDBRANCH   1   2
BRANCH   1  20
ATOM     20  N   UNL     1      47.856   6.176  15.440  0.00  0.00    +0.000 N 
ATOM     21  C   UNL     1      49.037   6.540  16.036  0.00  0.00    +0.000 C 
ATOM     22  O   UNL     1      49.922   5.712  16.235  0.00  0.00    +0.000 OA
ATOM     23  H   UNL     1      47.085   6.831  15.368  0.00  0.00    +0.000 HD
BRANCH  21  24
ATOM     24  C   UNL     1      49.217   7.953  16.398  0.00  0.00    +0.000 A 
ATOM     25  C   UNL     1      48.618   8.432  17.558  0.00  0.00    +0.000 A 
ATOM     26  S   UNL     1      48.949  10.073  17.880  0.00  0.00    +0.000 S 
ATOM     27  C   UNL     1      49.892  10.213  16.473  0.00  0.00    +0.000 A 
ATOM     28  N   UNL     1      50.483  11.394  16.150  0.00  0.00    +0.000 NA
ATOM     29  C   UNL     1      51.166  11.369  15.056  0.00  0.00    +0.000 A 
ATOM     30  N   UNL     1      51.313  10.266  14.255  0.00  0.00    +0.000 N 
ATOM     31  C   UNL     1      50.728   9.054  14.535  0.00  0.00    +0.000 A 
ATOM     32  O   UNL     1      50.860   8.094  13.782  0.00  0.00    +0.000 OA
ATOM     33  C   UNL     1      49.952   9.025  15.763  0.00  0.00    +0.000 A 
ATOM     34  H   UNL     1      51.854  10.319  13.405  0.00  0.00    +0.000 HD
ENDBRANCH  21  24
ENDBRANCH   1  20
BRANCH   1  36
ATOM     35  N   UNL     1      46.682   3.362  17.081  0.00  0.00    +0.000 NA
ATOM     36  C   UNL     1      47.079   3.992  16.187  0.00  0.00    +0.000 C 
ENDBRANCH   1  36
TORSDOF 7
ENDMDL
MODEL 4
REMARK VINA RESULT:    -7.320      2.503      3.907
REMARK INTER + INTRA:         -11.632
REMARK INTER:                 -10.181
REMARK INTRA:                  -1.450
REMARK UNBOUND:                -1.316
REMARK  Name = 
REMARK  7 active torsions:
REMARK  status: ('A' for Active; 'I' for Inactive)
REMARK    1  A    between atoms: C_2  and  C_3
REMARK    2  A    between atoms: C_3  and  N_4
REMARK    3  A    between atoms: C_3  and  C_17
REMARK    4  A    between atoms: C_5  and  C_7
REMARK    5  A    between atoms: C_20  and  C_21
REMARK    6  A    between atoms: C_21  and  N_22
REMARK    7  A    between atoms: C_23  and  C_25
REMARK                            x       y       z     vdW  Elec       q    Type
REMARK                         _______ _______ _______ _____ _____    ______ ____
ROOT
ATOM      1  C   UNL     1      49.282   8.471  13.740  0.00  0.00    +0.000 C 
ENDROOT
BRANCH   1   2
ATOM      2  C   UNL     1      48.038   8.032  12.974  0.00  0.00    +0.000 A 
ATOM      3  C   UNL     1      47.945   6.704  12.529  0.00  0.00    +0.000 A 
ATOM      4  C   UNL     1      46.786   6.237  11.908  0.00  0.00    +0.000 A 
ATOM      5  C   UNL     1      45.682   7.077  11.694  0.00  0.00    +0.000 A 
ATOM      6  C   UNL     1      45.808   8.428  12.050  0.00  0.00    +0.000 A 
ATOM      7 CL   UNL     1      44.543   9.567  11.749  0.00  0.00    +0.000 Cl
ATOM      8  C   UNL     1      46.971   8.899  12.682  0.00  0.00    +0.000 A 
BRANCH   5   9
ATOM      9  C   UNL     1      44.420   6.479  11.122  0.00  0.00    +0.000 C 
BRANCH   9  10
ATOM     10  N   UNL     1      44.677   5.554  10.040  0.00  0.00    +0.000 N 
ATOM     11  C   UNL     1      44.124   4.292  10.017  0.00  0.00    +0.000 C 
ATOM     12  O   UNL     1      43.374   3.882  10.898  0.00  0.00    +0.000 OA
ATOM     13  H   UNL     1      45.250   5.874   9.271  0.00  0.00    +0.000 HD
BRANCH  11  14
ATOM     14  C   UNL     1      44.475   3.483   8.779  0.00  0.00    +0.000 C 
ATOM     15  C   UNL     1      45.709   4.003   8.058  0.00  0.00    +0.000 C 
ATOM     16  C   UNL     1      46.291   2.761   7.419  0.00  0.00    +0.000 C 
ATOM     17  N   UNL     1      46.084   1.708   8.412  0.00  0.00    +0.000 NA
ATOM     18  C   UNL     1      44.813   2.022   9.092  0.00  0.00    +0.000 C 
ATOM     19  H   UNL     1      46.830   1.759   9.107  0.00  0.00    +0.000 HD
ENDBRANCH  11  14
ENDBRANCH   9  10
ENDBRANCH   5   9
ENDBRANCH   1   2
BRANCH   1  20
ATOM     20  N   UNL     1      49.443   7.662  14.935  0.00  0.00    +0.000 N 
ATOM     21  C   UNL     1      48.866   8.040  16.121  0.00  0.00    +0.000 C 
ATOM     22  O   UNL     1      48.180   9.056  16.190  0.00  0.00    +0.000 OA
ATOM     23  H   UNL     1      50.092   6.884  14.896  0.00  0.00    +0.000 HD
BRANCH  21  24
ATOM     24  C   UNL     1      49.072   7.175  17.291  0.00  0.00    +0.000 A 
ATOM     25  C   UNL     1      49.627   7.721  18.443  0.00  0.00    +0.000 A 
ATOM     26  S   UNL     1      49.764   6.619  19.735  0.00  0.00    +0.000 S 
ATOM     27  C   UNL     1      49.102   5.362  18.801  0.00  0.00    +0.000 A 
ATOM     28  N   UNL     1      48.940   4.118  19.328  0.00  0.00    +0.000 NA
ATOM     29  C   UNL     1      48.432   3.255  18.515  0.00  0.00    +0.000 A 
ATOM     30  N   UNL     1      48.069   3.524  17.221  0.00  0.00    +0.000 N 
ATOM     31  C   UNL     1      48.221   4.762  16.642  0.00  0.00    +0.000 A 
ATOM     32  O   UNL     1      47.910   4.961  15.472  0.00  0.00    +0.000 OA
ATOM     33  C   UNL     1      48.783   5.775  17.518  0.00  0.00    +0.000 A 
ATOM     34  H   UNL     1      47.687   2.797  16.634  0.00  0.00    +0.000 HD
ENDBRANCH  21  24
ENDBRANCH   1  20
BRANCH   1  36
ATOM     35  N   UNL     1      51.484   8.480  12.269  0.00  0.00    +0.000 NA
ATOM     36  C   UNL     1      50.511   8.483  12.906  0.00  0.00    +0.000 C 
ENDBRANCH   1  36
TORSDOF 7
ENDMDL
MODEL 5
REMARK VINA RESULT:    -7.119      2.907      4.292
REMARK INTER + INTRA:         -11.349
REMARK INTER:                  -9.957
REMARK INTRA:                  -1.392
REMARK UNBOUND:                -1.316
REMARK  Name = 
REMARK  7 active torsions:
REMARK  status: ('A' for Active; 'I' for Inactive)
REMARK    1  A    between atoms: C_2  and  C_3
REMARK    2  A    between atoms: C_3  and  N_4
REMARK    3  A    between atoms: C_3  and  C_17
REMARK    4  A    between atoms: C_5  and  C_7
REMARK    5  A    between atoms: C_20  and  C_21
REMARK    6  A    between atoms: C_21  and  N_22
REMARK    7  A    between atoms: C_23  and  C_25
REMARK                            x       y       z     vdW  Elec       q    Type
REMARK                         _______ _______ _______ _____ _____    ______ ____
ROOT
ATOM      1  C   UNL     1      48.686   8.075  14.140  0.00  0.00    +0.000 C 
ENDROOT
BRANCH   1   2
ATOM      2  C   UNL     1      47.447   7.382  13.581  0.00  0.00    +0.000 A 
ATOM      3  C   UNL     1      46.414   8.164  13.042  0.00  0.00    +0.000 A 
ATOM      4  C   UNL     1      45.307   7.569  12.435  0.00  0.00    +0.000 A 
ATOM      5  C   UNL     1      45.182   6.173  12.355  0.00  0.00    +0.000 A 
ATOM      6  C   UNL     1      46.164   5.389  12.977  0.00  0.00    +0.000 A 
ATOM      7 CL   UNL     1      46.059   3.664  13.015  0.00  0.00    +0.000 Cl
ATOM      8  C   UNL     1      47.283   5.987  13.582  0.00  0.00    +0.000 A 
BRANCH   5   9
ATOM      9  C   UNL     1      44.018   5.596  11.585  0.00  0.00    +0.000 C 
BRANCH   9  10
ATOM     10  N   UNL     1      44.423   4.951  10.355  0.00  0.00    +0.000 N 
ATOM     11  C   UNL     1      44.097   3.641  10.081  0.00  0.00    +0.000 C 
ATOM     12  O   UNL     1      43.436   2.949  10.850  0.00  0.00    +0.000 OA
ATOM     13  H   UNL     1      44.926   5.505   9.675  0.00  0.00    +0.000 HD
BRANCH  11  14
ATOM     14  C   UNL     1      44.572   3.154   8.722  0.00  0.00    +0.000 C 
ATOM     15  C   UNL     1      45.680   4.016   8.134  0.00  0.00    +0.000 C 
ATOM     16  C   UNL     1      46.470   3.042   7.289  0.00  0.00    +0.000 C 
ATOM     17  N   UNL     1      46.475   1.804   8.065  0.00  0.00    +0.000 NA
ATOM     18  C   UNL     1      45.178   1.748   8.766  0.00  0.00    +0.000 C 
ATOM     19  H   UNL     1      47.210   1.861   8.773  0.00  0.00    +0.000 HD
ENDBRANCH  11  14
ENDBRANCH   9  10
ENDBRANCH   5   9
ENDBRANCH   1   2
BRANCH   1  20
ATOM     20  N   UNL     1      49.553   7.104  14.784  0.00  0.00    +0.000 N 
ATOM     21  C   UNL     1      50.146   7.383  15.989  0.00  0.00    +0.000 C 
ATOM     22  O   UNL     1      49.936   8.450  16.559  0.00  0.00    +0.000 OA
ATOM     23  H   UNL     1      49.802   6.272  14.261  0.00  0.00    +0.000 HD
BRANCH  21  24
ATOM     24  C   UNL     1      51.013   6.356  16.582  0.00  0.00    +0.000 A 
ATOM     25  C   UNL     1      52.346   6.661  16.832  0.00  0.00    +0.000 A 
ATOM     26  S   UNL     1      53.220   5.395  17.565  0.00  0.00    +0.000 S 
ATOM     27  C   UNL     1      51.855   4.381  17.562  0.00  0.00    +0.000 A 
ATOM     28  N   UNL     1      51.928   3.119  18.065  0.00  0.00    +0.000 NA
ATOM     29  C   UNL     1      50.826   2.453  17.999  0.00  0.00    +0.000 A 
ATOM     30  N   UNL     1      49.654   2.936  17.477  0.00  0.00    +0.000 N 
ATOM     31  C   UNL     1      49.534   4.200  16.951  0.00  0.00    +0.000 A 
ATOM     32  O   UNL     1      48.475   4.591  16.468  0.00  0.00    +0.000 OA
ATOM     33  C   UNL     1      50.747   4.998  17.007  0.00  0.00    +0.000 A 
ATOM     34  H   UNL     1      48.829   2.356  17.447  0.00  0.00    +0.000 HD
ENDBRANCH  21  24
ENDBRANCH   1  20
BRANCH   1  36
ATOM     35  N   UNL     1      49.990   9.499  12.328  0.00  0.00    +0.000 NA
ATOM     36  C   UNL     1      49.412   8.885  13.129  0.00  0.00    +0.000 C 
ENDBRANCH   1  36
TORSDOF 7
ENDMDL
MODEL 6
REMARK VINA RESULT:    -6.716      4.526      8.917
REMARK INTER + INTRA:         -10.781
REMARK INTER:                  -9.548
REMARK INTRA:                  -1.232
REMARK UNBOUND:                -1.316
REMARK  Name = 
REMARK  7 active torsions:
REMARK  status: ('A' for Active; 'I' for Inactive)
REMARK    1  A    between atoms: C_2  and  C_3
REMARK    2  A    between atoms: C_3  and  N_4
REMARK    3  A    between atoms: C_3  and  C_17
REMARK    4  A    between atoms: C_5  and  C_7
REMARK    5  A    between atoms: C_20  and  C_21
REMARK    6  A    between atoms: C_21  and  N_22
REMARK    7  A    between atoms: C_23  and  C_25
REMARK                            x       y       z     vdW  Elec       q    Type
REMARK                         _______ _______ _______ _____ _____    ______ ____
ROOT
ATOM      1  C   UNL     1      48.466   7.167  14.318  0.00  0.00    +0.000 C 
ENDROOT
BRANCH   1   2
ATOM      2  C   UNL     1      48.890   6.364  15.544  0.00  0.00    +0.000 A 
ATOM      3  C   UNL     1      48.081   5.302  15.978  0.00  0.00    +0.000 A 
ATOM      4  C   UNL     1      48.479   4.484  17.036  0.00  0.00    +0.000 A 
ATOM      5  C   UNL     1      49.691   4.700  17.710  0.00  0.00    +0.000 A 
ATOM      6  C   UNL     1      50.456   5.818  17.343  0.00  0.00    +0.000 A 
ATOM      7 CL   UNL     1      51.919   6.226  18.168  0.00  0.00    +0.000 Cl
ATOM      8  C   UNL     1      50.060   6.638  16.273  0.00  0.00    +0.000 A 
BRANCH   5   9
ATOM      9  C   UNL     1      50.115   3.710  18.768  0.00  0.00    +0.000 C 
BRANCH   9  10
ATOM     10  N   UNL     1      51.402   3.110  18.492  0.00  0.00    +0.000 N 
ATOM     11  C   UNL     1      51.534   2.031  17.645  0.00  0.00    +0.000 C 
ATOM     12  O   UNL     1      50.577   1.524  17.066  0.00  0.00    +0.000 OA
ATOM     13  H   UNL     1      52.220   3.532  18.912  0.00  0.00    +0.000 HD
BRANCH  11  14
ATOM     14  C   UNL     1      52.967   1.569  17.445  0.00  0.00    +0.000 C 
ATOM     15  C   UNL     1      53.986   2.487  18.106  0.00  0.00    +0.000 C 
ATOM     16  C   UNL     1      55.127   1.554  18.448  0.00  0.00    +0.000 C 
ATOM     17  N   UNL     1      54.475   0.318  18.873  0.00  0.00    +0.000 NA
ATOM     18  C   UNL     1      53.248   0.196  18.063  0.00  0.00    +0.000 C 
ATOM     19  H   UNL     1      54.194   0.412  19.851  0.00  0.00    +0.000 HD
ENDBRANCH  11  14
ENDBRANCH   9  10
ENDBRANCH   5   9
ENDBRANCH   1   2
BRANCH   1  20
ATOM     20  N   UNL     1      47.185   6.690  13.829  0.00  0.00    +0.000 N 
ATOM     21  C   UNL     1      46.913   6.666  12.485  0.00  0.00    +0.000 C 
ATOM     22  O   UNL     1      47.757   7.023  11.667  0.00  0.00    +0.000 OA
ATOM     23  H   UNL     1      46.460   6.496  14.511  0.00  0.00    +0.000 HD
BRANCH  21  24
ATOM     24  C   UNL     1      45.595   6.173  12.059  0.00  0.00    +0.000 A 
ATOM     25  C   UNL     1      44.706   7.059  11.462  0.00  0.00    +0.000 A 
ATOM     26  S   UNL     1      43.237   6.343  10.976  0.00  0.00    +0.000 S 
ATOM     27  C   UNL     1      43.726   4.823  11.560  0.00  0.00    +0.000 A 
ATOM     28  N   UNL     1      42.906   3.743  11.452  0.00  0.00    +0.000 NA
ATOM     29  C   UNL     1      43.392   2.651  11.937  0.00  0.00    +0.000 A 
ATOM     30  N   UNL     1      44.627   2.541  12.520  0.00  0.00    +0.000 N 
ATOM     31  C   UNL     1      45.487   3.605  12.660  0.00  0.00    +0.000 A 
ATOM     32  O   UNL     1      46.576   3.476  13.211  0.00  0.00    +0.000 OA
ATOM     33  C   UNL     1      44.991   4.860  12.122  0.00  0.00    +0.000 A 
ATOM     34  H   UNL     1      44.942   1.657  12.891  0.00  0.00    +0.000 HD
ENDBRANCH  21  24
ENDBRANCH   1  20
BRANCH   1  36
ATOM     35  N   UNL     1      48.473   9.779  14.751  0.00  0.00    +0.000 NA
ATOM     36  C   UNL     1      48.462   8.634  14.551  0.00  0.00    +0.000 C 
ENDBRANCH   1  36
TORSDOF 7
ENDMDL
MODEL 7
REMARK VINA RESULT:    -6.701      3.644      5.640
REMARK INTER + INTRA:         -10.759
REMARK INTER:                  -9.638
REMARK INTRA:                  -1.121
REMARK UNBOUND:                -1.316
REMARK  Name = 
REMARK  7 active torsions:
REMARK  status: ('A' for Active; 'I' for Inactive)
REMARK    1  A    between atoms: C_2  and  C_3
REMARK    2  A    between atoms: C_3  and  N_4
REMARK    3  A    between atoms: C_3  and  C_17
REMARK    4  A    between atoms: C_5  and  C_7
REMARK    5  A    between atoms: C_20  and  C_21
REMARK    6  A    between atoms: C_21  and  N_22
REMARK    7  A    between atoms: C_23  and  C_25
REMARK                            x       y       z     vdW  Elec       q    Type
REMARK                         _______ _______ _______ _____ _____    ______ ____
ROOT
ATOM      1  C   UNL     1      48.964   6.817  16.876  0.00  0.00    +0.000 C 
ENDROOT
BRANCH   1   2
ATOM      2  C   UNL     1      48.618   6.756  15.391  0.00  0.00    +0.000 A 
ATOM      3  C   UNL     1      47.733   5.766  14.937  0.00  0.00    +0.000 A 
ATOM      4  C   UNL     1      47.317   5.733  13.606  0.00  0.00    +0.000 A 
ATOM      5  C   UNL     1      47.776   6.677  12.674  0.00  0.00    +0.000 A 
ATOM      6  C   UNL     1      48.734   7.608  13.101  0.00  0.00    +0.000 A 
ATOM      7 CL   UNL     1      49.431   8.756  12.013  0.00  0.00    +0.000 Cl
ATOM      8  C   UNL     1      49.148   7.648  14.443  0.00  0.00    +0.000 A 
BRANCH   5   9
ATOM      9  C   UNL     1      47.198   6.655  11.279  0.00  0.00    +0.000 C 
BRANCH   9  10
ATOM     10  N   UNL     1      46.016   5.827  11.175  0.00  0.00    +0.000 N 
ATOM     11  C   UNL     1      45.585   5.326   9.965  0.00  0.00    +0.000 C 
ATOM     12  O   UNL     1      46.180   5.537   8.912  0.00  0.00    +0.000 OA
ATOM     13  H   UNL     1      45.528   5.590  12.028  0.00  0.00    +0.000 HD
BRANCH  11  14
ATOM     14  C   UNL     1      44.352   4.443  10.063  0.00  0.00    +0.000 C 
ATOM     15  C   UNL     1      44.612   3.137  10.800  0.00  0.00    +0.000 C 
ATOM     16  C   UNL     1      43.271   2.814  11.422  0.00  0.00    +0.000 C 
ATOM     17  N   UNL     1      42.741   4.110  11.843  0.00  0.00    +0.000 NA
ATOM     18  C   UNL     1      43.208   5.093  10.846  0.00  0.00    +0.000 C 
ATOM     19  H   UNL     1      43.153   4.359  12.743  0.00  0.00    +0.000 HD
ENDBRANCH  11  14
ENDBRANCH   9  10
ENDBRANCH   5   9
ENDBRANCH   1   2
BRANCH   1  20
ATOM     20  N   UNL     1      50.184   6.073  17.134  0.00  0.00    +0.000 N 
ATOM     21  C   UNL     1      50.166   4.947  17.916  0.00  0.00    +0.000 C 
ATOM     22  O   UNL     1      49.114   4.530  18.393  0.00  0.00    +0.000 OA
ATOM     23  H   UNL     1      51.061   6.478  16.824  0.00  0.00    +0.000 HD
BRANCH  21  24
ATOM     24  C   UNL     1      51.437   4.243  18.138  0.00  0.00    +0.000 A 
ATOM     25  C   UNL     1      52.479   4.917  18.764  0.00  0.00    +0.000 A 
ATOM     26  S   UNL     1      53.875   3.968  18.999  0.00  0.00    +0.000 S 
ATOM     27  C   UNL     1      53.148   2.623  18.257  0.00  0.00    +0.000 A 
ATOM     28  N   UNL     1      53.826   1.450  18.131  0.00  0.00    +0.000 NA
ATOM     29  C   UNL     1      53.164   0.510  17.546  0.00  0.00    +0.000 A 
ATOM     30  N   UNL     1      51.883   0.635  17.077  0.00  0.00    +0.000 N 
ATOM     31  C   UNL     1      51.161   1.802  17.173  0.00  0.00    +0.000 A 
ATOM     32  O   UNL     1      50.024   1.887  16.718  0.00  0.00    +0.000 OA
ATOM     33  C   UNL     1      51.858   2.893  17.832  0.00  0.00    +0.000 A 
ATOM     34  H   UNL     1      51.427  -0.139  16.618  0.00  0.00    +0.000 HD
ENDBRANCH  21  24
ENDBRANCH   1  20
BRANCH   1  36
ATOM     35  N   UNL     1      49.077   9.282  17.836  0.00  0.00    +0.000 NA
ATOM     36  C   UNL     1      49.035   8.203  17.405  0.00  0.00    +0.000 C 
ENDBRANCH   1  36
TORSDOF 7
ENDMDL
MODEL 8
REMARK VINA RESULT:    -6.603      3.163      3.989
REMARK INTER + INTRA:         -10.622
REMARK INTER:                  -9.609
REMARK INTRA:                  -1.012
REMARK UNBOUND:                -1.316
REMARK  Name = 
REMARK  7 active torsions:
REMARK  status: ('A' for Active; 'I' for Inactive)
REMARK    1  A    between atoms: C_2  and  C_3
REMARK    2  A    between atoms: C_3  and  N_4
REMARK    3  A    between atoms: C_3  and  C_17
REMARK    4  A    between atoms: C_5  and  C_7
REMARK    5  A    between atoms: C_20  and  C_21
REMARK    6  A    between atoms: C_21  and  N_22
REMARK    7  A    between atoms: C_23  and  C_25
REMARK                            x       y       z     vdW  Elec       q    Type
REMARK                         _______ _______ _______ _____ _____    ______ ____
ROOT
ATOM      1  C   UNL     1      46.276   8.063  13.034  0.00  0.00    +0.000 C 
ENDROOT
BRANCH   1   2
ATOM      2  C   UNL     1      45.716   6.841  12.311  0.00  0.00    +0.000 A 
ATOM      3  C   UNL     1      46.058   6.627  10.967  0.00  0.00    +0.000 A 
ATOM      4  C   UNL     1      45.645   5.475  10.298  0.00  0.00    +0.000 A 
ATOM      5  C   UNL     1      44.864   4.499  10.937  0.00  0.00    +0.000 A 
ATOM      6  C   UNL     1      44.439   4.755  12.249  0.00  0.00    +0.000 A 
ATOM      7 CL   UNL     1      43.402   3.662  13.096  0.00  0.00    +0.000 Cl
ATOM      8  C   UNL     1      44.860   5.911  12.927  0.00  0.00    +0.000 A 
BRANCH   5   9
ATOM      9  C   UNL     1      44.548   3.225  10.192  0.00  0.00    +0.000 C 
BRANCH   9  10
ATOM     10  N   UNL     1      45.242   3.128   8.926  0.00  0.00    +0.000 N 
ATOM     11  C   UNL     1      45.576   1.911   8.372  0.00  0.00    +0.000 C 
ATOM     12  O   UNL     1      45.296   0.842   8.906  0.00  0.00    +0.000 OA
ATOM     13  H   UNL     1      45.446   3.987   8.432  0.00  0.00    +0.000 HD
BRANCH  11  14
ATOM     14  C   UNL     1      46.262   2.012   7.019  0.00  0.00    +0.000 C 
ATOM     15  C   UNL     1      46.368   3.442   6.511  0.00  0.00    +0.000 C 
ATOM     16  C   UNL     1      47.624   3.421   5.667  0.00  0.00    +0.000 C 
ATOM     17  N   UNL     1      48.542   2.551   6.400  0.00  0.00    +0.000 NA
ATOM     18  C   UNL     1      47.710   1.515   7.041  0.00  0.00    +0.000 C 
ATOM     19  H   UNL     1      48.990   3.093   7.142  0.00  0.00    +0.000 HD
ENDBRANCH  11  14
ENDBRANCH   9  10
ENDBRANCH   5   9
ENDBRANCH   1   2
BRANCH   1  20
ATOM     20  N   UNL     1      47.708   7.916  13.224  0.00  0.00    +0.000 N 
ATOM     21  C   UNL     1      48.335   8.497  14.297  0.00  0.00    +0.000 C 
ATOM     22  O   UNL     1      47.694   9.130  15.132  0.00  0.00    +0.000 OA
ATOM     23  H   UNL     1      48.243   7.482  12.480  0.00  0.00    +0.000 HD
BRANCH  21  24
ATOM     24  C   UNL     1      49.787   8.310  14.428  0.00  0.00    +0.000 A 
ATOM     25  C   UNL     1      50.638   9.068  13.631  0.00  0.00    +0.000 A 
ATOM     26  S   UNL     1      52.293   8.784  13.920  0.00  0.00    +0.000 S 
ATOM     27  C   UNL     1      51.938   7.623  15.111  0.00  0.00    +0.000 A 
ATOM     28  N   UNL     1      52.938   6.978  15.770  0.00  0.00    +0.000 NA
ATOM     29  C   UNL     1      52.536   6.119  16.644  0.00  0.00    +0.000 A 
ATOM     30  N   UNL     1      51.222   5.847  16.921  0.00  0.00    +0.000 N 
ATOM     31  C   UNL     1      50.177   6.466  16.276  0.00  0.00    +0.000 A 
ATOM     32  O   UNL     1      49.011   6.179  16.530  0.00  0.00    +0.000 OA
ATOM     33  C   UNL     1      50.575   7.450  15.284  0.00  0.00    +0.000 A 
ATOM     34  H   UNL     1      50.976   5.153  17.611  0.00  0.00    +0.000 HD
ENDBRANCH  21  24
ENDBRANCH   1  20
BRANCH   1  36
ATOM     35  N   UNL     1      45.669  10.342  11.830  0.00  0.00    +0.000 NA
ATOM     36  C   UNL     1      45.931   9.345  12.370  0.00  0.00    +0.000 C 
ENDBRANCH   1  36
TORSDOF 7
ENDMDL
MODEL 9
REMARK VINA RESULT:    -6.596      4.008      5.295
REMARK INTER + INTRA:         -10.611
REMARK INTER:                  -9.374
REMARK INTRA:                  -1.238
REMARK UNBOUND:                -1.316
REMARK  Name = 
REMARK  7 active torsions:
REMARK  status: ('A' for Active; 'I' for Inactive)
REMARK    1  A    between atoms: C_2  and  C_3
REMARK    2  A    between atoms: C_3  and  N_4
REMARK    3  A    between atoms: C_3  and  C_17
REMARK    4  A    between atoms: C_5  and  C_7
REMARK    5  A    between atoms: C_20  and  C_21
REMARK    6  A    between atoms: C_21  and  N_22
REMARK    7  A    between atoms: C_23  and  C_25
REMARK                            x       y       z     vdW  Elec       q    Type
REMARK                         _______ _______ _______ _____ _____    ______ ____
ROOT
ATOM      1  C   UNL     1      48.398   5.153  17.088  0.00  0.00    +0.000 C 
ENDROOT
BRANCH   1   2
ATOM      2  C   UNL     1      48.066   5.541  15.650  0.00  0.00    +0.000 A 
ATOM      3  C   UNL     1      47.151   4.759  14.927  0.00  0.00    +0.000 A 
ATOM      4  C   UNL     1      46.749   5.132  13.644  0.00  0.00    +0.000 A 
ATOM      5  C   UNL     1      47.251   6.289  13.028  0.00  0.00    +0.000 A 
ATOM      6  C   UNL     1      48.236   7.019  13.708  0.00  0.00    +0.000 A 
ATOM      7 CL   UNL     1      48.985   8.408  13.003  0.00  0.00    +0.000 Cl
ATOM      8  C   UNL     1      48.637   6.650  15.003  0.00  0.00    +0.000 A 
BRANCH   5   9
ATOM      9  C   UNL     1      46.687   6.695  11.688  0.00  0.00    +0.000 C 
BRANCH   9  10
ATOM     10  N   UNL     1      45.923   5.641  11.057  0.00  0.00    +0.000 N 
ATOM     11  C   UNL     1      44.547   5.683  10.989  0.00  0.00    +0.000 C 
ATOM     12  O   UNL     1      43.890   6.615  11.444  0.00  0.00    +0.000 OA
ATOM     13  H   UNL     1      46.432   4.881  10.627  0.00  0.00    +0.000 HD
BRANCH  11  14
ATOM     14  C   UNL     1      43.926   4.509  10.251  0.00  0.00    +0.000 C 
ATOM     15  C   UNL     1      44.738   4.069   9.042  0.00  0.00    +0.000 C 
ATOM     16  C   UNL     1      44.438   2.589   8.939  0.00  0.00    +0.000 C 
ATOM     17  N   UNL     1      44.383   2.130  10.325  0.00  0.00    +0.000 NA
ATOM     18  C   UNL     1      43.821   3.246  11.110  0.00  0.00    +0.000 C 
ATOM     19  H   UNL     1      45.335   1.963  10.656  0.00  0.00    +0.000 HD
ENDBRANCH  11  14
ENDBRANCH   9  10
ENDBRANCH   5   9
ENDBRANCH   1   2
BRANCH   1  20
ATOM     20  N   UNL     1      49.713   4.540  17.147  0.00  0.00    +0.000 N 
ATOM     21  C   UNL     1      49.882   3.294  17.695  0.00  0.00    +0.000 C 
ATOM     22  O   UNL     1      48.920   2.661  18.123  0.00  0.00    +0.000 OA
ATOM     23  H   UNL     1      50.513   5.108  16.888  0.00  0.00    +0.000 HD
BRANCH  21  24
ATOM     24  C   UNL     1      51.240   2.735  17.725  0.00  0.00    +0.000 A 
ATOM     25  C   UNL     1      51.423   1.393  17.411  0.00  0.00    +0.000 A 
ATOM     26  S   UNL     1      53.051   0.891  17.439  0.00  0.00    +0.000 S 
ATOM     27  C   UNL     1      53.576   2.444  17.889  0.00  0.00    +0.000 A 
ATOM     28  N   UNL     1      54.898   2.700  18.082  0.00  0.00    +0.000 NA
ATOM     29  C   UNL     1      55.163   3.915  18.425  0.00  0.00    +0.000 A 
ATOM     30  N   UNL     1      54.225   4.899  18.591  0.00  0.00    +0.000 N 
ATOM     31  C   UNL     1      52.878   4.687  18.415  0.00  0.00    +0.000 A 
ATOM     32  O   UNL     1      52.062   5.586  18.598  0.00  0.00    +0.000 OA
ATOM     33  C   UNL     1      52.524   3.335  18.020  0.00  0.00    +0.000 A 
ATOM     34  H   UNL     1      54.500   5.828  18.872  0.00  0.00    +0.000 HD
ENDBRANCH  21  24
ENDBRANCH   1  20
BRANCH   1  36
ATOM     35  N   UNL     1      48.164   7.150  18.811  0.00  0.00    +0.000 NA
ATOM     36  C   UNL     1      48.266   6.281  18.045  0.00  0.00    +0.000 C 
ENDBRANCH   1  36
TORSDOF 7
ENDMDL
