MODEL 1
REMARK VINA RESULT:    -7.901      0.000      0.000
REMARK INTER + INTRA:         -11.676
REMARK INTER:                 -10.672
REMARK INTRA:                  -1.004
REMARK UNBOUND:                -1.004
REMARK  Name = 
REMARK  6 active torsions:
REMARK  status: ('A' for Active; 'I' for Inactive)
REMARK    1  A    between atoms: C_2  and  C_25
REMARK    2  A    between atoms: N_3  and  C_4
REMARK    3  A    between atoms: C_4  and  C_5
REMARK    4  A    between atoms: C_8  and  C_9
REMARK    5  A    between atoms: C_9  and  N_10
REMARK    6  A    between atoms: C_11  and  C_13
REMARK                            x       y       z     vdW  Elec       q    Type
REMARK                         _______ _______ _______ _____ _____    ______ ____
ROOT
ATOM      1  C   UNL     1      45.294   6.673  11.570  0.00  0.00    +0.000 A 
ATOM      2  C   UNL     1      44.871   7.944  11.986  0.00  0.00    +0.000 A 
ATOM      3  C   UNL     1      45.641   8.693  12.883  0.00  0.00    +0.000 A 
ATOM      4  C   UNL     1      46.858   8.197  13.366  0.00  0.00    +0.000 A 
ATOM      5  C   UNL     1      47.280   6.927  12.950  0.00  0.00    +0.000 A 
ATOM      6  C   UNL     1      46.511   6.178  12.054  0.00  0.00    +0.000 A 
ENDROOT
BRANCH   1   7
ATOM      7  C   UNL     1      44.448   5.845  10.641  0.00  0.00    +0.000 C 
BRANCH   7  10
ATOM      8  O   UNL     1      43.947   3.221   9.830  0.00  0.00    +0.000 OA
ATOM      9  C   UNL     1      44.882   3.830   9.321  0.00  0.00    +0.000 C 
ATOM     10  N   UNL     1      45.224   5.121   9.667  0.00  0.00    +0.000 N 
ATOM     11  H   UNL     1      46.012   5.552   9.193  0.00  0.00    +0.000 HD
BRANCH   9  12
ATOM     12  C   UNL     1      45.724   3.198   8.254  0.00  0.00    +0.000 A 
ATOM     13  C   UNL     1      46.083   1.856   8.374  0.00  0.00    +0.000 A 
ATOM     14  C   UNL     1      46.843   1.276   7.360  0.00  0.00    +0.000 A 
ATOM     15  C   UNL     1      47.211   2.055   6.274  0.00  0.00    +0.000 A 
ATOM     16  F   UNL     1      47.936   1.527   5.281  0.00  0.00    +0.000 F 
ATOM     17  C   UNL     1      46.818   3.384   6.233  0.00  0.00    +0.000 A 
ATOM     18  N   UNL     1      46.077   3.986   7.198  0.00  0.00    +0.000 NA
ENDBRANCH   9  12
ENDBRANCH   7  10
ENDBRANCH   1   7
BRANCH   4  19
ATOM     19  C   UNL     1      47.684   8.984  14.352  0.00  0.00    +0.000 C 
BRANCH  19  20
ATOM     20  N   UNL     1      47.942   8.218  15.545  0.00  0.00    +0.000 N 
ATOM     21  C   UNL     1      49.220   7.884  15.913  0.00  0.00    +0.000 C 
ATOM     22  O   UNL     1      50.199   8.265  15.277  0.00  0.00    +0.000 OA
ATOM     23  H   UNL     1      47.157   7.712  15.946  0.00  0.00    +0.000 HD
BRANCH  21  24
ATOM     24  C   UNL     1      49.366   7.093  17.143  0.00  0.00    +0.000 A 
ATOM     25  C   UNL     1      50.009   7.645  18.242  0.00  0.00    +0.000 A 
ATOM     26  S   UNL     1      50.045   6.619  19.603  0.00  0.00    +0.000 S 
ATOM     27  C   UNL     1      49.247   5.376  18.756  0.00  0.00    +0.000 A 
ATOM     28  N   UNL     1      48.982   4.184  19.350  0.00  0.00    +0.000 NA
ATOM     29  C   UNL     1      48.404   3.321  18.583  0.00  0.00    +0.000 A 
ATOM     30  N   UNL     1      48.065   3.545  17.276  0.00  0.00    +0.000 N 
ATOM     31  C   UNL     1      48.287   4.744  16.641  0.00  0.00    +0.000 A 
ATOM     32  O   UNL     1      47.934   4.926  15.480  0.00  0.00    +0.000 OA
ATOM     33  C   UNL     1      48.944   5.748  17.457  0.00  0.00    +0.000 A 
ATOM     34  H   UNL     1      47.609   2.830  16.728  0.00  0.00    +0.000 HD
ENDBRANCH  21  24
ENDBRANCH  19  20
ENDBRANCH   4  19
TORSDOF 6
ENDMDL
MODEL 2
REMARK VINA RESULT:    -7.550      2.156      2.467
REMARK INTER + INTRA:         -11.202
REMARK INTER:                 -10.253
REMARK INTRA:                  -0.949
REMARK UNBOUND:                -1.004
REMARK  Name = 
REMARK  6 active torsions:
REMARK  status: ('A' for Active; 'I' for Inactive)
REMARK    1  A    between atoms: C_2  and  C_25
REMARK    2  A    between atoms: N_3  and  C_4
REMARK    3  A    between atoms: C_4  and  C_5
REMARK    4  A    between atoms: C_8  and  C_9
REMARK    5  A    between atoms: C_9  and  N_10
REMARK    6  A    between atoms: C_11  and  C_13
REMARK                            x       y       z     vdW  Elec       q    Type
REMARK                         _______ _______ _______ _____ _____    ______ ____
ROOT
ATOM      1  C   UNL     1      46.158   6.634  12.842  0.00  0.00    +0.000 A 
ATOM      2  C   UNL     1      46.932   5.686  13.527  0.00  0.00    +0.000 A 
ATOM      3  C   UNL     1      47.926   6.091  14.424  0.00  0.00    +0.000 A 
ATOM      4  C   UNL     1      48.153   7.451  14.670  0.00  0.00    +0.000 A 
ATOM      5  C   UNL     1      47.381   8.398  13.985  0.00  0.00    +0.000 A 
ATOM      6  C   UNL     1      46.386   7.993  13.090  0.00  0.00    +0.000 A 
ENDROOT
BRANCH   1   7
ATOM      7  C   UNL     1      45.118   6.204  11.843  0.00  0.00    +0.000 C 
BRANCH   7  10
ATOM      8  O   UNL     1      43.550   4.812   9.999  0.00  0.00    +0.000 OA
ATOM      9  C   UNL     1      44.766   4.647   9.987  0.00  0.00    +0.000 C 
ATOM     10  N   UNL     1      45.624   5.271  10.869  0.00  0.00    +0.000 N 
ATOM     11  H   UNL     1      46.618   5.080  10.787  0.00  0.00    +0.000 HD
BRANCH   9  12
ATOM     12  C   UNL     1      45.411   3.744   8.980  0.00  0.00    +0.000 A 
ATOM     13  C   UNL     1      45.377   2.365   9.179  0.00  0.00    +0.000 A 
ATOM     14  C   UNL     1      45.957   1.538   8.218  0.00  0.00    +0.000 A 
ATOM     15  C   UNL     1      46.546   2.120   7.106  0.00  0.00    +0.000 A 
ATOM     16  F   UNL     1      47.107   1.353   6.163  0.00  0.00    +0.000 F 
ATOM     17  C   UNL     1      46.543   3.501   6.985  0.00  0.00    +0.000 A 
ATOM     18  N   UNL     1      45.987   4.340   7.896  0.00  0.00    +0.000 NA
ENDBRANCH   9  12
ENDBRANCH   7  10
ENDBRANCH   1   7
BRANCH   4  19
ATOM     19  C   UNL     1      49.240   7.900  15.615  0.00  0.00    +0.000 C 
BRANCH  19  20
ATOM     20  N   UNL     1      50.098   6.801  15.982  0.00  0.00    +0.000 N 
ATOM     21  C   UNL     1      50.488   6.607  17.282  0.00  0.00    +0.000 C 
ATOM     22  O   UNL     1      50.084   7.322  18.195  0.00  0.00    +0.000 OA
ATOM     23  H   UNL     1      50.614   6.350  15.232  0.00  0.00    +0.000 HD
BRANCH  21  24
ATOM     24  C   UNL     1      51.371   5.461  17.541  0.00  0.00    +0.000 A 
ATOM     25  C   UNL     1      52.683   5.682  17.938  0.00  0.00    +0.000 A 
ATOM     26  S   UNL     1      53.555   4.251  18.250  0.00  0.00    +0.000 S 
ATOM     27  C   UNL     1      52.226   3.281  17.816  0.00  0.00    +0.000 A 
ATOM     28  N   UNL     1      52.313   1.925  17.839  0.00  0.00    +0.000 NA
ATOM     29  C   UNL     1      51.243   1.314  17.454  0.00  0.00    +0.000 A 
ATOM     30  N   UNL     1      50.092   1.937  17.050  0.00  0.00    +0.000 N 
ATOM     31  C   UNL     1      49.948   3.304  17.037  0.00  0.00    +0.000 A 
ATOM     32  O   UNL     1      48.890   3.831  16.708  0.00  0.00    +0.000 OA
ATOM     33  C   UNL     1      51.127   4.041  17.453  0.00  0.00    +0.000 A 
ATOM     34  H   UNL     1      49.285   1.402  16.764  0.00  0.00    +0.000 HD
ENDBRANCH  21  24
ENDBRANCH  19  20
ENDBRANCH   4  19
TORSDOF 6
ENDMDL
MODEL 3
REMARK VINA RESULT:    -6.972      4.186      9.134
REMARK INTER + INTRA:         -10.421
REMARK INTER:                  -9.469
REMARK INTRA:                  -0.952
REMARK UNBOUND:                -1.004
REMARK  Name = 
REMARK  6 active torsions:
REMARK  status: ('A' for Active; 'I' for Inactive)
REMARK    1  A    between atoms: C_2  and  C_25
REMARK    2  A    between atoms: N_3  and  C_4
REMARK    3  A    between atoms: C_4  and  C_5
REMARK    4  A    between atoms: C_8  and  C_9
REMARK    5  A    between atoms: C_9  and  N_10
REMARK    6  A    between atoms: C_11  and  C_13
REMARK                            x       y       z     vdW  Elec       q    Type
REMARK                         _______ _______ _______ _____ _____    ______ ____
ROOT
ATOM      1  C   UNL     1      50.120   7.120  15.637  0.00  0.00    +0.000 A 
ATOM      2  C   UNL     1      48.833   6.563  15.613  0.00  0.00    +0.000 A 
ATOM      3  C   UNL     1      48.010   6.719  14.493  0.00  0.00    +0.000 A 
ATOM      4  C   UNL     1      48.464   7.416  13.366  0.00  0.00    +0.000 A 
ATOM      5  C   UNL     1      49.749   7.972  13.390  0.00  0.00    +0.000 A 
ATOM      6  C   UNL     1      50.572   7.816  14.510  0.00  0.00    +0.000 A 
ENDROOT
BRANCH   1   7
ATOM      7  C   UNL     1      50.992   6.993  16.857  0.00  0.00    +0.000 C 
BRANCH   7  10
ATOM      8  O   UNL     1      50.003   4.923  18.448  0.00  0.00    +0.000 OA
ATOM      9  C   UNL     1      51.017   4.729  17.785  0.00  0.00    +0.000 C 
ATOM     10  N   UNL     1      51.596   5.692  16.986  0.00  0.00    +0.000 N 
ATOM     11  H   UNL     1      52.435   5.445  16.468  0.00  0.00    +0.000 HD
BRANCH   9  12
ATOM     12  C   UNL     1      51.699   3.394  17.795  0.00  0.00    +0.000 A 
ATOM     13  C   UNL     1      53.022   3.307  18.224  0.00  0.00    +0.000 A 
ATOM     14  C   UNL     1      53.633   2.055  18.253  0.00  0.00    +0.000 A 
ATOM     15  C   UNL     1      52.902   0.947  17.853  0.00  0.00    +0.000 A 
ATOM     16  F   UNL     1      53.457  -0.270  17.875  0.00  0.00    +0.000 F 
ATOM     17  C   UNL     1      51.591   1.119  17.434  0.00  0.00    +0.000 A 
ATOM     18  N   UNL     1      50.960   2.320  17.393  0.00  0.00    +0.000 NA
ENDBRANCH   9  12
ENDBRANCH   7  10
ENDBRANCH   1   7
BRANCH   4  19
ATOM     19  C   UNL     1      47.576   7.612  12.163  0.00  0.00    +0.000 C 
BRANCH  19  20
ATOM     20  N   UNL     1      46.888   6.393  11.818  0.00  0.00    +0.000 N 
ATOM     21  C   UNL     1      45.519   6.329  11.802  0.00  0.00    +0.000 C 
ATOM     22  O   UNL     1      44.820   7.314  12.027  0.00  0.00    +0.000 OA
ATOM     23  H   UNL     1      47.429   5.534  11.854  0.00  0.00    +0.000 HD
BRANCH  21  24
ATOM     24  C   UNL     1      44.923   5.034  11.446  0.00  0.00    +0.000 A 
ATOM     25  C   UNL     1      44.183   4.335  12.391  0.00  0.00    +0.000 A 
ATOM     26  S   UNL     1      43.517   2.881  11.802  0.00  0.00    +0.000 S 
ATOM     27  C   UNL     1      44.236   3.105  10.276  0.00  0.00    +0.000 A 
ATOM     28  N   UNL     1      44.079   2.186   9.287  0.00  0.00    +0.000 NA
ATOM     29  C   UNL     1      44.706   2.465   8.194  0.00  0.00    +0.000 A 
ATOM     30  N   UNL     1      45.475   3.582   7.999  0.00  0.00    +0.000 N 
ATOM     31  C   UNL     1      45.640   4.552   8.959  0.00  0.00    +0.000 A 
ATOM     32  O   UNL     1      46.302   5.560   8.739  0.00  0.00    +0.000 OA
ATOM     33  C   UNL     1      44.962   4.283  10.213  0.00  0.00    +0.000 A 
ATOM     34  H   UNL     1      45.937   3.746   7.116  0.00  0.00    +0.000 HD
ENDBRANCH  21  24
ENDBRANCH  19  20
ENDBRANCH   4  19
TORSDOF 6
ENDMDL
MODEL 4
REMARK VINA RESULT:    -6.906      2.186      2.718
REMARK INTER + INTRA:         -10.332
REMARK INTER:                  -9.421
REMARK INTRA:                  -0.911
REMARK UNBOUND:                -1.004
REMARK  Name = 
REMARK  6 active torsions:
REMARK  status: ('A' for Active; 'I' for Inactive)
REMARK    1  A    between atoms: C_2  and  C_25
REMARK    2  A    between atoms: N_3  and  C_4
REMARK    3  A    between atoms: C_4  and  C_5
REMARK    4  A    between atoms: C_8  and  C_9
REMARK    5  A    between atoms: C_9  and  N_10
REMARK    6  A    between atoms: C_11  and  C_13
REMARK                            x       y       z     vdW  Elec       q    Type
REMARK                         _______ _______ _______ _____ _____    ______ ____
ROOT
ATOM      1  C   UNL     1      44.813   6.215  11.576  0.00  0.00    +0.000 A 
ATOM      2  C   UNL     1      45.605   5.699  12.612  0.00  0.00    +0.000 A 
ATOM      3  C   UNL     1      46.364   6.553  13.420  0.00  0.00    +0.000 A 
ATOM      4  C   UNL     1      46.330   7.939  13.223  0.00  0.00    +0.000 A 
ATOM      5  C   UNL     1      45.539   8.453  12.189  0.00  0.00    +0.000 A 
ATOM      6  C   UNL     1      44.779   7.601  11.381  0.00  0.00    +0.000 A 
ENDROOT
BRANCH   1   7
ATOM      7  C   UNL     1      44.030   5.298  10.675  0.00  0.00    +0.000 C 
BRANCH   7  10
ATOM      8  O   UNL     1      44.220   2.553  10.201  0.00  0.00    +0.000 OA
ATOM      9  C   UNL     1      44.848   3.323   9.483  0.00  0.00    +0.000 C 
ATOM     10  N   UNL     1      44.837   4.693   9.647  0.00  0.00    +0.000 N 
ATOM     11  H   UNL     1      45.385   5.258   9.005  0.00  0.00    +0.000 HD
BRANCH   9  12
ATOM     12  C   UNL     1      45.677   2.811   8.344  0.00  0.00    +0.000 A 
ATOM     13  C   UNL     1      45.919   3.639   7.249  0.00  0.00    +0.000 A 
ATOM     14  C   UNL     1      46.714   3.158   6.211  0.00  0.00    +0.000 A 
ATOM     15  C   UNL     1      47.233   1.875   6.308  0.00  0.00    +0.000 A 
ATOM     16  F   UNL     1      48.005   1.385   5.331  0.00  0.00    +0.000 F 
ATOM     17  C   UNL     1      46.941   1.113   7.429  0.00  0.00    +0.000 A 
ATOM     18  N   UNL     1      46.173   1.545   8.461  0.00  0.00    +0.000 NA
ENDBRANCH   9  12
ENDBRANCH   7  10
ENDBRANCH   1   7
BRANCH   4  19
ATOM     19  C   UNL     1      47.164   8.866  14.072  0.00  0.00    +0.000 C 
BRANCH  19  20
ATOM     20  N   UNL     1      48.478   8.320  14.304  0.00  0.00    +0.000 N 
ATOM     21  C   UNL     1      49.442   9.042  14.961  0.00  0.00    +0.000 C 
ATOM     22  O   UNL     1      49.215  10.156  15.425  0.00  0.00    +0.000 OA
ATOM     23  H   UNL     1      48.748   7.518  13.743  0.00  0.00    +0.000 HD
BRANCH  21  24
ATOM     24  C   UNL     1      50.748   8.392  15.134  0.00  0.00    +0.000 A 
ATOM     25  C   UNL     1      51.847   8.862  14.428  0.00  0.00    +0.000 A 
ATOM     26  S   UNL     1      53.295   8.036  14.783  0.00  0.00    +0.000 S 
ATOM     27  C   UNL     1      52.496   6.983  15.856  0.00  0.00    +0.000 A 
ATOM     28  N   UNL     1      53.171   5.994  16.498  0.00  0.00    +0.000 NA
ATOM     29  C   UNL     1      52.436   5.249  17.254  0.00  0.00    +0.000 A 
ATOM     30  N   UNL     1      51.087   5.406  17.428  0.00  0.00    +0.000 N 
ATOM     31  C   UNL     1      50.367   6.408  16.822  0.00  0.00    +0.000 A 
ATOM     32  O   UNL     1      49.166   6.546  17.031  0.00  0.00    +0.000 OA
ATOM     33  C   UNL     1      51.145   7.270  15.953  0.00  0.00    +0.000 A 
ATOM     34  H   UNL     1      50.567   4.792  18.039  0.00  0.00    +0.000 HD
ENDBRANCH  21  24
ENDBRANCH  19  20
ENDBRANCH   4  19
TORSDOF 6
ENDMDL
MODEL 5
REMARK VINA RESULT:    -6.875      5.264      7.729
REMARK INTER + INTRA:         -10.291
REMARK INTER:                  -9.378
REMARK INTRA:                  -0.913
REMARK UNBOUND:                -1.004
REMARK  Name = 
REMARK  6 active torsions:
REMARK  status: ('A' for Active; 'I' for Inactive)
REMARK    1  A    between atoms: C_2  and  C_25
REMARK    2  A    between atoms: N_3  and  C_4
REMARK    3  A    between atoms: C_4  and  C_5
REMARK    4  A    between atoms: C_8  and  C_9
REMARK    5  A    between atoms: C_9  and  N_10
REMARK    6  A    between atoms: C_11  and  C_13
REMARK                            x       y       z     vdW  Elec       q    Type
REMARK                         _______ _______ _______ _____ _____    ______ ____
ROOT
ATOM      1  C   UNL     1      50.499   8.817  11.341  0.00  0.00    +0.000 A 
ATOM      2  C   UNL     1      50.126   7.551  11.815  0.00  0.00    +0.000 A 
ATOM      3  C   UNL     1      48.857   7.341  12.366  0.00  0.00    +0.000 A 
ATOM      4  C   UNL     1      47.928   8.387  12.436  0.00  0.00    +0.000 A 
ATOM      5  C   UNL     1      48.301   9.652  11.963  0.00  0.00    +0.000 A 
ATOM      6  C   UNL     1      49.569   9.862  11.412  0.00  0.00    +0.000 A 
ENDROOT
BRANCH   1   7
ATOM      7  C   UNL     1      51.878   9.058  10.789  0.00  0.00    +0.000 C 
BRANCH   7  10
ATOM      8  O   UNL     1      52.770   8.908   8.147  0.00  0.00    +0.000 OA
ATOM      9  C   UNL     1      52.881   7.921   8.867  0.00  0.00    +0.000 C 
ATOM     10  N   UNL     1      52.453   7.887  10.178  0.00  0.00    +0.000 N 
ATOM     11  H   UNL     1      52.586   7.028  10.704  0.00  0.00    +0.000 HD
BRANCH   9  12
ATOM     12  C   UNL     1      53.517   6.663   8.358  0.00  0.00    +0.000 A 
ATOM     13  C   UNL     1      52.917   5.973   7.305  0.00  0.00    +0.000 A 
ATOM     14  C   UNL     1      53.536   4.820   6.825  0.00  0.00    +0.000 A 
ATOM     15  C   UNL     1      54.722   4.406   7.413  0.00  0.00    +0.000 A 
ATOM     16  F   UNL     1      55.344   3.307   6.971  0.00  0.00    +0.000 F 
ATOM     17  C   UNL     1      55.251   5.146   8.459  0.00  0.00    +0.000 A 
ATOM     18  N   UNL     1      54.681   6.274   8.954  0.00  0.00    +0.000 NA
ENDBRANCH   9  12
ENDBRANCH   7  10
ENDBRANCH   1   7
BRANCH   4  19
ATOM     19  C   UNL     1      46.567   8.179  13.051  0.00  0.00    +0.000 C 
BRANCH  19  20
ATOM     20  N   UNL     1      46.053   6.867  12.746  0.00  0.00    +0.000 N 
ATOM     21  C   UNL     1      45.095   6.686  11.781  0.00  0.00    +0.000 C 
ATOM     22  O   UNL     1      44.674   7.618  11.101  0.00  0.00    +0.000 OA
ATOM     23  H   UNL     1      46.214   6.138  13.435  0.00  0.00    +0.000 HD
BRANCH  21  24
ATOM     24  C   UNL     1      44.636   5.308  11.560  0.00  0.00    +0.000 A 
ATOM     25  C   UNL     1      43.919   4.655  12.553  0.00  0.00    +0.000 A 
ATOM     26  S   UNL     1      43.414   3.086  12.117  0.00  0.00    +0.000 S 
ATOM     27  C   UNL     1      44.181   3.201  10.601  0.00  0.00    +0.000 A 
ATOM     28  N   UNL     1      44.152   2.165   9.723  0.00  0.00    +0.000 NA
ATOM     29  C   UNL     1      44.802   2.376   8.627  0.00  0.00    +0.000 A 
ATOM     30  N   UNL     1      45.475   3.531   8.330  0.00  0.00    +0.000 N 
ATOM     31  C   UNL     1      45.508   4.615   9.174  0.00  0.00    +0.000 A 
ATOM     32  O   UNL     1      46.086   5.650   8.860  0.00  0.00    +0.000 OA
ATOM     33  C   UNL     1      44.800   4.428  10.426  0.00  0.00    +0.000 A 
ATOM     34  H   UNL     1      45.962   3.636   7.451  0.00  0.00    +0.000 HD
ENDBRANCH  21  24
ENDBRANCH  19  20
ENDBRANCH   4  19
TORSDOF 6
ENDMDL
MODEL 6
REMARK VINA RESULT:    -6.669      3.168      4.348
REMARK INTER + INTRA:         -10.013
REMARK INTER:                  -9.052
REMARK INTRA:                  -0.961
REMARK UNBOUND:                -1.004
REMARK  Name = 
REMARK  6 active torsions:
REMARK  status: ('A' for Active; 'I' for Inactive)
REMARK    1  A    between atoms: C_2  and  C_25
REMARK    2  A    between atoms: N_3  and  C_4
REMARK    3  A    between atoms: C_4  and  C_5
REMARK    4  A    between atoms: C_8  and  C_9
REMARK    5  A    between atoms: C_9  and  N_10
REMARK    6  A    between atoms: C_11  and  C_13
REMARK                            x       y       z     vdW  Elec       q    Type
REMARK                         _______ _______ _______ _____ _____    ______ ____
ROOT
ATOM      1  C   UNL     1      44.847   6.190  11.610  0.00  0.00    +0.000 A 
ATOM      2  C   UNL     1      45.774   5.668  12.524  0.00  0.00    +0.000 A 
ATOM      3  C   UNL     1      46.547   6.520  13.320  0.00  0.00    +0.000 A 
ATOM      4  C   UNL     1      46.393   7.910  13.235  0.00  0.00    +0.000 A 
ATOM      5  C   UNL     1      45.467   8.431  12.323  0.00  0.00    +0.000 A 
ATOM      6  C   UNL     1      44.694   7.580  11.527  0.00  0.00    +0.000 A 
ENDROOT
BRANCH   1   7
ATOM      7  C   UNL     1      44.045   5.279  10.720  0.00  0.00    +0.000 C 
BRANCH   7  10
ATOM      8  O   UNL     1      44.261   2.531  10.273  0.00  0.00    +0.000 OA
ATOM      9  C   UNL     1      44.860   3.301   9.530  0.00  0.00    +0.000 C 
ATOM     10  N   UNL     1      44.834   4.672   9.679  0.00  0.00    +0.000 N 
ATOM     11  H   UNL     1      45.358   5.237   9.015  0.00  0.00    +0.000 HD
BRANCH   9  12
ATOM     12  C   UNL     1      45.666   2.786   8.376  0.00  0.00    +0.000 A 
ATOM     13  C   UNL     1      45.919   3.626   7.292  0.00  0.00    +0.000 A 
ATOM     14  C   UNL     1      46.694   3.140   6.239  0.00  0.00    +0.000 A 
ATOM     15  C   UNL     1      47.180   1.844   6.312  0.00  0.00    +0.000 A 
ATOM     16  F   UNL     1      47.931   1.350   5.321  0.00  0.00    +0.000 F 
ATOM     17  C   UNL     1      46.878   1.071   7.424  0.00  0.00    +0.000 A 
ATOM     18  N   UNL     1      46.130   1.506   8.469  0.00  0.00    +0.000 NA
ENDBRANCH   9  12
ENDBRANCH   7  10
ENDBRANCH   1   7
BRANCH   4  19
ATOM     19  C   UNL     1      47.239   8.839  14.070  0.00  0.00    +0.000 C 
BRANCH  19  20
ATOM     20  N   UNL     1      48.642   8.549  13.914  0.00  0.00    +0.000 N 
ATOM     21  C   UNL     1      49.598   9.301  14.546  0.00  0.00    +0.000 C 
ATOM     22  O   UNL     1      49.304  10.217  15.310  0.00  0.00    +0.000 OA
ATOM     23  H   UNL     1      48.906   7.961  13.129  0.00  0.00    +0.000 HD
BRANCH  21  24
ATOM     24  C   UNL     1      50.998   8.923  14.308  0.00  0.00    +0.000 A 
ATOM     25  C   UNL     1      51.843   8.704  15.388  0.00  0.00    +0.000 A 
ATOM     26  S   UNL     1      53.415   8.219  14.942  0.00  0.00    +0.000 S 
ATOM     27  C   UNL     1      53.040   8.334  13.286  0.00  0.00    +0.000 A 
ATOM     28  N   UNL     1      53.976   8.068  12.337  0.00  0.00    +0.000 NA
ATOM     29  C   UNL     1      53.566   8.228  11.123  0.00  0.00    +0.000 A 
ATOM     30  N   UNL     1      52.304   8.625  10.772  0.00  0.00    +0.000 N 
ATOM     31  C   UNL     1      51.316   8.877  11.695  0.00  0.00    +0.000 A 
ATOM     32  O   UNL     1      50.183   9.192  11.347  0.00  0.00    +0.000 OA
ATOM     33  C   UNL     1      51.727   8.722  13.078  0.00  0.00    +0.000 A 
ATOM     34  H   UNL     1      52.042   8.727   9.802  0.00  0.00    +0.000 HD
ENDBRANCH  21  24
ENDBRANCH  19  20
ENDBRANCH   4  19
TORSDOF 6
ENDMDL
MODEL 7
REMARK VINA RESULT:    -6.604      5.957      8.243
REMARK INTER + INTRA:          -9.924
REMARK INTER:                  -8.977
REMARK INTRA:                  -0.947
REMARK UNBOUND:                -1.004
REMARK  Name = 
REMARK  6 active torsions:
REMARK  status: ('A' for Active; 'I' for Inactive)
REMARK    1  A    between atoms: C_2  and  C_25
REMARK    2  A    between atoms: N_3  and  C_4
REMARK    3  A    between atoms: C_4  and  C_5
REMARK    4  A    between atoms: C_8  and  C_9
REMARK    5  A    between atoms: C_9  and  N_10
REMARK    6  A    between atoms: C_11  and  C_13
REMARK                            x       y       z     vdW  Elec       q    Type
REMARK                         _______ _______ _______ _____ _____    ______ ____
ROOT
ATOM      1  C   UNL     1      48.867   3.367  17.325  0.00  0.00    +0.000 A 
ATOM      2  C   UNL     1      49.572   4.502  17.751  0.00  0.00    +0.000 A 
ATOM      3  C   UNL     1      50.952   4.440  17.979  0.00  0.00    +0.000 A 
ATOM      4  C   UNL     1      51.657   3.249  17.767  0.00  0.00    +0.000 A 
ATOM      5  C   UNL     1      50.952   2.115  17.341  0.00  0.00    +0.000 A 
ATOM      6  C   UNL     1      49.574   2.177  17.113  0.00  0.00    +0.000 A 
ENDROOT
BRANCH   1   7
ATOM      7  C   UNL     1      47.377   3.417  17.122  0.00  0.00    +0.000 C 
BRANCH   7  10
ATOM      8  O   UNL     1      47.488   2.932  14.374  0.00  0.00    +0.000 OA
ATOM      9  C   UNL     1      47.055   4.010  14.769  0.00  0.00    +0.000 C 
ATOM     10  N   UNL     1      46.978   4.353  16.103  0.00  0.00    +0.000 N 
ATOM     11  H   UNL     1      46.604   5.267  16.342  0.00  0.00    +0.000 HD
BRANCH   9  12
ATOM     12  C   UNL     1      46.557   5.041  13.801  0.00  0.00    +0.000 A 
ATOM     13  C   UNL     1      47.458   5.952  13.252  0.00  0.00    +0.000 A 
ATOM     14  C   UNL     1      46.983   6.886  12.333  0.00  0.00    +0.000 A 
ATOM     15  C   UNL     1      45.637   6.873  12.003  0.00  0.00    +0.000 A 
ATOM     16  F   UNL     1      45.151   7.754  11.120  0.00  0.00    +0.000 F 
ATOM     17  C   UNL     1      44.805   5.937  12.599  0.00  0.00    +0.000 A 
ATOM     18  N   UNL     1      45.227   5.011  13.497  0.00  0.00    +0.000 NA
ENDBRANCH   9  12
ENDBRANCH   7  10
ENDBRANCH   1   7
BRANCH   4  19
ATOM     19  C   UNL     1      53.139   3.164  18.033  0.00  0.00    +0.000 C 
BRANCH  19  20
ATOM     20  N   UNL     1      53.533   1.816  18.359  0.00  0.00    +0.000 N 
ATOM     21  C   UNL     1      54.793   1.536  18.821  0.00  0.00    +0.000 C 
ATOM     22  O   UNL     1      55.621   2.420  19.028  0.00  0.00    +0.000 OA
ATOM     23  H   UNL     1      52.958   1.066  17.987  0.00  0.00    +0.000 HD
BRANCH  21  24
ATOM     24  C   UNL     1      55.090   0.127  19.113  0.00  0.00    +0.000 A 
ATOM     25  C   UNL     1      55.529  -0.234  20.380  0.00  0.00    +0.000 A 
ATOM     26  S   UNL     1      55.775  -1.910  20.569  0.00  0.00    +0.000 S 
ATOM     27  C   UNL     1      55.353  -2.211  18.947  0.00  0.00    +0.000 A 
ATOM     28  N   UNL     1      55.379  -3.471  18.441  0.00  0.00    +0.000 NA
ATOM     29  C   UNL     1      55.069  -3.550  17.189  0.00  0.00    +0.000 A 
ATOM     30  N   UNL     1      54.733  -2.483  16.400  0.00  0.00    +0.000 N 
ATOM     31  C   UNL     1      54.665  -1.194  16.876  0.00  0.00    +0.000 A 
ATOM     32  O   UNL     1      54.322  -0.265  16.153  0.00  0.00    +0.000 OA
ATOM     33  C   UNL     1      55.014  -1.048  18.276  0.00  0.00    +0.000 A 
ATOM     34  H   UNL     1      54.495  -2.611  15.427  0.00  0.00    +0.000 HD
ENDBRANCH  21  24
ENDBRANCH  19  20
ENDBRANCH   4  19
TORSDOF 6
ENDMDL
MODEL 8
REMARK VINA RESULT:    -6.492      2.583      3.164
REMARK INTER + INTRA:          -9.773
REMARK INTER:                  -8.895
REMARK INTRA:                  -0.878
REMARK UNBOUND:                -1.004
REMARK  Name = 
REMARK  6 active torsions:
REMARK  status: ('A' for Active; 'I' for Inactive)
REMARK    1  A    between atoms: C_2  and  C_25
REMARK    2  A    between atoms: N_3  and  C_4
REMARK    3  A    between atoms: C_4  and  C_5
REMARK    4  A    between atoms: C_8  and  C_9
REMARK    5  A    between atoms: C_9  and  N_10
REMARK    6  A    between atoms: C_11  and  C_13
REMARK                            x       y       z     vdW  Elec       q    Type
REMARK                         _______ _______ _______ _____ _____    ______ ____
ROOT
ATOM      1  C   UNL     1      45.426   6.108  12.334  0.00  0.00    +0.000 A 
ATOM      2  C   UNL     1      46.478   5.342  12.857  0.00  0.00    +0.000 A 
ATOM      3  C   UNL     1      47.559   5.959  13.497  0.00  0.00    +0.000 A 
ATOM      4  C   UNL     1      47.600   7.351  13.646  0.00  0.00    +0.000 A 
ATOM      5  C   UNL     1      46.549   8.115  13.123  0.00  0.00    +0.000 A 
ATOM      6  C   UNL     1      45.468   7.500  12.484  0.00  0.00    +0.000 A 
ENDROOT
BRANCH   1   7
ATOM      7  C   UNL     1      44.283   5.453  11.606  0.00  0.00    +0.000 C 
BRANCH   7  10
ATOM      8  O   UNL     1      45.493   5.882   9.126  0.00  0.00    +0.000 OA
ATOM      9  C   UNL     1      45.317   4.730   9.509  0.00  0.00    +0.000 C 
ATOM     10  N   UNL     1      44.711   4.412  10.706  0.00  0.00    +0.000 N 
ATOM     11  H   UNL     1      44.608   3.430  10.947  0.00  0.00    +0.000 HD
BRANCH   9  12
ATOM     12  C   UNL     1      45.775   3.566   8.682  0.00  0.00    +0.000 A 
ATOM     13  C   UNL     1      46.513   3.801   7.523  0.00  0.00    +0.000 A 
ATOM     14  C   UNL     1      46.955   2.706   6.780  0.00  0.00    +0.000 A 
ATOM     15  C   UNL     1      46.641   1.430   7.223  0.00  0.00    +0.000 A 
ATOM     16  F   UNL     1      47.054   0.359   6.536  0.00  0.00    +0.000 F 
ATOM     17  C   UNL     1      45.897   1.282   8.384  0.00  0.00    +0.000 A 
ATOM     18  N   UNL     1      45.450   2.321   9.135  0.00  0.00    +0.000 NA
ENDBRANCH   9  12
ENDBRANCH   7  10
ENDBRANCH   1   7
BRANCH   4  19
ATOM     19  C   UNL     1      48.772   8.028  14.311  0.00  0.00    +0.000 C 
BRANCH  19  20
ATOM     20  N   UNL     1      49.621   7.069  14.972  0.00  0.00    +0.000 N 
ATOM     21  C   UNL     1      49.806   7.100  16.330  0.00  0.00    +0.000 C 
ATOM     22  O   UNL     1      49.219   7.907  17.047  0.00  0.00    +0.000 OA
ATOM     23  H   UNL     1      50.276   6.556  14.389  0.00  0.00    +0.000 HD
BRANCH  21  24
ATOM     24  C   UNL     1      50.700   6.081  16.897  0.00  0.00    +0.000 A 
ATOM     25  C   UNL     1      50.176   5.081  17.706  0.00  0.00    +0.000 A 
ATOM     26  S   UNL     1      51.335   3.949  18.236  0.00  0.00    +0.000 S 
ATOM     27  C   UNL     1      52.592   4.784  17.446  0.00  0.00    +0.000 A 
ATOM     28  N   UNL     1      53.876   4.347  17.520  0.00  0.00    +0.000 NA
ATOM     29  C   UNL     1      54.731   5.093  16.904  0.00  0.00    +0.000 A 
ATOM     30  N   UNL     1      54.416   6.235  16.217  0.00  0.00    +0.000 N 
ATOM     31  C   UNL     1      53.129   6.700  16.091  0.00  0.00    +0.000 A 
ATOM     32  O   UNL     1      52.875   7.705  15.435  0.00  0.00    +0.000 OA
ATOM     33  C   UNL     1      52.128   5.902  16.774  0.00  0.00    +0.000 A 
ATOM     34  H   UNL     1      55.132   6.774  15.750  0.00  0.00    +0.000 HD
ENDBRANCH  21  24
ENDBRANCH  19  20
ENDBRANCH   4  19
TORSDOF 6
ENDMDL
