MODEL 1
REMARK VINA RESULT:    -8.764      0.000      0.000
REMARK INTER + INTRA:         -13.385
REMARK INTER:                 -12.350
REMARK INTRA:                  -1.035
REMARK UNBOUND:                -1.035
REMARK  Name = 
REMARK  8 active torsions:
REMARK  status: ('A' for Active; 'I' for Inactive)
REMARK    1  A    between atoms: C_1  and  C_2
REMARK    2  A    between atoms: C_2  and  C_3
REMARK    3  A    between atoms: C_3  and  N_4
REMARK    4  A    between atoms: C_3  and  C_17
REMARK    5  A    between atoms: C_5  and  C_7
REMARK    6  A    between atoms: C_20  and  O_21
REMARK    7  A    between atoms: O_21  and  C_22
REMARK    8  A    between atoms: C_22  and  C_23
REMARK                            x       y       z     vdW  Elec       q    Type
REMARK                         _______ _______ _______ _____ _____    ______ ____
ROOT
ATOM      1  C   UNL     1      46.580   7.970  12.772  0.00  0.00    +0.000 C 
ENDROOT
BRANCH   1   2
ATOM      2  C   UNL     1      45.924   6.838  11.968  0.00  0.00    +0.000 A 
ATOM      3  C   UNL     1      44.868   6.103  12.516  0.00  0.00    +0.000 A 
ATOM      4  C   UNL     1      44.228   5.075  11.788  0.00  0.00    +0.000 A 
ATOM      5  C   UNL     1      44.661   4.791  10.476  0.00  0.00    +0.000 A 
ATOM      6  C   UNL     1      45.727   5.498   9.966  0.00  0.00    +0.000 A 
ATOM      7  C   UNL     1      46.356   6.506  10.674  0.00  0.00    +0.000 A 
BRANCH   5   8
ATOM      8  O   UNL     1      44.055   3.813   9.718  0.00  0.00    +0.000 OA
BRANCH   8   9
ATOM      9  C   UNL     1      44.724   2.527   9.805  0.00  0.00    +0.000 C 
BRANCH   9  10
ATOM     10  C   UNL     1      45.563   2.327   8.569  0.00  0.00    +0.000 A 
ATOM     11  C   UNL     1      45.626   3.325   7.604  0.00  0.00    +0.000 A 
ATOM     12  C   UNL     1      46.432   3.127   6.490  0.00  0.00    +0.000 A 
ATOM     13  C   UNL     1      47.139   1.937   6.362  0.00  0.00    +0.000 A 
ATOM     14  C   UNL     1      47.013   0.992   7.365  0.00  0.00    +0.000 A 
ATOM     15  N   UNL     1      46.242   1.155   8.459  0.00  0.00    +0.000 NA
ENDBRANCH   9  10
ENDBRANCH   8   9
ENDBRANCH   5   8
ENDBRANCH   1   2
BRANCH   1  16
ATOM     16  N   UNL     1      47.110   7.460  14.030  0.00  0.00    +0.000 N 
ATOM     17  C   UNL     1      48.285   6.759  14.151  0.00  0.00    +0.000 C 
ATOM     18  O   UNL     1      49.023   6.499  13.200  0.00  0.00    +0.000 OA
ATOM     19  H   UNL     1      46.465   7.443  14.821  0.00  0.00    +0.000 HD
BRANCH  17  20
ATOM     20  C   UNL     1      48.633   6.335  15.506  0.00  0.00    +0.000 A 
ATOM     21  C   UNL     1      49.556   7.020  16.284  0.00  0.00    +0.000 A 
ATOM     22  S   UNL     1      49.851   6.261  17.789  0.00  0.00    +0.000 S 
ATOM     23  C   UNL     1      48.774   4.993  17.422  0.00  0.00    +0.000 A 
ATOM     24  N   UNL     1      48.600   3.933  18.260  0.00  0.00    +0.000 NA
ATOM     25  C   UNL     1      47.786   3.036  17.818  0.00  0.00    +0.000 A 
ATOM     26  N   UNL     1      47.108   3.104  16.627  0.00  0.00    +0.000 N 
ATOM     27  C   UNL     1      47.217   4.164  15.770  0.00  0.00    +0.000 A 
ATOM     28  O   UNL     1      46.531   4.222  14.773  0.00  0.00    +0.000 OA
ATOM     29  C   UNL     1      48.162   5.177  16.205  0.00  0.00    +0.000 A 
ATOM     30  H   UNL     1      46.461   2.381  16.343  0.00  0.00    +0.000 HD
ENDBRANCH  17  20
ENDBRANCH   1  16
BRANCH   1  32
ATOM     31  C   UNL     1      44.963   9.791  11.841  0.00  0.00    +0.000 C 
ATOM     32  C   UNL     1      45.606   9.139  13.058  0.00  0.00    +0.000 C 
ENDBRANCH   1  32
TORSDOF 7
ENDMDL
MODEL 2
REMARK VINA RESULT:    -8.125      1.862      2.423
REMARK INTER + INTRA:         -12.485
REMARK INTER:                 -11.397
REMARK INTRA:                  -1.088
REMARK UNBOUND:                -1.035
REMARK  Name = 
REMARK  8 active torsions:
REMARK  status: ('A' for Active; 'I' for Inactive)
REMARK    1  A    between atoms: C_1  and  C_2
REMARK    2  A    between atoms: C_2  and  C_3
REMARK    3  A    between atoms: C_3  and  N_4
REMARK    4  A    between atoms: C_3  and  C_17
REMARK    5  A    between atoms: C_5  and  C_7
REMARK    6  A    between atoms: C_20  and  O_21
REMARK    7  A    between atoms: O_21  and  C_22
REMARK    8  A    between atoms: C_22  and  C_23
REMARK                            x       y       z     vdW  Elec       q    Type
REMARK                         _______ _______ _______ _____ _____    ______ ____
ROOT
ATOM      1  C   UNL     1      48.219   7.086  13.489  0.00  0.00    +0.000 C 
ENDROOT
BRANCH   1   2
ATOM      2  C   UNL     1      47.146   6.212  12.825  0.00  0.00    +0.000 A 
ATOM      3  C   UNL     1      46.553   6.612  11.623  0.00  0.00    +0.000 A 
ATOM      4  C   UNL     1      45.583   5.814  10.976  0.00  0.00    +0.000 A 
ATOM      5  C   UNL     1      45.211   4.583  11.553  0.00  0.00    +0.000 A 
ATOM      6  C   UNL     1      45.776   4.221  12.757  0.00  0.00    +0.000 A 
ATOM      7  C   UNL     1      46.727   4.998  13.393  0.00  0.00    +0.000 A 
BRANCH   5   8
ATOM      8  O   UNL     1      44.285   3.759  10.950  0.00  0.00    +0.000 OA
BRANCH   8   9
ATOM      9  C   UNL     1      44.060   4.082   9.552  0.00  0.00    +0.000 C 
BRANCH   9  10
ATOM     10  C   UNL     1      45.094   3.378   8.714  0.00  0.00    +0.000 A 
ATOM     11  C   UNL     1      45.337   2.023   8.905  0.00  0.00    +0.000 A 
ATOM     12  C   UNL     1      46.274   1.391   8.097  0.00  0.00    +0.000 A 
ATOM     13  C   UNL     1      46.951   2.129   7.132  0.00  0.00    +0.000 A 
ATOM     14  C   UNL     1      46.654   3.476   7.014  0.00  0.00    +0.000 A 
ATOM     15  N   UNL     1      45.750   4.116   7.781  0.00  0.00    +0.000 NA
ENDBRANCH   9  10
ENDBRANCH   8   9
ENDBRANCH   5   8
ENDBRANCH   1   2
BRANCH   1  16
ATOM     16  N   UNL     1      48.063   7.073  14.937  0.00  0.00    +0.000 N 
ATOM     17  C   UNL     1      49.086   6.854  15.828  0.00  0.00    +0.000 C 
ATOM     18  O   UNL     1      50.253   6.656  15.488  0.00  0.00    +0.000 OA
ATOM     19  H   UNL     1      47.107   7.014  15.290  0.00  0.00    +0.000 HD
BRANCH  17  20
ATOM     20  C   UNL     1      48.711   6.880  17.241  0.00  0.00    +0.000 A 
ATOM     21  C   UNL     1      48.378   8.056  17.899  0.00  0.00    +0.000 A 
ATOM     22  S   UNL     1      48.074   7.821  19.566  0.00  0.00    +0.000 S 
ATOM     23  C   UNL     1      48.405   6.153  19.448  0.00  0.00    +0.000 A 
ATOM     24  N   UNL     1      48.406   5.342  20.542  0.00  0.00    +0.000 NA
ATOM     25  C   UNL     1      48.719   4.116  20.292  0.00  0.00    +0.000 A 
ATOM     26  N   UNL     1      49.011   3.614  19.049  0.00  0.00    +0.000 N 
ATOM     27  C   UNL     1      48.984   4.378  17.915  0.00  0.00    +0.000 A 
ATOM     28  O   UNL     1      49.161   3.872  16.828  0.00  0.00    +0.000 OA
ATOM     29  C   UNL     1      48.683   5.778  18.156  0.00  0.00    +0.000 A 
ATOM     30  H   UNL     1      49.224   2.636  18.909  0.00  0.00    +0.000 HD
ENDBRANCH  17  20
ENDBRANCH   1  16
BRANCH   1  32
ATOM     31  C   UNL     1      49.339   8.956  12.060  0.00  0.00    +0.000 C 
ATOM     32  C   UNL     1      48.197   8.547  12.979  0.00  0.00    +0.000 C 
ENDBRANCH   1  32
TORSDOF 7
ENDMDL
MODEL 3
REMARK VINA RESULT:    -8.120      1.909      2.541
REMARK INTER + INTRA:         -12.478
REMARK INTER:                 -11.364
REMARK INTRA:                  -1.114
REMARK UNBOUND:                -1.035
REMARK  Name = 
REMARK  8 active torsions:
REMARK  status: ('A' for Active; 'I' for Inactive)
REMARK    1  A    between atoms: C_1  and  C_2
REMARK    2  A    between atoms: C_2  and  C_3
REMARK    3  A    between atoms: C_3  and  N_4
REMARK    4  A    between atoms: C_3  and  C_17
REMARK    5  A    between atoms: C_5  and  C_7
REMARK    6  A    between atoms: C_20  and  O_21
REMARK    7  A    between atoms: O_21  and  C_22
REMARK    8  A    between atoms: C_22  and  C_23
REMARK                            x       y       z     vdW  Elec       q    Type
REMARK                         _______ _______ _______ _____ _____    ______ ____
ROOT
ATOM      1  C   UNL     1      47.524   6.855  13.442  0.00  0.00    +0.000 C 
ENDROOT
BRANCH   1   2
ATOM      2  C   UNL     1      46.613   6.036  12.516  0.00  0.00    +0.000 A 
ATOM      3  C   UNL     1      46.355   6.472  11.213  0.00  0.00    +0.000 A 
ATOM      4  C   UNL     1      45.545   5.725  10.330  0.00  0.00    +0.000 A 
ATOM      5  C   UNL     1      44.987   4.507  10.775  0.00  0.00    +0.000 A 
ATOM      6  C   UNL     1      45.219   4.111  12.074  0.00  0.00    +0.000 A 
ATOM      7  C   UNL     1      46.014   4.840  12.941  0.00  0.00    +0.000 A 
BRANCH   5   8
ATOM      8  O   UNL     1      44.206   3.732   9.946  0.00  0.00    +0.000 OA
BRANCH   8   9
ATOM      9  C   UNL     1      44.704   2.375   9.798  0.00  0.00    +0.000 C 
BRANCH   9  10
ATOM     10  C   UNL     1      45.546   2.296   8.551  0.00  0.00    +0.000 A 
ATOM     11  C   UNL     1      45.566   3.361   7.658  0.00  0.00    +0.000 A 
ATOM     12  C   UNL     1      46.376   3.275   6.533  0.00  0.00    +0.000 A 
ATOM     13  C   UNL     1      47.130   2.126   6.322  0.00  0.00    +0.000 A 
ATOM     14  C   UNL     1      47.046   1.109   7.256  0.00  0.00    +0.000 A 
ATOM     15  N   UNL     1      46.272   1.164   8.359  0.00  0.00    +0.000 NA
ENDBRANCH   9  10
ENDBRANCH   8   9
ENDBRANCH   5   8
ENDBRANCH   1   2
BRANCH   1  16
ATOM     16  N   UNL     1      47.595   6.241  14.761  0.00  0.00    +0.000 N 
ATOM     17  C   UNL     1      48.733   6.172  15.527  0.00  0.00    +0.000 C 
ATOM     18  O   UNL     1      49.818   6.639  15.177  0.00  0.00    +0.000 OA
ATOM     19  H   UNL     1      46.807   5.649  15.029  0.00  0.00    +0.000 HD
BRANCH  17  20
ATOM     20  C   UNL     1      48.586   5.509  16.822  0.00  0.00    +0.000 A 
ATOM     21  C   UNL     1      48.628   4.128  16.957  0.00  0.00    +0.000 A 
ATOM     22  S   UNL     1      48.335   3.608  18.560  0.00  0.00    +0.000 S 
ATOM     23  C   UNL     1      48.122   5.211  19.099  0.00  0.00    +0.000 A 
ATOM     24  N   UNL     1      47.764   5.496  20.382  0.00  0.00    +0.000 NA
ATOM     25  C   UNL     1      47.600   6.752  20.620  0.00  0.00    +0.000 A 
ATOM     26  N   UNL     1      47.779   7.758  19.704  0.00  0.00    +0.000 N 
ATOM     27  C   UNL     1      48.177   7.528  18.416  0.00  0.00    +0.000 A 
ATOM     28  O   UNL     1      48.410   8.454  17.670  0.00  0.00    +0.000 OA
ATOM     29  C   UNL     1      48.328   6.121  18.091  0.00  0.00    +0.000 A 
ATOM     30  H   UNL     1      47.661   8.731  19.955  0.00  0.00    +0.000 HD
ENDBRANCH  17  20
ENDBRANCH   1  16
BRANCH   1  32
ATOM     31  C   UNL     1      48.168   9.361  13.758  0.00  0.00    +0.000 C 
ATOM     32  C   UNL     1      47.065   8.327  13.580  0.00  0.00    +0.000 C 
ENDBRANCH   1  32
TORSDOF 7
ENDMDL
MODEL 4
REMARK VINA RESULT:    -7.588      2.228      2.914
REMARK INTER + INTRA:         -11.728
REMARK INTER:                 -10.404
REMARK INTRA:                  -1.324
REMARK UNBOUND:                -1.035
REMARK  Name = 
REMARK  8 active torsions:
REMARK  status: ('A' for Active; 'I' for Inactive)
REMARK    1  A    between atoms: C_1  and  C_2
REMARK    2  A    between atoms: C_2  and  C_3
REMARK    3  A    between atoms: C_3  and  N_4
REMARK    4  A    between atoms: C_3  and  C_17
REMARK    5  A    between atoms: C_5  and  C_7
REMARK    6  A    between atoms: C_20  and  O_21
REMARK    7  A    between atoms: O_21  and  C_22
REMARK    8  A    between atoms: C_22  and  C_23
REMARK                            x       y       z     vdW  Elec       q    Type
REMARK                         _______ _______ _______ _____ _____    ______ ____
ROOT
ATOM      1  C   UNL     1      48.655   6.882  13.713  0.00  0.00    +0.000 C 
ENDROOT
BRANCH   1   2
ATOM      2  C   UNL     1      47.404   6.207  13.133  0.00  0.00    +0.000 A 
ATOM      3  C   UNL     1      47.068   4.902  13.507  0.00  0.00    +0.000 A 
ATOM      4  C   UNL     1      45.908   4.266  13.012  0.00  0.00    +0.000 A 
ATOM      5  C   UNL     1      45.066   4.969  12.124  0.00  0.00    +0.000 A 
ATOM      6  C   UNL     1      45.431   6.239  11.736  0.00  0.00    +0.000 A 
ATOM      7  C   UNL     1      46.566   6.866  12.219  0.00  0.00    +0.000 A 
BRANCH   5   8
ATOM      8  O   UNL     1      43.913   4.401  11.630  0.00  0.00    +0.000 OA
BRANCH   8   9
ATOM      9  C   UNL     1      43.677   4.713  10.231  0.00  0.00    +0.000 C 
BRANCH   9  10
ATOM     10  C   UNL     1      44.582   3.860   9.380  0.00  0.00    +0.000 A 
ATOM     11  C   UNL     1      44.628   2.485   9.577  0.00  0.00    +0.000 A 
ATOM     12  C   UNL     1      45.447   1.719   8.758  0.00  0.00    +0.000 A 
ATOM     13  C   UNL     1      46.208   2.345   7.777  0.00  0.00    +0.000 A 
ATOM     14  C   UNL     1      46.110   3.720   7.653  0.00  0.00    +0.000 A 
ATOM     15  N   UNL     1      45.322   4.490   8.431  0.00  0.00    +0.000 NA
ENDBRANCH   9  10
ENDBRANCH   8   9
ENDBRANCH   5   8
ENDBRANCH   1   2
BRANCH   1  16
ATOM     16  N   UNL     1      48.418   7.296  15.089  0.00  0.00    +0.000 N 
ATOM     17  C   UNL     1      49.373   7.295  16.077  0.00  0.00    +0.000 C 
ATOM     18  O   UNL     1      50.542   6.950  15.893  0.00  0.00    +0.000 OA
ATOM     19  H   UNL     1      47.443   7.389  15.374  0.00  0.00    +0.000 HD
BRANCH  17  20
ATOM     20  C   UNL     1      48.925   7.747  17.393  0.00  0.00    +0.000 A 
ATOM     21  C   UNL     1      49.179   9.027  17.865  0.00  0.00    +0.000 A 
ATOM     22  S   UNL     1      48.630   9.265  19.468  0.00  0.00    +0.000 S 
ATOM     23  C   UNL     1      48.066   7.661  19.572  0.00  0.00    +0.000 A 
ATOM     24  N   UNL     1      47.538   7.158  20.722  0.00  0.00    +0.000 NA
ATOM     25  C   UNL     1      47.199   5.916  20.652  0.00  0.00    +0.000 A 
ATOM     26  N   UNL     1      47.316   5.129  19.534  0.00  0.00    +0.000 N 
ATOM     27  C   UNL     1      47.801   5.597  18.344  0.00  0.00    +0.000 A 
ATOM     28  O   UNL     1      47.802   4.890  17.360  0.00  0.00    +0.000 OA
ATOM     29  C   UNL     1      48.241   6.980  18.392  0.00  0.00    +0.000 A 
ATOM     30  H   UNL     1      47.009   4.166  19.530  0.00  0.00    +0.000 HD
ENDBRANCH  17  20
ENDBRANCH   1  16
BRANCH   1  32
ATOM     31  C   UNL     1      50.076   7.809  11.733  0.00  0.00    +0.000 C 
ATOM     32  C   UNL     1      49.115   8.102  12.877  0.00  0.00    +0.000 C 
ENDBRANCH   1  32
TORSDOF 7
ENDMDL
MODEL 5
REMARK VINA RESULT:    -7.581      2.510      3.456
REMARK INTER + INTRA:         -11.718
REMARK INTER:                 -10.474
REMARK INTRA:                  -1.244
REMARK UNBOUND:                -1.035
REMARK  Name = 
REMARK  8 active torsions:
REMARK  status: ('A' for Active; 'I' for Inactive)
REMARK    1  A    between atoms: C_1  and  C_2
REMARK    2  A    between atoms: C_2  and  C_3
REMARK    3  A    between atoms: C_3  and  N_4
REMARK    4  A    between atoms: C_3  and  C_17
REMARK    5  A    between atoms: C_5  and  C_7
REMARK    6  A    between atoms: C_20  and  O_21
REMARK    7  A    between atoms: O_21  and  C_22
REMARK    8  A    between atoms: C_22  and  C_23
REMARK                            x       y       z     vdW  Elec       q    Type
REMARK                         _______ _______ _______ _____ _____    ______ ____
ROOT
ATOM      1  C   UNL     1      48.485   6.702  13.592  0.00  0.00    +0.000 C 
ENDROOT
BRANCH   1   2
ATOM      2  C   UNL     1      47.288   6.124  12.823  0.00  0.00    +0.000 A 
ATOM      3  C   UNL     1      46.792   6.781  11.692  0.00  0.00    +0.000 A 
ATOM      4  C   UNL     1      45.711   6.258  10.948  0.00  0.00    +0.000 A 
ATOM      5  C   UNL     1      45.124   5.041  11.354  0.00  0.00    +0.000 A 
ATOM      6  C   UNL     1      45.600   4.427  12.491  0.00  0.00    +0.000 A 
ATOM      7  C   UNL     1      46.659   4.935  13.222  0.00  0.00    +0.000 A 
BRANCH   5   8
ATOM      8  O   UNL     1      44.082   4.479  10.650  0.00  0.00    +0.000 OA
BRANCH   8   9
ATOM      9  C   UNL     1      44.247   3.053  10.426  0.00  0.00    +0.000 C 
BRANCH   9  10
ATOM     10  C   UNL     1      45.086   2.846   9.192  0.00  0.00    +0.000 A 
ATOM     11  C   UNL     1      45.258   3.887   8.287  0.00  0.00    +0.000 A 
ATOM     12  C   UNL     1      46.062   3.679   7.173  0.00  0.00    +0.000 A 
ATOM     13  C   UNL     1      46.658   2.437   6.986  0.00  0.00    +0.000 A 
ATOM     14  C   UNL     1      46.428   1.453   7.931  0.00  0.00    +0.000 A 
ATOM     15  N   UNL     1      45.656   1.625   9.022  0.00  0.00    +0.000 NA
ENDBRANCH   9  10
ENDBRANCH   8   9
ENDBRANCH   5   8
ENDBRANCH   1   2
BRANCH   1  16
ATOM     16  N   UNL     1      48.157   6.854  15.003  0.00  0.00    +0.000 N 
ATOM     17  C   UNL     1      49.027   6.600  16.036  0.00  0.00    +0.000 C 
ATOM     18  O   UNL     1      50.189   6.226  15.870  0.00  0.00    +0.000 OA
ATOM     19  H   UNL     1      47.167   6.950  15.232  0.00  0.00    +0.000 HD
BRANCH  17  20
ATOM     20  C   UNL     1      48.495   6.814  17.381  0.00  0.00    +0.000 A 
ATOM     21  C   UNL     1      48.179   5.762  18.229  0.00  0.00    +0.000 A 
ATOM     22  S   UNL     1      47.486   6.284  19.704  0.00  0.00    +0.000 S 
ATOM     23  C   UNL     1      47.570   7.918  19.229  0.00  0.00    +0.000 A 
ATOM     24  N   UNL     1      47.066   8.918  20.005  0.00  0.00    +0.000 NA
ATOM     25  C   UNL     1      47.168  10.094  19.485  0.00  0.00    +0.000 A 
ATOM     26  N   UNL     1      47.745  10.373  18.272  0.00  0.00    +0.000 N 
ATOM     27  C   UNL     1      48.302   9.411  17.476  0.00  0.00    +0.000 A 
ATOM     28  O   UNL     1      48.880   9.716  16.456  0.00  0.00    +0.000 OA
ATOM     29  C   UNL     1      48.166   8.064  18.000  0.00  0.00    +0.000 A 
ATOM     30  H   UNL     1      47.821  11.320  17.927  0.00  0.00    +0.000 HD
ENDBRANCH  17  20
ENDBRANCH   1  16
BRANCH   1  32
ATOM     31  C   UNL     1      50.411   8.129  12.568  0.00  0.00    +0.000 C 
ATOM     32  C   UNL     1      48.959   8.061  13.023  0.00  0.00    +0.000 C 
ENDBRANCH   1  32
TORSDOF 7
ENDMDL
MODEL 6
REMARK VINA RESULT:    -7.436      2.608      4.443
REMARK INTER + INTRA:         -11.514
REMARK INTER:                 -10.204
REMARK INTRA:                  -1.310
REMARK UNBOUND:                -1.035
REMARK  Name = 
REMARK  8 active torsions:
REMARK  status: ('A' for Active; 'I' for Inactive)
REMARK    1  A    between atoms: C_1  and  C_2
REMARK    2  A    between atoms: C_2  and  C_3
REMARK    3  A    between atoms: C_3  and  N_4
REMARK    4  A    between atoms: C_3  and  C_17
REMARK    5  A    between atoms: C_5  and  C_7
REMARK    6  A    between atoms: C_20  and  O_21
REMARK    7  A    between atoms: O_21  and  C_22
REMARK    8  A    between atoms: C_22  and  C_23
REMARK                            x       y       z     vdW  Elec       q    Type
REMARK                         _______ _______ _______ _____ _____    ______ ____
ROOT
ATOM      1  C   UNL     1      47.137   5.561  14.587  0.00  0.00    +0.000 C 
ENDROOT
BRANCH   1   2
ATOM      2  C   UNL     1      46.424   5.123  13.300  0.00  0.00    +0.000 A 
ATOM      3  C   UNL     1      45.930   3.820  13.174  0.00  0.00    +0.000 A 
ATOM      4  C   UNL     1      45.245   3.399  12.014  0.00  0.00    +0.000 A 
ATOM      5  C   UNL     1      45.050   4.316  10.960  0.00  0.00    +0.000 A 
ATOM      6  C   UNL     1      45.576   5.584  11.084  0.00  0.00    +0.000 A 
ATOM      7  C   UNL     1      46.246   6.001  12.220  0.00  0.00    +0.000 A 
BRANCH   5   8
ATOM      8  O   UNL     1      44.370   3.960   9.816  0.00  0.00    +0.000 OA
BRANCH   8   9
ATOM      9  C   UNL     1      44.495   2.549   9.494  0.00  0.00    +0.000 C 
BRANCH   9  10
ATOM     10  C   UNL     1      45.518   2.386   8.400  0.00  0.00    +0.000 A 
ATOM     11  C   UNL     1      45.768   3.434   7.521  0.00  0.00    +0.000 A 
ATOM     12  C   UNL     1      46.738   3.267   6.541  0.00  0.00    +0.000 A 
ATOM     13  C   UNL     1      47.421   2.060   6.456  0.00  0.00    +0.000 A 
ATOM     14  C   UNL     1      47.106   1.065   7.366  0.00  0.00    +0.000 A 
ATOM     15  N   UNL     1      46.171   1.197   8.329  0.00  0.00    +0.000 NA
ENDBRANCH   9  10
ENDBRANCH   8   9
ENDBRANCH   5   8
ENDBRANCH   1   2
BRANCH   1  16
ATOM     16  N   UNL     1      48.425   6.166  14.275  0.00  0.00    +0.000 N 
ATOM     17  C   UNL     1      48.829   7.404  14.714  0.00  0.00    +0.000 C 
ATOM     18  O   UNL     1      48.140   8.129  15.432  0.00  0.00    +0.000 OA
ATOM     19  H   UNL     1      48.959   5.734  13.520  0.00  0.00    +0.000 HD
BRANCH  17  20
ATOM     20  C   UNL     1      50.161   7.826  14.282  0.00  0.00    +0.000 A 
ATOM     21  C   UNL     1      51.281   7.687  15.089  0.00  0.00    +0.000 A 
ATOM     22  S   UNL     1      52.694   8.346  14.384  0.00  0.00    +0.000 S 
ATOM     23  C   UNL     1      51.835   8.850  13.001  0.00  0.00    +0.000 A 
ATOM     24  N   UNL     1      52.431   9.564  12.006  0.00  0.00    +0.000 NA
ATOM     25  C   UNL     1      51.635   9.908  11.052  0.00  0.00    +0.000 A 
ATOM     26  N   UNL     1      50.303   9.590  10.982  0.00  0.00    +0.000 N 
ATOM     27  C   UNL     1      49.667   8.842  11.934  0.00  0.00    +0.000 A 
ATOM     28  O   UNL     1      48.512   8.510  11.785  0.00  0.00    +0.000 OA
ATOM     29  C   UNL     1      50.515   8.473  13.053  0.00  0.00    +0.000 A 
ATOM     30  H   UNL     1      49.733   9.865  10.194  0.00  0.00    +0.000 HD
ENDBRANCH  17  20
ENDBRANCH   1  16
BRANCH   1  32
ATOM     31  C   UNL     1      48.133   4.714  16.843  0.00  0.00    +0.000 C 
ATOM     32  C   UNL     1      47.343   4.392  15.581  0.00  0.00    +0.000 C 
ENDBRANCH   1  32
TORSDOF 7
ENDMDL
MODEL 7
REMARK VINA RESULT:    -7.244      3.372      7.835
REMARK INTER + INTRA:         -11.243
REMARK INTER:                 -10.085
REMARK INTRA:                  -1.159
REMARK UNBOUND:                -1.035
REMARK  Name = 
REMARK  8 active torsions:
REMARK  status: ('A' for Active; 'I' for Inactive)
REMARK    1  A    between atoms: C_1  and  C_2
REMARK    2  A    between atoms: C_2  and  C_3
REMARK    3  A    between atoms: C_3  and  N_4
REMARK    4  A    between atoms: C_3  and  C_17
REMARK    5  A    between atoms: C_5  and  C_7
REMARK    6  A    between atoms: C_20  and  O_21
REMARK    7  A    between atoms: O_21  and  C_22
REMARK    8  A    between atoms: C_22  and  C_23
REMARK                            x       y       z     vdW  Elec       q    Type
REMARK                         _______ _______ _______ _____ _____    ______ ____
ROOT
ATOM      1  C   UNL     1      48.081   7.574  12.712  0.00  0.00    +0.000 C 
ENDROOT
BRANCH   1   2
ATOM      2  C   UNL     1      48.616   7.018  14.040  0.00  0.00    +0.000 A 
ATOM      3  C   UNL     1      49.819   7.495  14.572  0.00  0.00    +0.000 A 
ATOM      4  C   UNL     1      50.320   7.023  15.805  0.00  0.00    +0.000 A 
ATOM      5  C   UNL     1      49.585   6.052  16.518  0.00  0.00    +0.000 A 
ATOM      6  C   UNL     1      48.422   5.565  15.962  0.00  0.00    +0.000 A 
ATOM      7  C   UNL     1      47.927   6.026  14.755  0.00  0.00    +0.000 A 
BRANCH   5   8
ATOM      8  O   UNL     1      50.021   5.575  17.735  0.00  0.00    +0.000 OA
BRANCH   8   9
ATOM      9  C   UNL     1      51.446   5.295  17.761  0.00  0.00    +0.000 C 
BRANCH   9  10
ATOM     10  C   UNL     1      51.654   3.805  17.688  0.00  0.00    +0.000 A 
ATOM     11  C   UNL     1      52.857   3.250  18.110  0.00  0.00    +0.000 A 
ATOM     12  C   UNL     1      53.010   1.871  18.062  0.00  0.00    +0.000 A 
ATOM     13  C   UNL     1      51.968   1.085  17.582  0.00  0.00    +0.000 A 
ATOM     14  C   UNL     1      50.807   1.718  17.175  0.00  0.00    +0.000 A 
ATOM     15  N   UNL     1      50.627   3.054  17.212  0.00  0.00    +0.000 NA
ENDBRANCH   9  10
ENDBRANCH   8   9
ENDBRANCH   5   8
ENDBRANCH   1   2
BRANCH   1  16
ATOM     16  N   UNL     1      47.376   6.536  11.973  0.00  0.00    +0.000 N 
ATOM     17  C   UNL     1      46.116   6.679  11.443  0.00  0.00    +0.000 C 
ATOM     18  O   UNL     1      45.454   7.714  11.530  0.00  0.00    +0.000 OA
ATOM     19  H   UNL     1      47.756   5.591  12.041  0.00  0.00    +0.000 HD
BRANCH  17  20
ATOM     20  C   UNL     1      45.589   5.510  10.739  0.00  0.00    +0.000 A 
ATOM     21  C   UNL     1      45.671   5.375   9.361  0.00  0.00    +0.000 A 
ATOM     22  S   UNL     1      44.894   3.964   8.784  0.00  0.00    +0.000 S 
ATOM     23  C   UNL     1      44.412   3.520  10.357  0.00  0.00    +0.000 A 
ATOM     24  N   UNL     1      43.629   2.430  10.588  0.00  0.00    +0.000 NA
ATOM     25  C   UNL     1      43.314   2.256  11.826  0.00  0.00    +0.000 A 
ATOM     26  N   UNL     1      43.724   3.054  12.864  0.00  0.00    +0.000 N 
ATOM     27  C   UNL     1      44.543   4.136  12.690  0.00  0.00    +0.000 A 
ATOM     28  O   UNL     1      44.951   4.758  13.646  0.00  0.00    +0.000 OA
ATOM     29  C   UNL     1      44.883   4.398  11.303  0.00  0.00    +0.000 A 
ATOM     30  H   UNL     1      43.467   2.853  13.821  0.00  0.00    +0.000 HD
ENDBRANCH  17  20
ENDBRANCH   1  16
BRANCH   1  32
ATOM     31  C   UNL     1      49.113   9.668  11.552  0.00  0.00    +0.000 C 
ATOM     32  C   UNL     1      49.199   8.172  11.824  0.00  0.00    +0.000 C 
ENDBRANCH   1  32
TORSDOF 7
ENDMDL
MODEL 8
REMARK VINA RESULT:    -6.786      3.118      7.458
REMARK INTER + INTRA:         -10.598
REMARK INTER:                  -9.198
REMARK INTRA:                  -1.400
REMARK UNBOUND:                -1.035
REMARK  Name = 
REMARK  8 active torsions:
REMARK  status: ('A' for Active; 'I' for Inactive)
REMARK    1  A    between atoms: C_1  and  C_2
REMARK    2  A    between atoms: C_2  and  C_3
REMARK    3  A    between atoms: C_3  and  N_4
REMARK    4  A    between atoms: C_3  and  C_17
REMARK    5  A    between atoms: C_5  and  C_7
REMARK    6  A    between atoms: C_20  and  O_21
REMARK    7  A    between atoms: O_21  and  C_22
REMARK    8  A    between atoms: C_22  and  C_23
REMARK                            x       y       z     vdW  Elec       q    Type
REMARK                         _______ _______ _______ _____ _____    ______ ____
ROOT
ATOM      1  C   UNL     1      47.735   8.604  12.443  0.00  0.00    +0.000 C 
ENDROOT
BRANCH   1   2
ATOM      2  C   UNL     1      48.268   8.233  13.834  0.00  0.00    +0.000 A 
ATOM      3  C   UNL     1      49.138   7.149  13.990  0.00  0.00    +0.000 A 
ATOM      4  C   UNL     1      49.667   6.802  15.253  0.00  0.00    +0.000 A 
ATOM      5  C   UNL     1      49.313   7.573  16.381  0.00  0.00    +0.000 A 
ATOM      6  C   UNL     1      48.425   8.614  16.216  0.00  0.00    +0.000 A 
ATOM      7  C   UNL     1      47.906   8.958  14.980  0.00  0.00    +0.000 A 
BRANCH   5   8
ATOM      8  O   UNL     1      49.818   7.288  17.631  0.00  0.00    +0.000 OA
BRANCH   8   9
ATOM      9  C   UNL     1      48.856   6.631  18.498  0.00  0.00    +0.000 C 
BRANCH   9  10
ATOM     10  C   UNL     1      48.640   5.222  18.011  0.00  0.00    +0.000 A 
ATOM     11  C   UNL     1      47.373   4.811  17.613  0.00  0.00    +0.000 A 
ATOM     12  C   UNL     1      47.208   3.517  17.138  0.00  0.00    +0.000 A 
ATOM     13  C   UNL     1      48.305   2.665  17.086  0.00  0.00    +0.000 A 
ATOM     14  C   UNL     1      49.530   3.150  17.509  0.00  0.00    +0.000 A 
ATOM     15  N   UNL     1      49.722   4.401  17.973  0.00  0.00    +0.000 NA
ENDBRANCH   9  10
ENDBRANCH   8   9
ENDBRANCH   5   8
ENDBRANCH   1   2
BRANCH   1  16
ATOM     16  N   UNL     1      47.202   7.427  11.771  0.00  0.00    +0.000 N 
ATOM     17  C   UNL     1      45.863   7.159  11.618  0.00  0.00    +0.000 C 
ATOM     18  O   UNL     1      44.969   7.901  12.027  0.00  0.00    +0.000 OA
ATOM     19  H   UNL     1      47.859   6.666  11.597  0.00  0.00    +0.000 HD
BRANCH  17  20
ATOM     20  C   UNL     1      45.541   5.918  10.914  0.00  0.00    +0.000 A 
ATOM     21  C   UNL     1      45.848   5.724   9.575  0.00  0.00    +0.000 A 
ATOM     22  S   UNL     1      45.279   4.227   8.973  0.00  0.00    +0.000 S 
ATOM     23  C   UNL     1      44.592   3.821  10.478  0.00  0.00    +0.000 A 
ATOM     24  N   UNL     1      43.867   2.681  10.653  0.00  0.00    +0.000 NA
ATOM     25  C   UNL     1      43.377   2.540  11.837  0.00  0.00    +0.000 A 
ATOM     26  N   UNL     1      43.559   3.419  12.875  0.00  0.00    +0.000 N 
ATOM     27  C   UNL     1      44.310   4.556  12.762  0.00  0.00    +0.000 A 
ATOM     28  O   UNL     1      44.517   5.255  13.730  0.00  0.00    +0.000 OA
ATOM     29  C   UNL     1      44.842   4.779  11.430  0.00  0.00    +0.000 A 
ATOM     30  H   UNL     1      43.171   3.243  13.792  0.00  0.00    +0.000 HD
ENDBRANCH  17  20
ENDBRANCH   1  16
BRANCH   1  32
ATOM     31  C   UNL     1      49.578  10.427  12.167  0.00  0.00    +0.000 C 
ATOM     32  C   UNL     1      48.812   9.266  11.549  0.00  0.00    +0.000 C 
ENDBRANCH   1  32
TORSDOF 7
ENDMDL
MODEL 9
REMARK VINA RESULT:    -6.774      2.360      3.167
REMARK INTER + INTRA:         -10.580
REMARK INTER:                  -9.657
REMARK INTRA:                  -0.923
REMARK UNBOUND:                -1.035
REMARK  Name = 
REMARK  8 active torsions:
REMARK  status: ('A' for Active; 'I' for Inactive)
REMARK    1  A    between atoms: C_1  and  C_2
REMARK    2  A    between atoms: C_2  and  C_3
REMARK    3  A    between atoms: C_3  and  N_4
REMARK    4  A    between atoms: C_3  and  C_17
REMARK    5  A    between atoms: C_5  and  C_7
REMARK    6  A    between atoms: C_20  and  O_21
REMARK    7  A    between atoms: O_21  and  C_22
REMARK    8  A    between atoms: C_22  and  C_23
REMARK                            x       y       z     vdW  Elec       q    Type
REMARK                         _______ _______ _______ _____ _____    ______ ____
ROOT
ATOM      1  C   UNL     1      48.744   7.380  12.327  0.00  0.00    +0.000 C 
ENDROOT
BRANCH   1   2
ATOM      2  C   UNL     1      47.327   6.855  12.600  0.00  0.00    +0.000 A 
ATOM      3  C   UNL     1      46.213   7.653  12.323  0.00  0.00    +0.000 A 
ATOM      4  C   UNL     1      44.897   7.186  12.536  0.00  0.00    +0.000 A 
ATOM      5  C   UNL     1      44.706   5.881  13.037  0.00  0.00    +0.000 A 
ATOM      6  C   UNL     1      45.814   5.122  13.341  0.00  0.00    +0.000 A 
ATOM      7  C   UNL     1      47.105   5.575  13.132  0.00  0.00    +0.000 A 
BRANCH   5   8
ATOM      8  O   UNL     1      43.442   5.371  13.243  0.00  0.00    +0.000 OA
BRANCH   8   9
ATOM      9  C   UNL     1      42.645   5.314  12.031  0.00  0.00    +0.000 C 
BRANCH   9  10
ATOM     10  C   UNL     1      43.312   4.387  11.049  0.00  0.00    +0.000 A 
ATOM     11  C   UNL     1      43.881   4.897   9.888  0.00  0.00    +0.000 A 
ATOM     12  C   UNL     1      44.518   4.024   9.015  0.00  0.00    +0.000 A 
ATOM     13  C   UNL     1      44.557   2.667   9.316  0.00  0.00    +0.000 A 
ATOM     14  C   UNL     1      43.959   2.241  10.489  0.00  0.00    +0.000 A 
ATOM     15  N   UNL     1      43.336   3.064  11.357  0.00  0.00    +0.000 NA
ENDBRANCH   9  10
ENDBRANCH   8   9
ENDBRANCH   5   8
ENDBRANCH   1   2
BRANCH   1  16
ATOM     16  N   UNL     1      49.640   7.018  13.417  0.00  0.00    +0.000 N 
ATOM     17  C   UNL     1      49.579   7.547  14.683  0.00  0.00    +0.000 C 
ATOM     18  O   UNL     1      48.743   8.382  15.032  0.00  0.00    +0.000 OA
ATOM     19  H   UNL     1      50.483   6.503  13.160  0.00  0.00    +0.000 HD
BRANCH  17  20
ATOM     20  C   UNL     1      50.576   7.047  15.628  0.00  0.00    +0.000 A 
ATOM     21  C   UNL     1      51.892   7.490  15.622  0.00  0.00    +0.000 A 
ATOM     22  S   UNL     1      52.872   6.677  16.764  0.00  0.00    +0.000 S 
ATOM     23  C   UNL     1      51.569   5.703  17.271  0.00  0.00    +0.000 A 
ATOM     24  N   UNL     1      51.729   4.712  18.192  0.00  0.00    +0.000 NA
ATOM     25  C   UNL     1      50.657   4.037  18.435  0.00  0.00    +0.000 A 
ATOM     26  N   UNL     1      49.432   4.269  17.862  0.00  0.00    +0.000 N 
ATOM     27  C   UNL     1      49.211   5.276  16.964  0.00  0.00    +0.000 A 
ATOM     28  O   UNL     1      48.093   5.498  16.553  0.00  0.00    +0.000 OA
ATOM     29  C   UNL     1      50.403   6.032  16.624  0.00  0.00    +0.000 A 
ATOM     30  H   UNL     1      48.619   3.722  18.111  0.00  0.00    +0.000 HD
ENDBRANCH  17  20
ENDBRANCH   1  16
BRANCH   1  32
ATOM     31  C   UNL     1      50.002   9.463  11.391  0.00  0.00    +0.000 C 
ATOM     32  C   UNL     1      48.781   8.914  12.116  0.00  0.00    +0.000 C 
ENDBRANCH   1  32
TORSDOF 7
ENDMDL
