MODEL 1
REMARK VINA RESULT:    -8.120      0.000      0.000
REMARK INTER + INTRA:         -13.153
REMARK INTER:                 -11.917
REMARK INTRA:                  -1.236
REMARK UNBOUND:                -1.236
REMARK  Name = 
REMARK  9 active torsions:
REMARK  status: ('A' for Active; 'I' for Inactive)
REMARK    1  A    between atoms: C_1  and  O_2
REMARK    2  A    between atoms: O_2  and  C_3
REMARK    3  A    between atoms: C_10  and  C_11
REMARK    4  A    between atoms: N_13  and  C_14
REMARK    5  A    between atoms: C_14  and  C_15
REMARK    6  A    between atoms: C_18  and  C_19
REMARK    7  A    between atoms: C_19  and  O_20
REMARK    8  A    between atoms: O_20  and  C_21
REMARK    9  A    between atoms: C_21  and  C_22
REMARK                            x       y       z     vdW  Elec       q    Type
REMARK                         _______ _______ _______ _____ _____    ______ ____
ROOT
ATOM      1  C   UNL     1      47.965   6.867  13.135  0.00  0.00    +0.000 C 
ENDROOT
BRANCH   1   2
ATOM      2  C   UNL     1      46.799   6.064  12.610  0.00  0.00    +0.000 A 
ATOM      3  C   UNL     1      46.331   4.939  13.304  0.00  0.00    +0.000 A 
ATOM      4  C   UNL     1      45.257   4.192  12.805  0.00  0.00    +0.000 A 
ATOM      5  C   UNL     1      44.635   4.544  11.599  0.00  0.00    +0.000 A 
ATOM      6  C   UNL     1      45.121   5.653  10.895  0.00  0.00    +0.000 A 
ATOM      7  C   UNL     1      46.194   6.401  11.392  0.00  0.00    +0.000 A 
BRANCH   5   8
ATOM      8  C   UNL     1      43.473   3.737  11.068  0.00  0.00    +0.000 C 
BRANCH   8   9
ATOM      9  O   UNL     1      43.760   3.347   9.730  0.00  0.00    +0.000 OA
BRANCH   9  10
ATOM     10  C   UNL     1      44.571   2.169   9.679  0.00  0.00    +0.000 C 
BRANCH  10  11
ATOM     11  C   UNL     1      45.565   2.247   8.540  0.00  0.00    +0.000 A 
ATOM     12  C   UNL     1      45.792   3.451   7.873  0.00  0.00    +0.000 A 
ATOM     13  C   UNL     1      46.720   3.488   6.836  0.00  0.00    +0.000 A 
ATOM     14  C   UNL     1      47.411   2.331   6.500  0.00  0.00    +0.000 A 
ATOM     15  C   UNL     1      47.147   1.181   7.224  0.00  0.00    +0.000 A 
ATOM     16  N   UNL     1      46.250   1.113   8.234  0.00  0.00    +0.000 NA
ENDBRANCH  10  11
ENDBRANCH   9  10
ENDBRANCH   8   9
ENDBRANCH   5   8
ENDBRANCH   1   2
BRANCH   1  19
ATOM     17  C   UNL     1      49.082   6.993  15.332  0.00  0.00    +0.000 C 
ATOM     18  O   UNL     1      50.198   6.991  14.812  0.00  0.00    +0.000 OA
ATOM     19  N   UNL     1      47.944   6.936  14.572  0.00  0.00    +0.000 N 
ATOM     20  H   UNL     1      47.040   6.882  15.020  0.00  0.00    +0.000 HD
BRANCH  17  28
ATOM     21  C   UNL     1      48.867   4.620  17.820  0.00  0.00    +0.000 A 
ATOM     22  N   UNL     1      48.743   3.919  18.964  0.00  0.00    +0.000 NA
ATOM     23  C   UNL     1      48.559   4.596  20.100  0.00  0.00    +0.000 A 
ATOM     24  N   UNL     1      48.487   5.918  20.240  0.00  0.00    +0.000 NA
ATOM     25  C   UNL     1      48.623   6.579  19.077  0.00  0.00    +0.000 A 
ATOM     26  S   UNL     1      48.561   8.274  19.066  0.00  0.00    +0.000 S 
ATOM     27  C   UNL     1      48.784   8.321  17.380  0.00  0.00    +0.000 A 
ATOM     28  C   UNL     1      48.907   7.068  16.794  0.00  0.00    +0.000 A 
ATOM     29  C   UNL     1      48.818   6.026  17.816  0.00  0.00    +0.000 A 
BRANCH  21  31
ATOM     30  C   UNL     1      47.958   3.194  16.200  0.00  0.00    +0.000 C 
ATOM     31  O   UNL     1      49.098   3.919  16.656  0.00  0.00    +0.000 OA
ENDBRANCH  21  31
ENDBRANCH  17  28
ENDBRANCH   1  19
TORSDOF 8
ENDMDL
MODEL 2
REMARK VINA RESULT:    -7.853      1.403      2.516
REMARK INTER + INTRA:         -12.762
REMARK INTER:                 -11.670
REMARK INTRA:                  -1.092
REMARK UNBOUND:                -1.236
REMARK  Name = 
REMARK  9 active torsions:
REMARK  status: ('A' for Active; 'I' for Inactive)
REMARK    1  A    between atoms: C_1  and  O_2
REMARK    2  A    between atoms: O_2  and  C_3
REMARK    3  A    between atoms: C_10  and  C_11
REMARK    4  A    between atoms: N_13  and  C_14
REMARK    5  A    between atoms: C_14  and  C_15
REMARK    6  A    between atoms: C_18  and  C_19
REMARK    7  A    between atoms: C_19  and  O_20
REMARK    8  A    between atoms: O_20  and  C_21
REMARK    9  A    between atoms: C_21  and  C_22
REMARK                            x       y       z     vdW  Elec       q    Type
REMARK                         _______ _______ _______ _____ _____    ______ ____
ROOT
ATOM      1  C   UNL     1      48.030   6.697  13.705  0.00  0.00    +0.000 C 
ENDROOT
BRANCH   1   2
ATOM      2  C   UNL     1      46.885   6.049  12.962  0.00  0.00    +0.000 A 
ATOM      3  C   UNL     1      46.599   6.400  11.636  0.00  0.00    +0.000 A 
ATOM      4  C   UNL     1      45.529   5.804  10.957  0.00  0.00    +0.000 A 
ATOM      5  C   UNL     1      44.715   4.855  11.591  0.00  0.00    +0.000 A 
ATOM      6  C   UNL     1      44.988   4.524  12.924  0.00  0.00    +0.000 A 
ATOM      7  C   UNL     1      46.057   5.119  13.604  0.00  0.00    +0.000 A 
BRANCH   5   8
ATOM      8  C   UNL     1      43.565   4.211  10.853  0.00  0.00    +0.000 C 
BRANCH   8   9
ATOM      9  O   UNL     1      44.002   3.851   9.548  0.00  0.00    +0.000 OA
BRANCH   9  10
ATOM     10  C   UNL     1      44.525   2.519   9.507  0.00  0.00    +0.000 C 
BRANCH  10  11
ATOM     11  C   UNL     1      45.561   2.380   8.412  0.00  0.00    +0.000 A 
ATOM     12  C   UNL     1      45.864   3.454   7.576  0.00  0.00    +0.000 A 
ATOM     13  C   UNL     1      46.828   3.293   6.585  0.00  0.00    +0.000 A 
ATOM     14  C   UNL     1      47.479   2.072   6.463  0.00  0.00    +0.000 A 
ATOM     15  C   UNL     1      47.140   1.061   7.345  0.00  0.00    +0.000 A 
ATOM     16  N   UNL     1      46.205   1.187   8.316  0.00  0.00    +0.000 NA
ENDBRANCH  10  11
ENDBRANCH   9  10
ENDBRANCH   8   9
ENDBRANCH   5   8
ENDBRANCH   1   2
BRANCH   1  19
ATOM     17  C   UNL     1      49.036   6.415  15.940  0.00  0.00    +0.000 C 
ATOM     18  O   UNL     1      50.170   6.606  15.500  0.00  0.00    +0.000 OA
ATOM     19  N   UNL     1      47.941   6.447  15.119  0.00  0.00    +0.000 N 
ATOM     20  H   UNL     1      47.026   6.232  15.489  0.00  0.00    +0.000 HD
BRANCH  17  28
ATOM     21  C   UNL     1      47.882   8.354  18.543  0.00  0.00    +0.000 A 
ATOM     22  N   UNL     1      47.478   8.878  19.717  0.00  0.00    +0.000 NA
ATOM     23  C   UNL     1      47.497   8.091  20.797  0.00  0.00    +0.000 A 
ATOM     24  N   UNL     1      47.874   6.815  20.848  0.00  0.00    +0.000 NA
ATOM     25  C   UNL     1      48.262   6.331  19.656  0.00  0.00    +0.000 A 
ATOM     26  S   UNL     1      48.772   4.718  19.533  0.00  0.00    +0.000 S 
ATOM     27  C   UNL     1      49.069   4.886  17.866  0.00  0.00    +0.000 A 
ATOM     28  C   UNL     1      48.792   6.154  17.371  0.00  0.00    +0.000 A 
ATOM     29  C   UNL     1      48.302   7.015  18.446  0.00  0.00    +0.000 A 
BRANCH  21  31
ATOM     30  C   UNL     1      48.995   9.943  17.231  0.00  0.00    +0.000 C 
ATOM     31  O   UNL     1      47.821   9.158  17.425  0.00  0.00    +0.000 OA
ENDBRANCH  21  31
ENDBRANCH  17  28
ENDBRANCH   1  19
TORSDOF 8
ENDMDL
MODEL 3
REMARK VINA RESULT:    -7.351      1.839      2.215
REMARK INTER + INTRA:         -12.025
REMARK INTER:                 -10.849
REMARK INTRA:                  -1.176
REMARK UNBOUND:                -1.236
REMARK  Name = 
REMARK  9 active torsions:
REMARK  status: ('A' for Active; 'I' for Inactive)
REMARK    1  A    between atoms: C_1  and  O_2
REMARK    2  A    between atoms: O_2  and  C_3
REMARK    3  A    between atoms: C_10  and  C_11
REMARK    4  A    between atoms: N_13  and  C_14
REMARK    5  A    between atoms: C_14  and  C_15
REMARK    6  A    between atoms: C_18  and  C_19
REMARK    7  A    between atoms: C_19  and  O_20
REMARK    8  A    between atoms: O_20  and  C_21
REMARK    9  A    between atoms: C_21  and  C_22
REMARK                            x       y       z     vdW  Elec       q    Type
REMARK                         _______ _______ _______ _____ _____    ______ ____
ROOT
ATOM      1  C   UNL     1      47.782   7.742  13.590  0.00  0.00    +0.000 C 
ENDROOT
BRANCH   1   2
ATOM      2  C   UNL     1      46.867   6.697  12.997  0.00  0.00    +0.000 A 
ATOM      3  C   UNL     1      46.122   6.968  11.841  0.00  0.00    +0.000 A 
ATOM      4  C   UNL     1      45.266   5.999  11.303  0.00  0.00    +0.000 A 
ATOM      5  C   UNL     1      45.126   4.745  11.913  0.00  0.00    +0.000 A 
ATOM      6  C   UNL     1      45.853   4.486  13.082  0.00  0.00    +0.000 A 
ATOM      7  C   UNL     1      46.709   5.453  13.621  0.00  0.00    +0.000 A 
BRANCH   5   8
ATOM      8  C   UNL     1      44.205   3.701  11.326  0.00  0.00    +0.000 C 
BRANCH   8   9
ATOM      9  O   UNL     1      44.990   2.729  10.644  0.00  0.00    +0.000 OA
BRANCH   9  10
ATOM     10  C   UNL     1      44.456   2.422   9.352  0.00  0.00    +0.000 C 
BRANCH  10  11
ATOM     11  C   UNL     1      45.562   2.318   8.323  0.00  0.00    +0.000 A 
ATOM     12  C   UNL     1      45.901   3.412   7.527  0.00  0.00    +0.000 A 
ATOM     13  C   UNL     1      46.928   3.283   6.597  0.00  0.00    +0.000 A 
ATOM     14  C   UNL     1      47.604   2.073   6.494  0.00  0.00    +0.000 A 
ATOM     15  C   UNL     1      47.224   1.041   7.335  0.00  0.00    +0.000 A 
ATOM     16  N   UNL     1      46.229   1.136   8.246  0.00  0.00    +0.000 NA
ENDBRANCH  10  11
ENDBRANCH   9  10
ENDBRANCH   8   9
ENDBRANCH   5   8
ENDBRANCH   1   2
BRANCH   1  19
ATOM     17  C   UNL     1      49.784   7.861  15.027  0.00  0.00    +0.000 C 
ATOM     18  O   UNL     1      49.768   9.091  15.020  0.00  0.00    +0.000 OA
ATOM     19  N   UNL     1      48.842   7.134  14.351  0.00  0.00    +0.000 N 
ATOM     20  H   UNL     1      48.905   6.126  14.323  0.00  0.00    +0.000 HD
BRANCH  17  28
ATOM     21  C   UNL     1      49.640   5.243  17.263  0.00  0.00    +0.000 A 
ATOM     22  N   UNL     1      49.867   4.254  18.149  0.00  0.00    +0.000 NA
ATOM     23  C   UNL     1      51.130   4.010  18.509  0.00  0.00    +0.000 A 
ATOM     24  N   UNL     1      52.220   4.643  18.079  0.00  0.00    +0.000 NA
ATOM     25  C   UNL     1      51.949   5.616  17.192  0.00  0.00    +0.000 A 
ATOM     26  S   UNL     1      53.220   6.526  16.534  0.00  0.00    +0.000 S 
ATOM     27  C   UNL     1      52.140   7.456  15.604  0.00  0.00    +0.000 A 
ATOM     28  C   UNL     1      50.807   7.102  15.771  0.00  0.00    +0.000 A 
ATOM     29  C   UNL     1      50.698   5.994  16.718  0.00  0.00    +0.000 A 
BRANCH  21  31
ATOM     30  C   UNL     1      47.475   4.361  17.126  0.00  0.00    +0.000 C 
ATOM     31  O   UNL     1      48.339   5.464  16.863  0.00  0.00    +0.000 OA
ENDBRANCH  21  31
ENDBRANCH  17  28
ENDBRANCH   1  19
TORSDOF 8
ENDMDL
MODEL 4
REMARK VINA RESULT:    -7.042      1.757      3.220
REMARK INTER + INTRA:         -11.571
REMARK INTER:                 -10.325
REMARK INTRA:                  -1.246
REMARK UNBOUND:                -1.236
REMARK  Name = 
REMARK  9 active torsions:
REMARK  status: ('A' for Active; 'I' for Inactive)
REMARK    1  A    between atoms: C_1  and  O_2
REMARK    2  A    between atoms: O_2  and  C_3
REMARK    3  A    between atoms: C_10  and  C_11
REMARK    4  A    between atoms: N_13  and  C_14
REMARK    5  A    between atoms: C_14  and  C_15
REMARK    6  A    between atoms: C_18  and  C_19
REMARK    7  A    between atoms: C_19  and  O_20
REMARK    8  A    between atoms: O_20  and  C_21
REMARK    9  A    between atoms: C_21  and  C_22
REMARK                            x       y       z     vdW  Elec       q    Type
REMARK                         _______ _______ _______ _____ _____    ______ ____
ROOT
ATOM      1  C   UNL     1      47.324   4.010  14.832  0.00  0.00    +0.000 C 
ENDROOT
BRANCH   1   2
ATOM      2  C   UNL     1      46.358   4.212  13.689  0.00  0.00    +0.000 A 
ATOM      3  C   UNL     1      45.905   3.123  12.931  0.00  0.00    +0.000 A 
ATOM      4  C   UNL     1      45.019   3.318  11.865  0.00  0.00    +0.000 A 
ATOM      5  C   UNL     1      44.574   4.604  11.526  0.00  0.00    +0.000 A 
ATOM      6  C   UNL     1      45.047   5.692  12.270  0.00  0.00    +0.000 A 
ATOM      7  C   UNL     1      45.933   5.499  13.335  0.00  0.00    +0.000 A 
BRANCH   5   8
ATOM      8  C   UNL     1      43.614   4.809  10.378  0.00  0.00    +0.000 C 
BRANCH   8   9
ATOM      9  O   UNL     1      44.040   4.016   9.276  0.00  0.00    +0.000 OA
BRANCH   9  10
ATOM     10  C   UNL     1      45.233   4.531   8.676  0.00  0.00    +0.000 C 
BRANCH  10  11
ATOM     11  C   UNL     1      45.958   3.451   7.903  0.00  0.00    +0.000 A 
ATOM     12  C   UNL     1      46.070   2.159   8.417  0.00  0.00    +0.000 A 
ATOM     13  C   UNL     1      46.737   1.188   7.675  0.00  0.00    +0.000 A 
ATOM     14  C   UNL     1      47.260   1.523   6.433  0.00  0.00    +0.000 A 
ATOM     15  C   UNL     1      47.089   2.820   5.981  0.00  0.00    +0.000 A 
ATOM     16  N   UNL     1      46.448   3.785   6.680  0.00  0.00    +0.000 NA
ENDBRANCH  10  11
ENDBRANCH   9  10
ENDBRANCH   8   9
ENDBRANCH   5   8
ENDBRANCH   1   2
BRANCH   1  19
ATOM     17  C   UNL     1      48.545   5.408  16.458  0.00  0.00    +0.000 C 
ATOM     18  O   UNL     1      49.370   4.519  16.667  0.00  0.00    +0.000 OA
ATOM     19  N   UNL     1      47.518   5.230  15.572  0.00  0.00    +0.000 N 
ATOM     20  H   UNL     1      46.819   5.951  15.456  0.00  0.00    +0.000 HD
BRANCH  17  28
ATOM     21  C   UNL     1      48.814   8.656  15.339  0.00  0.00    +0.000 A 
ATOM     22  N   UNL     1      48.929   9.989  15.181  0.00  0.00    +0.000 NA
ATOM     23  C   UNL     1      48.983  10.750  16.277  0.00  0.00    +0.000 A 
ATOM     24  N   UNL     1      48.930  10.336  17.541  0.00  0.00    +0.000 NA
ATOM     25  C   UNL     1      48.808   9.001  17.654  0.00  0.00    +0.000 A 
ATOM     26  S   UNL     1      48.723   8.296  19.194  0.00  0.00    +0.000 S 
ATOM     27  C   UNL     1      48.600   6.735  18.527  0.00  0.00    +0.000 A 
ATOM     28  C   UNL     1      48.623   6.714  17.139  0.00  0.00    +0.000 A 
ATOM     29  C   UNL     1      48.740   8.075  16.619  0.00  0.00    +0.000 A 
BRANCH  21  31
ATOM     30  C   UNL     1      48.001   8.512  13.147  0.00  0.00    +0.000 C 
ATOM     31  O   UNL     1      48.717   7.878  14.206  0.00  0.00    +0.000 OA
ENDBRANCH  21  31
ENDBRANCH  17  28
ENDBRANCH   1  19
TORSDOF 8
ENDMDL
MODEL 5
REMARK VINA RESULT:    -7.018      2.421      3.233
REMARK INTER + INTRA:         -11.537
REMARK INTER:                 -10.257
REMARK INTRA:                  -1.280
REMARK UNBOUND:                -1.236
REMARK  Name = 
REMARK  9 active torsions:
REMARK  status: ('A' for Active; 'I' for Inactive)
REMARK    1  A    between atoms: C_1  and  O_2
REMARK    2  A    between atoms: O_2  and  C_3
REMARK    3  A    between atoms: C_10  and  C_11
REMARK    4  A    between atoms: N_13  and  C_14
REMARK    5  A    between atoms: C_14  and  C_15
REMARK    6  A    between atoms: C_18  and  C_19
REMARK    7  A    between atoms: C_19  and  O_20
REMARK    8  A    between atoms: O_20  and  C_21
REMARK    9  A    between atoms: C_21  and  C_22
REMARK                            x       y       z     vdW  Elec       q    Type
REMARK                         _______ _______ _______ _____ _____    ______ ____
ROOT
ATOM      1  C   UNL     1      46.133   8.358  13.248  0.00  0.00    +0.000 C 
ENDROOT
BRANCH   1   2
ATOM      2  C   UNL     1      45.774   6.985  12.732  0.00  0.00    +0.000 A 
ATOM      3  C   UNL     1      45.979   5.845  13.522  0.00  0.00    +0.000 A 
ATOM      4  C   UNL     1      45.655   4.573  13.034  0.00  0.00    +0.000 A 
ATOM      5  C   UNL     1      45.129   4.411  11.745  0.00  0.00    +0.000 A 
ATOM      6  C   UNL     1      44.948   5.549  10.949  0.00  0.00    +0.000 A 
ATOM      7  C   UNL     1      45.272   6.820  11.435  0.00  0.00    +0.000 A 
BRANCH   5   8
ATOM      8  C   UNL     1      44.776   3.037  11.224  0.00  0.00    +0.000 C 
BRANCH   8   9
ATOM      9  O   UNL     1      44.222   3.170   9.920  0.00  0.00    +0.000 OA
BRANCH   9  10
ATOM     10  C   UNL     1      44.408   1.986   9.137  0.00  0.00    +0.000 C 
BRANCH  10  11
ATOM     11  C   UNL     1      45.580   2.144   8.191  0.00  0.00    +0.000 A 
ATOM     12  C   UNL     1      45.782   3.338   7.499  0.00  0.00    +0.000 A 
ATOM     13  C   UNL     1      46.874   3.450   6.644  0.00  0.00    +0.000 A 
ATOM     14  C   UNL     1      47.747   2.378   6.512  0.00  0.00    +0.000 A 
ATOM     15  C   UNL     1      47.492   1.235   7.249  0.00  0.00    +0.000 A 
ATOM     16  N   UNL     1      46.438   1.095   8.086  0.00  0.00    +0.000 NA
ENDBRANCH  10  11
ENDBRANCH   9  10
ENDBRANCH   8   9
ENDBRANCH   5   8
ENDBRANCH   1   2
BRANCH   1  19
ATOM     17  C   UNL     1      48.524   8.761  12.786  0.00  0.00    +0.000 C 
ATOM     18  O   UNL     1      48.293   9.041  11.610  0.00  0.00    +0.000 OA
ATOM     19  N   UNL     1      47.515   8.419  13.646  0.00  0.00    +0.000 N 
ATOM     20  H   UNL     1      47.731   8.138  14.592  0.00  0.00    +0.000 HD
BRANCH  17  28
ATOM     21  C   UNL     1      50.136   6.944  15.228  0.00  0.00    +0.000 A 
ATOM     22  N   UNL     1      50.987   6.407  16.125  0.00  0.00    +0.000 NA
ATOM     23  C   UNL     1      52.222   6.909  16.200  0.00  0.00    +0.000 A 
ATOM     24  N   UNL     1      52.727   7.901  15.468  0.00  0.00    +0.000 NA
ATOM     25  C   UNL     1      51.849   8.402  14.582  0.00  0.00    +0.000 A 
ATOM     26  S   UNL     1      52.322   9.671  13.562  0.00  0.00    +0.000 S 
ATOM     27  C   UNL     1      50.787   9.721  12.829  0.00  0.00    +0.000 A 
ATOM     28  C   UNL     1      49.892   8.788  13.336  0.00  0.00    +0.000 A 
ATOM     29  C   UNL     1      50.534   7.995  14.382  0.00  0.00    +0.000 A 
BRANCH  21  31
ATOM     30  C   UNL     1      48.429   5.784  16.335  0.00  0.00    +0.000 C 
ATOM     31  O   UNL     1      48.876   6.395  15.127  0.00  0.00    +0.000 OA
ENDBRANCH  21  31
ENDBRANCH  17  28
ENDBRANCH   1  19
TORSDOF 8
ENDMDL
MODEL 6
REMARK VINA RESULT:    -6.972      1.641      2.310
REMARK INTER + INTRA:         -11.468
REMARK INTER:                 -10.200
REMARK INTRA:                  -1.268
REMARK UNBOUND:                -1.236
REMARK  Name = 
REMARK  9 active torsions:
REMARK  status: ('A' for Active; 'I' for Inactive)
REMARK    1  A    between atoms: C_1  and  O_2
REMARK    2  A    between atoms: O_2  and  C_3
REMARK    3  A    between atoms: C_10  and  C_11
REMARK    4  A    between atoms: N_13  and  C_14
REMARK    5  A    between atoms: C_14  and  C_15
REMARK    6  A    between atoms: C_18  and  C_19
REMARK    7  A    between atoms: C_19  and  O_20
REMARK    8  A    between atoms: O_20  and  C_21
REMARK    9  A    between atoms: C_21  and  C_22
REMARK                            x       y       z     vdW  Elec       q    Type
REMARK                         _______ _______ _______ _____ _____    ______ ____
ROOT
ATOM      1  C   UNL     1      47.836   4.639  14.923  0.00  0.00    +0.000 C 
ENDROOT
BRANCH   1   2
ATOM      2  C   UNL     1      46.751   4.697  13.873  0.00  0.00    +0.000 A 
ATOM      3  C   UNL     1      46.238   3.523  13.305  0.00  0.00    +0.000 A 
ATOM      4  C   UNL     1      45.241   3.584  12.324  0.00  0.00    +0.000 A 
ATOM      5  C   UNL     1      44.743   4.817  11.881  0.00  0.00    +0.000 A 
ATOM      6  C   UNL     1      45.276   5.990  12.432  0.00  0.00    +0.000 A 
ATOM      7  C   UNL     1      46.272   5.930  13.413  0.00  0.00    +0.000 A 
BRANCH   5   8
ATOM      8  C   UNL     1      43.665   4.878  10.825  0.00  0.00    +0.000 C 
BRANCH   8   9
ATOM      9  O   UNL     1      43.880   3.829   9.888  0.00  0.00    +0.000 OA
BRANCH   9  10
ATOM     10  C   UNL     1      44.456   4.310   8.670  0.00  0.00    +0.000 C 
BRANCH  10  11
ATOM     11  C   UNL     1      45.506   3.350   8.153  0.00  0.00    +0.000 A 
ATOM     12  C   UNL     1      45.487   2.005   8.522  0.00  0.00    +0.000 A 
ATOM     13  C   UNL     1      46.463   1.149   8.021  0.00  0.00    +0.000 A 
ATOM     14  C   UNL     1      47.425   1.650   7.153  0.00  0.00    +0.000 A 
ATOM     15  C   UNL     1      47.365   2.991   6.817  0.00  0.00    +0.000 A 
ATOM     16  N   UNL     1      46.430   3.847   7.289  0.00  0.00    +0.000 NA
ENDBRANCH  10  11
ENDBRANCH   9  10
ENDBRANCH   8   9
ENDBRANCH   5   8
ENDBRANCH   1   2
BRANCH   1  19
ATOM     17  C   UNL     1      48.776   6.773  15.729  0.00  0.00    +0.000 C 
ATOM     18  O   UNL     1      49.732   6.691  14.958  0.00  0.00    +0.000 OA
ATOM     19  N   UNL     1      47.808   5.807  15.765  0.00  0.00    +0.000 N 
ATOM     20  H   UNL     1      47.061   5.864  16.443  0.00  0.00    +0.000 HD
BRANCH  17  28
ATOM     21  C   UNL     1      47.830   7.056  19.030  0.00  0.00    +0.000 A 
ATOM     22  N   UNL     1      47.487   7.448  20.272  0.00  0.00    +0.000 NA
ATOM     23  C   UNL     1      47.500   8.755  20.546  0.00  0.00    +0.000 A 
ATOM     24  N   UNL     1      47.825   9.742  19.714  0.00  0.00    +0.000 NA
ATOM     25  C   UNL     1      48.167   9.308  18.489  0.00  0.00    +0.000 A 
ATOM     26  S   UNL     1      48.615  10.429  17.298  0.00  0.00    +0.000 S 
ATOM     27  C   UNL     1      48.863   9.194  16.156  0.00  0.00    +0.000 A 
ATOM     28  C   UNL     1      48.613   7.918  16.645  0.00  0.00    +0.000 A 
ATOM     29  C   UNL     1      48.203   7.990  18.046  0.00  0.00    +0.000 A 
BRANCH  21  31
ATOM     30  C   UNL     1      49.022   5.054  19.264  0.00  0.00    +0.000 C 
ATOM     31  O   UNL     1      47.856   5.704  18.764  0.00  0.00    +0.000 OA
ENDBRANCH  21  31
ENDBRANCH  17  28
ENDBRANCH   1  19
TORSDOF 8
ENDMDL
MODEL 7
REMARK VINA RESULT:    -6.469      3.423      4.803
REMARK INTER + INTRA:         -10.731
REMARK INTER:                  -9.809
REMARK INTRA:                  -0.922
REMARK UNBOUND:                -1.236
REMARK  Name = 
REMARK  9 active torsions:
REMARK  status: ('A' for Active; 'I' for Inactive)
REMARK    1  A    between atoms: C_1  and  O_2
REMARK    2  A    between atoms: O_2  and  C_3
REMARK    3  A    between atoms: C_10  and  C_11
REMARK    4  A    between atoms: N_13  and  C_14
REMARK    5  A    between atoms: C_14  and  C_15
REMARK    6  A    between atoms: C_18  and  C_19
REMARK    7  A    between atoms: C_19  and  O_20
REMARK    8  A    between atoms: O_20  and  C_21
REMARK    9  A    between atoms: C_21  and  C_22
REMARK                            x       y       z     vdW  Elec       q    Type
REMARK                         _______ _______ _______ _____ _____    ______ ____
ROOT
ATOM      1  C   UNL     1      47.923   6.265  14.190  0.00  0.00    +0.000 C 
ENDROOT
BRANCH   1   2
ATOM      2  C   UNL     1      46.816   5.836  13.257  0.00  0.00    +0.000 A 
ATOM      3  C   UNL     1      46.004   4.736  13.563  0.00  0.00    +0.000 A 
ATOM      4  C   UNL     1      44.987   4.337  12.688  0.00  0.00    +0.000 A 
ATOM      5  C   UNL     1      44.766   5.019  11.483  0.00  0.00    +0.000 A 
ATOM      6  C   UNL     1      45.596   6.102  11.168  0.00  0.00    +0.000 A 
ATOM      7  C   UNL     1      46.613   6.503  12.041  0.00  0.00    +0.000 A 
BRANCH   5   8
ATOM      8  C   UNL     1      43.665   4.587  10.544  0.00  0.00    +0.000 C 
BRANCH   8   9
ATOM      9  O   UNL     1      44.156   3.545   9.709  0.00  0.00    +0.000 OA
BRANCH   9  10
ATOM     10  C   UNL     1      44.645   4.045   8.461  0.00  0.00    +0.000 C 
BRANCH  10  11
ATOM     11  C   UNL     1      45.657   3.095   7.858  0.00  0.00    +0.000 A 
ATOM     12  C   UNL     1      46.496   3.508   6.823  0.00  0.00    +0.000 A 
ATOM     13  C   UNL     1      47.421   2.610   6.298  0.00  0.00    +0.000 A 
ATOM     14  C   UNL     1      47.499   1.329   6.827  0.00  0.00    +0.000 A 
ATOM     15  C   UNL     1      46.648   1.000   7.868  0.00  0.00    +0.000 A 
ATOM     16  N   UNL     1      45.738   1.850   8.397  0.00  0.00    +0.000 NA
ENDBRANCH  10  11
ENDBRANCH   9  10
ENDBRANCH   8   9
ENDBRANCH   5   8
ENDBRANCH   1   2
BRANCH   1  19
ATOM     17  C   UNL     1      49.620   7.937  13.547  0.00  0.00    +0.000 C 
ATOM     18  O   UNL     1      49.114   8.792  14.273  0.00  0.00    +0.000 OA
ATOM     19  N   UNL     1      49.092   6.678  13.458  0.00  0.00    +0.000 N 
ATOM     20  H   UNL     1      49.488   6.008  12.813  0.00  0.00    +0.000 HD
BRANCH  17  28
ATOM     21  C   UNL     1      52.906   8.597  14.346  0.00  0.00    +0.000 A 
ATOM     22  N   UNL     1      54.222   8.884  14.375  0.00  0.00    +0.000 NA
ATOM     23  C   UNL     1      54.849   9.082  13.212  0.00  0.00    +0.000 A 
ATOM     24  N   UNL     1      54.312   9.022  11.995  0.00  0.00    +0.000 NA
ATOM     25  C   UNL     1      53.001   8.727  12.011  0.00  0.00    +0.000 A 
ATOM     26  S   UNL     1      52.152   8.606  10.548  0.00  0.00    +0.000 S 
ATOM     27  C   UNL     1      50.701   8.249  11.360  0.00  0.00    +0.000 A 
ATOM     28  C   UNL     1      50.825   8.216  12.743  0.00  0.00    +0.000 A 
ATOM     29  C   UNL     1      52.207   8.495  13.129  0.00  0.00    +0.000 A 
BRANCH  21  31
ATOM     30  C   UNL     1      52.351   6.989  15.956  0.00  0.00    +0.000 C 
ATOM     31  O   UNL     1      52.273   8.353  15.545  0.00  0.00    +0.000 OA
ENDBRANCH  21  31
ENDBRANCH  17  28
ENDBRANCH   1  19
TORSDOF 8
ENDMDL
MODEL 8
REMARK VINA RESULT:    -6.434      3.207      8.134
REMARK INTER + INTRA:         -10.679
REMARK INTER:                  -9.045
REMARK INTRA:                  -1.634
REMARK UNBOUND:                -1.236
REMARK  Name = 
REMARK  9 active torsions:
REMARK  status: ('A' for Active; 'I' for Inactive)
REMARK    1  A    between atoms: C_1  and  O_2
REMARK    2  A    between atoms: O_2  and  C_3
REMARK    3  A    between atoms: C_10  and  C_11
REMARK    4  A    between atoms: N_13  and  C_14
REMARK    5  A    between atoms: C_14  and  C_15
REMARK    6  A    between atoms: C_18  and  C_19
REMARK    7  A    between atoms: C_19  and  O_20
REMARK    8  A    between atoms: O_20  and  C_21
REMARK    9  A    between atoms: C_21  and  C_22
REMARK                            x       y       z     vdW  Elec       q    Type
REMARK                         _______ _______ _______ _____ _____    ______ ____
ROOT
ATOM      1  C   UNL     1      48.371   8.062  11.838  0.00  0.00    +0.000 C 
ENDROOT
BRANCH   1   2
ATOM      2  C   UNL     1      48.528   7.954  13.336  0.00  0.00    +0.000 A 
ATOM      3  C   UNL     1      49.062   6.797  13.921  0.00  0.00    +0.000 A 
ATOM      4  C   UNL     1      49.195   6.699  15.311  0.00  0.00    +0.000 A 
ATOM      5  C   UNL     1      48.787   7.747  16.148  0.00  0.00    +0.000 A 
ATOM      6  C   UNL     1      48.231   8.891  15.563  0.00  0.00    +0.000 A 
ATOM      7  C   UNL     1      48.098   8.991  14.174  0.00  0.00    +0.000 A 
BRANCH   5   8
ATOM      8  C   UNL     1      48.936   7.638  17.647  0.00  0.00    +0.000 C 
BRANCH   8   9
ATOM      9  O   UNL     1      47.974   6.710  18.137  0.00  0.00    +0.000 OA
BRANCH   9  10
ATOM     10  C   UNL     1      48.567   5.727  18.992  0.00  0.00    +0.000 C 
BRANCH  10  11
ATOM     11  C   UNL     1      48.906   4.472  18.217  0.00  0.00    +0.000 A 
ATOM     12  C   UNL     1      47.935   3.816  17.461  0.00  0.00    +0.000 A 
ATOM     13  C   UNL     1      48.283   2.669  16.754  0.00  0.00    +0.000 A 
ATOM     14  C   UNL     1      49.595   2.214  16.803  0.00  0.00    +0.000 A 
ATOM     15  C   UNL     1      50.507   2.931  17.557  0.00  0.00    +0.000 A 
ATOM     16  N   UNL     1      50.197   4.047  18.256  0.00  0.00    +0.000 NA
ENDBRANCH  10  11
ENDBRANCH   9  10
ENDBRANCH   8   9
ENDBRANCH   5   8
ENDBRANCH   1   2
BRANCH   1  19
ATOM     17  C   UNL     1      46.247   6.900  11.360  0.00  0.00    +0.000 C 
ATOM     18  O   UNL     1      45.588   7.811  11.860  0.00  0.00    +0.000 OA
ATOM     19  N   UNL     1      47.614   6.956  11.313  0.00  0.00    +0.000 N 
ATOM     20  H   UNL     1      48.140   6.173  10.949  0.00  0.00    +0.000 HD
BRANCH  17  28
ATOM     21  C   UNL     1      44.477   4.264  12.696  0.00  0.00    +0.000 A 
ATOM     22  N   UNL     1      43.779   3.139  12.948  0.00  0.00    +0.000 NA
ATOM     23  C   UNL     1      43.471   2.346  11.919  0.00  0.00    +0.000 A 
ATOM     24  N   UNL     1      43.776   2.544  10.638  0.00  0.00    +0.000 NA
ATOM     25  C   UNL     1      44.465   3.680  10.430  0.00  0.00    +0.000 A 
ATOM     26  S   UNL     1      44.937   4.096   8.855  0.00  0.00    +0.000 S 
ATOM     27  C   UNL     1      45.692   5.519   9.403  0.00  0.00    +0.000 A 
ATOM     28  C   UNL     1      45.606   5.707  10.776  0.00  0.00    +0.000 A 
ATOM     29  C   UNL     1      44.863   4.607  11.388  0.00  0.00    +0.000 A 
BRANCH  21  31
ATOM     30  C   UNL     1      46.045   4.877  14.324  0.00  0.00    +0.000 C 
ATOM     31  O   UNL     1      44.757   5.100  13.756  0.00  0.00    +0.000 OA
ENDBRANCH  21  31
ENDBRANCH  17  28
ENDBRANCH   1  19
TORSDOF 8
ENDMDL
MODEL 9
REMARK VINA RESULT:    -6.201      2.217      2.775
REMARK INTER + INTRA:         -10.337
REMARK INTER:                  -9.451
REMARK INTRA:                  -0.886
REMARK UNBOUND:                -1.236
REMARK  Name = 
REMARK  9 active torsions:
REMARK  status: ('A' for Active; 'I' for Inactive)
REMARK    1  A    between atoms: C_1  and  O_2
REMARK    2  A    between atoms: O_2  and  C_3
REMARK    3  A    between atoms: C_10  and  C_11
REMARK    4  A    between atoms: N_13  and  C_14
REMARK    5  A    between atoms: C_14  and  C_15
REMARK    6  A    between atoms: C_18  and  C_19
REMARK    7  A    between atoms: C_19  and  O_20
REMARK    8  A    between atoms: O_20  and  C_21
REMARK    9  A    between atoms: C_21  and  C_22
REMARK                            x       y       z     vdW  Elec       q    Type
REMARK                         _______ _______ _______ _____ _____    ______ ____
ROOT
ATOM      1  C   UNL     1      47.219   4.493  15.738  0.00  0.00    +0.000 C 
ENDROOT
BRANCH   1   2
ATOM      2  C   UNL     1      46.737   4.722  14.325  0.00  0.00    +0.000 A 
ATOM      3  C   UNL     1      45.967   3.755  13.664  0.00  0.00    +0.000 A 
ATOM      4  C   UNL     1      45.532   3.968  12.350  0.00  0.00    +0.000 A 
ATOM      5  C   UNL     1      45.866   5.145  11.664  0.00  0.00    +0.000 A 
ATOM      6  C   UNL     1      46.656   6.098  12.319  0.00  0.00    +0.000 A 
ATOM      7  C   UNL     1      47.091   5.886  13.632  0.00  0.00    +0.000 A 
BRANCH   5   8
ATOM      8  C   UNL     1      45.391   5.372  10.248  0.00  0.00    +0.000 C 
BRANCH   8   9
ATOM      9  O   UNL     1      44.620   4.249   9.837  0.00  0.00    +0.000 OA
BRANCH   9  10
ATOM     10  C   UNL     1      44.575   4.124   8.413  0.00  0.00    +0.000 C 
BRANCH  10  11
ATOM     11  C   UNL     1      45.628   3.153   7.923  0.00  0.00    +0.000 A 
ATOM     12  C   UNL     1      46.638   3.573   7.057  0.00  0.00    +0.000 A 
ATOM     13  C   UNL     1      47.595   2.656   6.633  0.00  0.00    +0.000 A 
ATOM     14  C   UNL     1      47.533   1.348   7.095  0.00  0.00    +0.000 A 
ATOM     15  C   UNL     1      46.514   1.012   7.970  0.00  0.00    +0.000 A 
ATOM     16  N   UNL     1      45.569   1.881   8.397  0.00  0.00    +0.000 NA
ENDBRANCH  10  11
ENDBRANCH   9  10
ENDBRANCH   8   9
ENDBRANCH   5   8
ENDBRANCH   1   2
BRANCH   1  19
ATOM     17  C   UNL     1      48.327   5.930  17.410  0.00  0.00    +0.000 C 
ATOM     18  O   UNL     1      47.617   5.494  18.316  0.00  0.00    +0.000 OA
ATOM     19  N   UNL     1      48.190   5.484  16.123  0.00  0.00    +0.000 N 
ATOM     20  H   UNL     1      48.743   5.894  15.384  0.00  0.00    +0.000 HD
BRANCH  17  28
ATOM     21  C   UNL     1      51.751   5.777  17.763  0.00  0.00    +0.000 A 
ATOM     22  N   UNL     1      53.067   5.999  17.949  0.00  0.00    +0.000 NA
ATOM     23  C   UNL     1      53.466   7.251  18.187  0.00  0.00    +0.000 A 
ATOM     24  N   UNL     1      52.697   8.335  18.260  0.00  0.00    +0.000 NA
ATOM     25  C   UNL     1      51.394   8.071  18.062  0.00  0.00    +0.000 A 
ATOM     26  S   UNL     1      50.266   9.336  18.115  0.00  0.00    +0.000 S 
ATOM     27  C   UNL     1      48.978   8.268  17.806  0.00  0.00    +0.000 A 
ATOM     28  C   UNL     1      49.369   6.944  17.659  0.00  0.00    +0.000 A 
ATOM     29  C   UNL     1      50.819   6.830  17.805  0.00  0.00    +0.000 A 
BRANCH  21  31
ATOM     30  C   UNL     1      52.252   3.498  17.957  0.00  0.00    +0.000 C 
ATOM     31  O   UNL     1      51.348   4.491  17.476  0.00  0.00    +0.000 OA
ENDBRANCH  21  31
ENDBRANCH  17  28
ENDBRANCH   1  19
TORSDOF 8
ENDMDL
