MODEL 1
REMARK VINA RESULT:    -7.407      0.000      0.000
REMARK INTER + INTRA:         -10.214
REMARK INTER:                  -9.573
REMARK INTRA:                  -0.642
REMARK UNBOUND:                -0.642
REMARK  Name = 
REMARK  6 active torsions:
REMARK  status: ('A' for Active; 'I' for Inactive)
REMARK    1  A    between atoms: N_1  and  C_2
REMARK    2  A    between atoms: C_2  and  C_3
REMARK    3  A    between atoms: C_6  and  O_7
REMARK    4  A    between atoms: O_7  and  C_8
REMARK    5  A    between atoms: C_8  and  C_9
REMARK    6  A    between atoms: C_14  and  O_15
REMARK                            x       y       z     vdW  Elec       q    Type
REMARK                         _______ _______ _______ _____ _____    ______ ____
ROOT
ATOM      1  C   UNL     1      46.570   2.266   7.602  0.00  0.00    +0.000 A 
ATOM      2  C   UNL     1      45.730   1.549   8.465  0.00  0.00    +0.000 A 
ATOM      3  C   UNL     1      44.764   2.205   9.240  0.00  0.00    +0.000 A 
ATOM      4  C   UNL     1      44.631   3.589   9.165  0.00  0.00    +0.000 A 
ATOM      5  C   UNL     1      45.446   4.308   8.289  0.00  0.00    +0.000 A 
ATOM      6  C   UNL     1      46.416   3.655   7.519  0.00  0.00    +0.000 A 
ENDROOT
BRANCH   1   7
ATOM      7  C   UNL     1      47.634   1.558   6.798  0.00  0.00    +0.000 C 
BRANCH   7   8
ATOM      8  N   UNL     1      48.651   2.480   6.302  0.00  0.00    +0.000 NA
ATOM      9  H   UNL     1      48.905   3.125   7.047  0.00  0.00    +0.000 HD
ATOM     10  H   UNL     1      48.244   3.043   5.557  0.00  0.00    +0.000 HD
ENDBRANCH   7   8
ENDBRANCH   1   7
BRANCH   4  11
ATOM     11  O   UNL     1      43.701   4.327   9.851  0.00  0.00    +0.000 OA
BRANCH  11  12
ATOM     12  C   UNL     1      43.600   4.037  11.250  0.00  0.00    +0.000 C 
BRANCH  12  13
ATOM     13  C   UNL     1      44.810   4.590  11.975  0.00  0.00    +0.000 A 
ATOM     14  N   UNL     1      45.447   3.755  12.845  0.00  0.00    +0.000 NA
ATOM     15  C   UNL     1      46.536   4.232  13.488  0.00  0.00    +0.000 A 
ATOM     16  C   UNL     1      47.032   5.513  13.316  0.00  0.00    +0.000 A 
ATOM     17  C   UNL     1      46.375   6.362  12.432  0.00  0.00    +0.000 A 
ATOM     18  C   UNL     1      45.251   5.896  11.753  0.00  0.00    +0.000 A 
BRANCH  18  19
ATOM     19  O   UNL     1      44.577   6.719  10.899  0.00  0.00    +0.000 OA
ATOM     20  H   UNL     1      43.990   7.298  11.414  0.00  0.00    +0.000 HD
ENDBRANCH  18  19
ENDBRANCH  12  13
ENDBRANCH  11  12
ENDBRANCH   4  11
TORSDOF 6
ENDMDL
MODEL 2
REMARK VINA RESULT:    -7.405      1.183      1.619
REMARK INTER + INTRA:         -10.211
REMARK INTER:                  -9.710
REMARK INTRA:                  -0.501
REMARK UNBOUND:                -0.642
REMARK  Name = 
REMARK  6 active torsions:
REMARK  status: ('A' for Active; 'I' for Inactive)
REMARK    1  A    between atoms: N_1  and  C_2
REMARK    2  A    between atoms: C_2  and  C_3
REMARK    3  A    between atoms: C_6  and  O_7
REMARK    4  A    between atoms: O_7  and  C_8
REMARK    5  A    between atoms: C_8  and  C_9
REMARK    6  A    between atoms: C_14  and  O_15
REMARK                            x       y       z     vdW  Elec       q    Type
REMARK                         _______ _______ _______ _____ _____    ______ ____
ROOT
ATOM      1  C   UNL     1      46.524   2.316   7.655  0.00  0.00    +0.000 A 
ATOM      2  C   UNL     1      45.682   1.617   8.531  0.00  0.00    +0.000 A 
ATOM      3  C   UNL     1      44.726   2.290   9.303  0.00  0.00    +0.000 A 
ATOM      4  C   UNL     1      44.603   3.674   9.210  0.00  0.00    +0.000 A 
ATOM      5  C   UNL     1      45.420   4.375   8.321  0.00  0.00    +0.000 A 
ATOM      6  C   UNL     1      46.380   3.705   7.555  0.00  0.00    +0.000 A 
ENDROOT
BRANCH   1   7
ATOM      7  C   UNL     1      47.578   1.589   6.856  0.00  0.00    +0.000 C 
BRANCH   7   8
ATOM      8  N   UNL     1      48.613   2.493   6.362  0.00  0.00    +0.000 NA
ATOM      9  H   UNL     1      49.227   2.746   7.134  0.00  0.00    +0.000 HD
ATOM     10  H   UNL     1      48.170   3.355   6.050  0.00  0.00    +0.000 HD
ENDBRANCH   7   8
ENDBRANCH   1   7
BRANCH   4  11
ATOM     11  O   UNL     1      43.682   4.429   9.891  0.00  0.00    +0.000 OA
BRANCH  11  12
ATOM     12  C   UNL     1      43.548   4.121  11.283  0.00  0.00    +0.000 C 
BRANCH  12  13
ATOM     13  C   UNL     1      44.687   4.750  12.059  0.00  0.00    +0.000 A 
ATOM     14  N   UNL     1      44.762   6.112  12.057  0.00  0.00    +0.000 NA
ATOM     15  C   UNL     1      45.765   6.685  12.757  0.00  0.00    +0.000 A 
ATOM     16  C   UNL     1      46.716   5.971  13.466  0.00  0.00    +0.000 A 
ATOM     17  C   UNL     1      46.638   4.583  13.460  0.00  0.00    +0.000 A 
ATOM     18  C   UNL     1      45.612   3.963  12.749  0.00  0.00    +0.000 A 
BRANCH  18  19
ATOM     19  O   UNL     1      45.530   2.603  12.711  0.00  0.00    +0.000 OA
ATOM     20  H   UNL     1      45.891   2.241  13.538  0.00  0.00    +0.000 HD
ENDBRANCH  18  19
ENDBRANCH  12  13
ENDBRANCH  11  12
ENDBRANCH   4  11
TORSDOF 6
ENDMDL
MODEL 3
REMARK VINA RESULT:    -6.734      1.618      5.755
REMARK INTER + INTRA:          -9.344
REMARK INTER:                  -8.782
REMARK INTRA:                  -0.563
REMARK UNBOUND:                -0.642
REMARK  Name = 
REMARK  6 active torsions:
REMARK  status: ('A' for Active; 'I' for Inactive)
REMARK    1  A    between atoms: N_1  and  C_2
REMARK    2  A    between atoms: C_2  and  C_3
REMARK    3  A    between atoms: C_6  and  O_7
REMARK    4  A    between atoms: O_7  and  C_8
REMARK    5  A    between atoms: C_8  and  C_9
REMARK    6  A    between atoms: C_14  and  O_15
REMARK                            x       y       z     vdW  Elec       q    Type
REMARK                         _______ _______ _______ _____ _____    ______ ____
ROOT
ATOM      1  C   UNL     1      46.860   5.732  13.150  0.00  0.00    +0.000 A 
ATOM      2  C   UNL     1      46.556   6.390  11.951  0.00  0.00    +0.000 A 
ATOM      3  C   UNL     1      45.666   5.828  11.026  0.00  0.00    +0.000 A 
ATOM      4  C   UNL     1      45.071   4.596  11.289  0.00  0.00    +0.000 A 
ATOM      5  C   UNL     1      45.349   3.947  12.493  0.00  0.00    +0.000 A 
ATOM      6  C   UNL     1      46.243   4.503  13.415  0.00  0.00    +0.000 A 
ENDROOT
BRANCH   1   7
ATOM      7  C   UNL     1      47.849   6.324  14.125  0.00  0.00    +0.000 C 
BRANCH   7   8
ATOM      8  N   UNL     1      47.980   5.516  15.334  0.00  0.00    +0.000 NA
ATOM      9  H   UNL     1      47.105   5.554  15.852  0.00  0.00    +0.000 HD
ATOM     10  H   UNL     1      48.689   5.937  15.931  0.00  0.00    +0.000 HD
ENDBRANCH   7   8
ENDBRANCH   1   7
BRANCH   4  11
ATOM     11  O   UNL     1      44.163   3.972  10.474  0.00  0.00    +0.000 OA
BRANCH  11  12
ATOM     12  C   UNL     1      44.242   4.324   9.087  0.00  0.00    +0.000 C 
BRANCH  12  13
ATOM     13  C   UNL     1      45.307   3.489   8.407  0.00  0.00    +0.000 A 
ATOM     14  N   UNL     1      46.163   4.139   7.567  0.00  0.00    +0.000 NA
ATOM     15  C   UNL     1      47.126   3.407   6.965  0.00  0.00    +0.000 A 
ATOM     16  C   UNL     1      47.288   2.045   7.151  0.00  0.00    +0.000 A 
ATOM     17  C   UNL     1      46.409   1.387   8.004  0.00  0.00    +0.000 A 
ATOM     18  C   UNL     1      45.406   2.116   8.640  0.00  0.00    +0.000 A 
BRANCH  18  19
ATOM     19  O   UNL     1      44.519   1.486   9.463  0.00  0.00    +0.000 OA
ATOM     20  H   UNL     1      44.324   0.605   9.103  0.00  0.00    +0.000 HD
ENDBRANCH  18  19
ENDBRANCH  12  13
ENDBRANCH  11  12
ENDBRANCH   4  11
TORSDOF 6
ENDMDL
MODEL 4
REMARK VINA RESULT:    -6.494      2.077      5.849
REMARK INTER + INTRA:          -9.034
REMARK INTER:                  -8.724
REMARK INTRA:                  -0.311
REMARK UNBOUND:                -0.642
REMARK  Name = 
REMARK  6 active torsions:
REMARK  status: ('A' for Active; 'I' for Inactive)
REMARK    1  A    between atoms: N_1  and  C_2
REMARK    2  A    between atoms: C_2  and  C_3
REMARK    3  A    between atoms: C_6  and  O_7
REMARK    4  A    between atoms: O_7  and  C_8
REMARK    5  A    between atoms: C_8  and  C_9
REMARK    6  A    between atoms: C_14  and  O_15
REMARK                            x       y       z     vdW  Elec       q    Type
REMARK                         _______ _______ _______ _____ _____    ______ ____
ROOT
ATOM      1  C   UNL     1      45.742   6.740  12.531  0.00  0.00    +0.000 A 
ATOM      2  C   UNL     1      45.287   6.698  11.206  0.00  0.00    +0.000 A 
ATOM      3  C   UNL     1      45.028   5.476  10.571  0.00  0.00    +0.000 A 
ATOM      4  C   UNL     1      45.226   4.279  11.255  0.00  0.00    +0.000 A 
ATOM      5  C   UNL     1      45.654   4.313  12.583  0.00  0.00    +0.000 A 
ATOM      6  C   UNL     1      45.920   5.532  13.216  0.00  0.00    +0.000 A 
ENDROOT
BRANCH   1   7
ATOM      7  C   UNL     1      46.056   8.059  13.196  0.00  0.00    +0.000 C 
BRANCH   7   8
ATOM      8  N   UNL     1      45.070   9.086  12.874  0.00  0.00    +0.000 NA
ATOM      9  H   UNL     1      44.145   8.662  12.858  0.00  0.00    +0.000 HD
ATOM     10  H   UNL     1      45.250   9.424  11.931  0.00  0.00    +0.000 HD
ENDBRANCH   7   8
ENDBRANCH   1   7
BRANCH   4  11
ATOM     11  O   UNL     1      44.973   3.032  10.744  0.00  0.00    +0.000 OA
BRANCH  11  12
ATOM     12  C   UNL     1      44.516   3.007   9.387  0.00  0.00    +0.000 C 
BRANCH  12  13
ATOM     13  C   UNL     1      45.609   2.465   8.489  0.00  0.00    +0.000 A 
ATOM     14  N   UNL     1      45.824   1.118   8.516  0.00  0.00    +0.000 NA
ATOM     15  C   UNL     1      46.786   0.621   7.709  0.00  0.00    +0.000 A 
ATOM     16  C   UNL     1      47.562   1.399   6.866  0.00  0.00    +0.000 A 
ATOM     17  C   UNL     1      47.343   2.771   6.847  0.00  0.00    +0.000 A 
ATOM     18  C   UNL     1      46.355   3.313   7.667  0.00  0.00    +0.000 A 
BRANCH  18  19
ATOM     19  O   UNL     1      46.138   4.659   7.681  0.00  0.00    +0.000 OA
ATOM     20  H   UNL     1      45.272   4.836   8.086  0.00  0.00    +0.000 HD
ENDBRANCH  18  19
ENDBRANCH  12  13
ENDBRANCH  11  12
ENDBRANCH   4  11
TORSDOF 6
ENDMDL
MODEL 5
REMARK VINA RESULT:    -6.471      1.719      5.526
REMARK INTER + INTRA:          -9.005
REMARK INTER:                  -8.693
REMARK INTRA:                  -0.312
REMARK UNBOUND:                -0.642
REMARK  Name = 
REMARK  6 active torsions:
REMARK  status: ('A' for Active; 'I' for Inactive)
REMARK    1  A    between atoms: N_1  and  C_2
REMARK    2  A    between atoms: C_2  and  C_3
REMARK    3  A    between atoms: C_6  and  O_7
REMARK    4  A    between atoms: O_7  and  C_8
REMARK    5  A    between atoms: C_8  and  C_9
REMARK    6  A    between atoms: C_14  and  O_15
REMARK                            x       y       z     vdW  Elec       q    Type
REMARK                         _______ _______ _______ _____ _____    ______ ____
ROOT
ATOM      1  C   UNL     1      46.488   4.608  13.495  0.00  0.00    +0.000 A 
ATOM      2  C   UNL     1      45.922   3.381  13.125  0.00  0.00    +0.000 A 
ATOM      3  C   UNL     1      45.286   3.224  11.886  0.00  0.00    +0.000 A 
ATOM      4  C   UNL     1      45.204   4.298  11.003  0.00  0.00    +0.000 A 
ATOM      5  C   UNL     1      45.788   5.516  11.353  0.00  0.00    +0.000 A 
ATOM      6  C   UNL     1      46.417   5.676  12.593  0.00  0.00    +0.000 A 
ENDROOT
BRANCH   1   7
ATOM      7  C   UNL     1      47.137   4.781  14.847  0.00  0.00    +0.000 C 
BRANCH   7   8
ATOM      8  N   UNL     1      47.537   3.505  15.432  0.00  0.00    +0.000 NA
ATOM      9  H   UNL     1      48.190   3.043  14.803  0.00  0.00    +0.000 HD
ATOM     10  H   UNL     1      46.717   2.904  15.491  0.00  0.00    +0.000 HD
ENDBRANCH   7   8
ENDBRANCH   1   7
BRANCH   4  11
ATOM     11  O   UNL     1      44.637   4.248   9.756  0.00  0.00    +0.000 OA
BRANCH  11  12
ATOM     12  C   UNL     1      44.369   2.931   9.258  0.00  0.00    +0.000 C 
BRANCH  12  13
ATOM     13  C   UNL     1      45.540   2.451   8.425  0.00  0.00    +0.000 A 
ATOM     14  N   UNL     1      45.815   1.115   8.453  0.00  0.00    +0.000 NA
ATOM     15  C   UNL     1      46.848   0.673   7.703  0.00  0.00    +0.000 A 
ATOM     16  C   UNL     1      47.638   1.496   6.918  0.00  0.00    +0.000 A 
ATOM     17  C   UNL     1      47.357   2.857   6.898  0.00  0.00    +0.000 A 
ATOM     18  C   UNL     1      46.296   3.342   7.660  0.00  0.00    +0.000 A 
BRANCH  18  19
ATOM     19  O   UNL     1      46.016   4.677   7.673  0.00  0.00    +0.000 OA
ATOM     20  H   UNL     1      45.547   4.894   8.496  0.00  0.00    +0.000 HD
ENDBRANCH  18  19
ENDBRANCH  12  13
ENDBRANCH  11  12
ENDBRANCH   4  11
TORSDOF 6
ENDMDL
MODEL 6
REMARK VINA RESULT:    -5.809      2.058      5.490
REMARK INTER + INTRA:          -8.149
REMARK INTER:                  -7.682
REMARK INTRA:                  -0.467
REMARK UNBOUND:                -0.642
REMARK  Name = 
REMARK  6 active torsions:
REMARK  status: ('A' for Active; 'I' for Inactive)
REMARK    1  A    between atoms: N_1  and  C_2
REMARK    2  A    between atoms: C_2  and  C_3
REMARK    3  A    between atoms: C_6  and  O_7
REMARK    4  A    between atoms: O_7  and  C_8
REMARK    5  A    between atoms: C_8  and  C_9
REMARK    6  A    between atoms: C_14  and  O_15
REMARK                            x       y       z     vdW  Elec       q    Type
REMARK                         _______ _______ _______ _____ _____    ______ ____
ROOT
ATOM      1  C   UNL     1      47.428   6.358  13.618  0.00  0.00    +0.000 A 
ATOM      2  C   UNL     1      47.106   5.040  13.967  0.00  0.00    +0.000 A 
ATOM      3  C   UNL     1      45.934   4.434  13.493  0.00  0.00    +0.000 A 
ATOM      4  C   UNL     1      45.067   5.143  12.667  0.00  0.00    +0.000 A 
ATOM      5  C   UNL     1      45.393   6.448  12.293  0.00  0.00    +0.000 A 
ATOM      6  C   UNL     1      46.559   7.057  12.771  0.00  0.00    +0.000 A 
ENDROOT
BRANCH   1   7
ATOM      7  C   UNL     1      48.671   7.018  14.163  0.00  0.00    +0.000 C 
BRANCH   7   8
ATOM      8  N   UNL     1      49.219   6.297  15.308  0.00  0.00    +0.000 NA
ATOM      9  H   UNL     1      48.631   6.471  16.120  0.00  0.00    +0.000 HD
ATOM     10  H   UNL     1      50.136   6.681  15.525  0.00  0.00    +0.000 HD
ENDBRANCH   7   8
ENDBRANCH   1   7
BRANCH   4  11
ATOM     11  O   UNL     1      43.915   4.640  12.121  0.00  0.00    +0.000 OA
BRANCH  11  12
ATOM     12  C   UNL     1      43.686   4.984  10.749  0.00  0.00    +0.000 C 
BRANCH  12  13
ATOM     13  C   UNL     1      44.394   3.993   9.848  0.00  0.00    +0.000 A 
ATOM     14  N   UNL     1      44.045   2.680   9.973  0.00  0.00    +0.000 NA
ATOM     15  C   UNL     1      44.660   1.789   9.165  0.00  0.00    +0.000 A 
ATOM     16  C   UNL     1      45.620   2.132   8.228  0.00  0.00    +0.000 A 
ATOM     17  C   UNL     1      45.976   3.471   8.109  0.00  0.00    +0.000 A 
ATOM     18  C   UNL     1      45.357   4.414   8.928  0.00  0.00    +0.000 A 
BRANCH  18  19
ATOM     19  O   UNL     1      45.708   5.729   8.843  0.00  0.00    +0.000 OA
ATOM     20  H   UNL     1      46.449   5.898   9.449  0.00  0.00    +0.000 HD
ENDBRANCH  18  19
ENDBRANCH  12  13
ENDBRANCH  11  12
ENDBRANCH   4  11
TORSDOF 6
ENDMDL
MODEL 7
REMARK VINA RESULT:    -5.572      4.023      5.650
REMARK INTER + INTRA:          -7.842
REMARK INTER:                  -7.565
REMARK INTRA:                  -0.277
REMARK UNBOUND:                -0.642
REMARK  Name = 
REMARK  6 active torsions:
REMARK  status: ('A' for Active; 'I' for Inactive)
REMARK    1  A    between atoms: N_1  and  C_2
REMARK    2  A    between atoms: C_2  and  C_3
REMARK    3  A    between atoms: C_6  and  O_7
REMARK    4  A    between atoms: O_7  and  C_8
REMARK    5  A    between atoms: C_8  and  C_9
REMARK    6  A    between atoms: C_14  and  O_15
REMARK                            x       y       z     vdW  Elec       q    Type
REMARK                         _______ _______ _______ _____ _____    ______ ____
ROOT
ATOM      1  C   UNL     1      44.998   4.654  10.907  0.00  0.00    +0.000 A 
ATOM      2  C   UNL     1      45.676   5.850  11.179  0.00  0.00    +0.000 A 
ATOM      3  C   UNL     1      46.500   5.970  12.307  0.00  0.00    +0.000 A 
ATOM      4  C   UNL     1      46.650   4.895  13.179  0.00  0.00    +0.000 A 
ATOM      5  C   UNL     1      45.998   3.693  12.901  0.00  0.00    +0.000 A 
ATOM      6  C   UNL     1      45.170   3.573  11.779  0.00  0.00    +0.000 A 
ENDROOT
BRANCH   1   7
ATOM      7  C   UNL     1      44.082   4.544   9.712  0.00  0.00    +0.000 C 
BRANCH   7   8
ATOM      8  N   UNL     1      44.822   4.482   8.455  0.00  0.00    +0.000 NA
ATOM      9  H   UNL     1      44.189   4.693   7.688  0.00  0.00    +0.000 HD
ATOM     10  H   UNL     1      45.143   3.526   8.313  0.00  0.00    +0.000 HD
ENDBRANCH   7   8
ENDBRANCH   1   7
BRANCH   4  11
ATOM     11  O   UNL     1      47.454   4.891  14.290  0.00  0.00    +0.000 OA
BRANCH  11  12
ATOM     12  C   UNL     1      46.966   4.124  15.396  0.00  0.00    +0.000 C 
BRANCH  12  13
ATOM     13  C   UNL     1      47.943   4.212  16.551  0.00  0.00    +0.000 A 
ATOM     14  N   UNL     1      49.032   5.015  16.383  0.00  0.00    +0.000 NA
ATOM     15  C   UNL     1      49.903   5.113  17.411  0.00  0.00    +0.000 A 
ATOM     16  C   UNL     1      49.753   4.445  18.614  0.00  0.00    +0.000 A 
ATOM     17  C   UNL     1      48.643   3.624  18.778  0.00  0.00    +0.000 A 
ATOM     18  C   UNL     1      47.726   3.505  17.735  0.00  0.00    +0.000 A 
BRANCH  18  19
ATOM     19  O   UNL     1      46.643   2.687  17.866  0.00  0.00    +0.000 OA
ATOM     20  H   UNL     1      46.947   1.793  18.096  0.00  0.00    +0.000 HD
ENDBRANCH  18  19
ENDBRANCH  12  13
ENDBRANCH  11  12
ENDBRANCH   4  11
TORSDOF 6
ENDMDL
MODEL 8
REMARK VINA RESULT:    -5.533      2.197      6.138
REMARK INTER + INTRA:          -7.792
REMARK INTER:                  -7.868
REMARK INTRA:                   0.076
REMARK UNBOUND:                -0.642
REMARK  Name = 
REMARK  6 active torsions:
REMARK  status: ('A' for Active; 'I' for Inactive)
REMARK    1  A    between atoms: N_1  and  C_2
REMARK    2  A    between atoms: C_2  and  C_3
REMARK    3  A    between atoms: C_6  and  O_7
REMARK    4  A    between atoms: O_7  and  C_8
REMARK    5  A    between atoms: C_8  and  C_9
REMARK    6  A    between atoms: C_14  and  O_15
REMARK                            x       y       z     vdW  Elec       q    Type
REMARK                         _______ _______ _______ _____ _____    ______ ____
ROOT
ATOM      1  C   UNL     1      44.886   6.137  11.991  0.00  0.00    +0.000 A 
ATOM      2  C   UNL     1      45.591   6.150  10.780  0.00  0.00    +0.000 A 
ATOM      3  C   UNL     1      45.400   5.144   9.823  0.00  0.00    +0.000 A 
ATOM      4  C   UNL     1      44.503   4.108  10.070  0.00  0.00    +0.000 A 
ATOM      5  C   UNL     1      43.778   4.101  11.262  0.00  0.00    +0.000 A 
ATOM      6  C   UNL     1      43.972   5.101  12.222  0.00  0.00    +0.000 A 
ENDROOT
BRANCH   1   7
ATOM      7  C   UNL     1      45.125   7.202  13.034  0.00  0.00    +0.000 C 
BRANCH   7   8
ATOM      8  N   UNL     1      45.108   8.545  12.462  0.00  0.00    +0.000 NA
ATOM      9  H   UNL     1      46.050   8.789  12.164  0.00  0.00    +0.000 HD
ATOM     10  H   UNL     1      44.854   9.206  13.192  0.00  0.00    +0.000 HD
ENDBRANCH   7   8
ENDBRANCH   1   7
BRANCH   4  11
ATOM     11  O   UNL     1      44.214   3.094   9.193  0.00  0.00    +0.000 OA
BRANCH  11  12
ATOM     12  C   UNL     1      45.169   2.028   9.155  0.00  0.00    +0.000 C 
BRANCH  12  13
ATOM     13  C   UNL     1      46.022   2.150   7.908  0.00  0.00    +0.000 A 
ATOM     14  N   UNL     1      46.007   3.350   7.261  0.00  0.00    +0.000 NA
ATOM     15  C   UNL     1      46.774   3.475   6.156  0.00  0.00    +0.000 A 
ATOM     16  C   UNL     1      47.565   2.458   5.647  0.00  0.00    +0.000 A 
ATOM     17  C   UNL     1      47.571   1.235   6.308  0.00  0.00    +0.000 A 
ATOM     18  C   UNL     1      46.791   1.077   7.452  0.00  0.00    +0.000 A 
BRANCH  18  19
ATOM     19  O   UNL     1      46.765  -0.121   8.103  0.00  0.00    +0.000 OA
ATOM     20  H   UNL     1      45.939  -0.583   7.882  0.00  0.00    +0.000 HD
ENDBRANCH  18  19
ENDBRANCH  12  13
ENDBRANCH  11  12
ENDBRANCH   4  11
TORSDOF 6
ENDMDL
MODEL 9
REMARK VINA RESULT:    -5.487      2.844      6.231
REMARK INTER + INTRA:          -7.732
REMARK INTER:                  -7.247
REMARK INTRA:                  -0.485
REMARK UNBOUND:                -0.642
REMARK  Name = 
REMARK  6 active torsions:
REMARK  status: ('A' for Active; 'I' for Inactive)
REMARK    1  A    between atoms: N_1  and  C_2
REMARK    2  A    between atoms: C_2  and  C_3
REMARK    3  A    between atoms: C_6  and  O_7
REMARK    4  A    between atoms: O_7  and  C_8
REMARK    5  A    between atoms: C_8  and  C_9
REMARK    6  A    between atoms: C_14  and  O_15
REMARK                            x       y       z     vdW  Elec       q    Type
REMARK                         _______ _______ _______ _____ _____    ______ ____
ROOT
ATOM      1  C   UNL     1      47.384   9.033  12.197  0.00  0.00    +0.000 A 
ATOM      2  C   UNL     1      48.137   7.856  12.088  0.00  0.00    +0.000 A 
ATOM      3  C   UNL     1      47.510   6.609  11.954  0.00  0.00    +0.000 A 
ATOM      4  C   UNL     1      46.120   6.526  11.930  0.00  0.00    +0.000 A 
ATOM      5  C   UNL     1      45.364   7.696  12.011  0.00  0.00    +0.000 A 
ATOM      6  C   UNL     1      45.987   8.941  12.153  0.00  0.00    +0.000 A 
ENDROOT
BRANCH   1   7
ATOM      7  C   UNL     1      48.064  10.368  12.381  0.00  0.00    +0.000 C 
BRANCH   7   8
ATOM      8  N   UNL     1      47.124  11.414  12.771  0.00  0.00    +0.000 NA
ATOM      9  H   UNL     1      47.643  12.195  13.167  0.00  0.00    +0.000 HD
ATOM     10  H   UNL     1      46.528  11.055  13.514  0.00  0.00    +0.000 HD
ENDBRANCH   7   8
ENDBRANCH   1   7
BRANCH   4  11
ATOM     11  O   UNL     1      45.406   5.367  11.769  0.00  0.00    +0.000 OA
BRANCH  11  12
ATOM     12  C   UNL     1      44.556   5.327  10.616  0.00  0.00    +0.000 C 
BRANCH  12  13
ATOM     13  C   UNL     1      45.060   4.280   9.645  0.00  0.00    +0.000 A 
ATOM     14  N   UNL     1      45.712   4.726   8.533  0.00  0.00    +0.000 NA
ATOM     15  C   UNL     1      46.178   3.800   7.667  0.00  0.00    +0.000 A 
ATOM     16  C   UNL     1      46.028   2.436   7.842  0.00  0.00    +0.000 A 
ATOM     17  C   UNL     1      45.357   1.986   8.975  0.00  0.00    +0.000 A 
ATOM     18  C   UNL     1      44.867   2.918   9.888  0.00  0.00    +0.000 A 
BRANCH  18  19
ATOM     19  O   UNL     1      44.187   2.500  10.993  0.00  0.00    +0.000 OA
ATOM     20  H   UNL     1      44.755   2.610  11.774  0.00  0.00    +0.000 HD
ENDBRANCH  18  19
ENDBRANCH  12  13
ENDBRANCH  11  12
ENDBRANCH   4  11
TORSDOF 6
ENDMDL
