MODEL 1
REMARK VINA RESULT:    -7.203      0.000      0.000
REMARK INTER + INTRA:          -9.422
REMARK INTER:                  -8.887
REMARK INTRA:                  -0.535
REMARK UNBOUND:                -0.535
REMARK  Name = 
REMARK  7 active torsions:
REMARK  status: ('A' for Active; 'I' for Inactive)
REMARK    1  A    between atoms: C_1  and  C_2
REMARK    2  A    between atoms: C_2  and  C_3
REMARK    3  A    between atoms: C_2  and  C_4
REMARK    4  A    between atoms: C_2  and  C_5
REMARK    5  A    between atoms: C_8  and  C_9
REMARK    6  A    between atoms: C_9  and  N_10
REMARK    7  A    between atoms: C_16  and  C_17
REMARK                            x       y       z     vdW  Elec       q    Type
REMARK                         _______ _______ _______ _____ _____    ______ ____
ROOT
ATOM      1  N   UNL     1      44.338   4.675  12.181  0.00  0.00    +0.000 N 
ATOM      2  C   UNL     1      43.898   3.375  12.465  0.00  0.00    +0.000 A 
ATOM      3  C   UNL     1      43.405   2.902  11.269  0.00  0.00    +0.000 A 
ATOM      4  C   UNL     1      44.366   3.407  10.347  0.00  0.00    +0.000 A 
ATOM      5  C   UNL     1      44.933   2.959   9.142  0.00  0.00    +0.000 A 
ATOM      6 CL   UNL     1      44.709   1.286   8.822  0.00  0.00    +0.000 Cl
ATOM      7  C   UNL     1      45.754   3.803   8.397  0.00  0.00    +0.000 A 
ATOM      8  C   UNL     1      45.906   5.134   8.808  0.00  0.00    +0.000 A 
ATOM      9  C   UNL     1      45.399   5.599  10.036  0.00  0.00    +0.000 A 
ATOM     10  C   UNL     1      44.718   4.678  10.833  0.00  0.00    +0.000 A 
ENDROOT
BRANCH   7  11
ATOM     11  C   UNL     1      46.484   3.315   7.253  0.00  0.00    +0.000 C 
ATOM     12  N   UNL     1      47.032   2.884   6.343  0.00  0.00    +0.000 NA
ENDBRANCH   7  11
BRANCH   1  13
ATOM     13  C   UNL     1      44.935   5.458  13.268  0.00  0.00    +0.000 C 
BRANCH  13  17
ATOM     14  C   UNL     1      48.507   7.801  12.424  0.00  0.00    +0.000 A 
ATOM     15  C   UNL     1      47.228   8.373  12.306  0.00  0.00    +0.000 A 
ATOM     16  C   UNL     1      46.062   7.626  12.554  0.00  0.00    +0.000 A 
ATOM     17  C   UNL     1      46.142   6.280  12.928  0.00  0.00    +0.000 A 
ATOM     18  C   UNL     1      47.412   5.722  13.104  0.00  0.00    +0.000 A 
ATOM     19  C   UNL     1      48.569   6.465  12.857  0.00  0.00    +0.000 A 
BRANCH  14  21
ATOM     20  C   UNL     1      50.710   7.762  11.079  0.00  0.00    +0.000 C 
ATOM     21  C   UNL     1      49.806   8.543  12.058  0.00  0.00    +0.000 C 
ATOM     22  C   UNL     1      50.625   8.785  13.349  0.00  0.00    +0.000 C 
ATOM     23  C   UNL     1      49.506   9.912  11.411  0.00  0.00    +0.000 C 
ENDBRANCH  14  21
ENDBRANCH  13  17
ENDBRANCH   1  13
TORSDOF 4
ENDMDL
MODEL 2
REMARK VINA RESULT:    -7.042      2.833      6.544
REMARK INTER + INTRA:          -9.223
REMARK INTER:                  -8.551
REMARK INTRA:                  -0.672
REMARK UNBOUND:                -0.535
REMARK  Name = 
REMARK  7 active torsions:
REMARK  status: ('A' for Active; 'I' for Inactive)
REMARK    1  A    between atoms: C_1  and  C_2
REMARK    2  A    between atoms: C_2  and  C_3
REMARK    3  A    between atoms: C_2  and  C_4
REMARK    4  A    between atoms: C_2  and  C_5
REMARK    5  A    between atoms: C_8  and  C_9
REMARK    6  A    between atoms: C_9  and  N_10
REMARK    7  A    between atoms: C_16  and  C_17
REMARK                            x       y       z     vdW  Elec       q    Type
REMARK                         _______ _______ _______ _____ _____    ______ ____
ROOT
ATOM      1  N   UNL     1      43.809   5.514  11.643  0.00  0.00    +0.000 N 
ATOM      2  C   UNL     1      43.662   6.710  10.928  0.00  0.00    +0.000 A 
ATOM      3  C   UNL     1      44.162   7.684  11.767  0.00  0.00    +0.000 A 
ATOM      4  C   UNL     1      45.301   7.028  12.314  0.00  0.00    +0.000 A 
ATOM      5  C   UNL     1      46.584   7.426  12.730  0.00  0.00    +0.000 A 
ATOM      6 CL   UNL     1      47.070   8.976  12.173  0.00  0.00    +0.000 Cl
ATOM      7  C   UNL     1      47.419   6.523  13.384  0.00  0.00    +0.000 A 
ATOM      8  C   UNL     1      46.917   5.260  13.722  0.00  0.00    +0.000 A 
ATOM      9  C   UNL     1      45.661   4.811  13.274  0.00  0.00    +0.000 A 
ATOM     10  C   UNL     1      44.918   5.687  12.481  0.00  0.00    +0.000 A 
ENDROOT
BRANCH   7  11
ATOM     11  C   UNL     1      48.796   6.850  13.665  0.00  0.00    +0.000 C 
ATOM     12  N   UNL     1      49.897   7.119  13.838  0.00  0.00    +0.000 NA
ENDBRANCH   7  11
BRANCH   1  13
ATOM     13  C   UNL     1      43.370   4.268  11.006  0.00  0.00    +0.000 C 
BRANCH  13  17
ATOM     14  C   UNL     1      45.936   2.627   7.895  0.00  0.00    +0.000 A 
ATOM     15  C   UNL     1      45.330   1.786   8.845  0.00  0.00    +0.000 A 
ATOM     16  C   UNL     1      44.515   2.300   9.869  0.00  0.00    +0.000 A 
ATOM     17  C   UNL     1      44.283   3.675   9.975  0.00  0.00    +0.000 A 
ATOM     18  C   UNL     1      44.834   4.511   8.999  0.00  0.00    +0.000 A 
ATOM     19  C   UNL     1      45.643   3.999   7.982  0.00  0.00    +0.000 A 
BRANCH  14  21
ATOM     20  C   UNL     1      48.322   2.773   6.919  0.00  0.00    +0.000 C 
ATOM     21  C   UNL     1      46.922   2.127   6.822  0.00  0.00    +0.000 C 
ATOM     22  C   UNL     1      46.354   2.464   5.423  0.00  0.00    +0.000 C 
ATOM     23  C   UNL     1      47.116   0.598   6.911  0.00  0.00    +0.000 C 
ENDBRANCH  14  21
ENDBRANCH  13  17
ENDBRANCH   1  13
TORSDOF 4
ENDMDL
MODEL 3
REMARK VINA RESULT:    -6.536      1.361      2.123
REMARK INTER + INTRA:          -8.599
REMARK INTER:                  -7.649
REMARK INTRA:                  -0.950
REMARK UNBOUND:                -0.535
REMARK  Name = 
REMARK  7 active torsions:
REMARK  status: ('A' for Active; 'I' for Inactive)
REMARK    1  A    between atoms: C_1  and  C_2
REMARK    2  A    between atoms: C_2  and  C_3
REMARK    3  A    between atoms: C_2  and  C_4
REMARK    4  A    between atoms: C_2  and  C_5
REMARK    5  A    between atoms: C_8  and  C_9
REMARK    6  A    between atoms: C_9  and  N_10
REMARK    7  A    between atoms: C_16  and  C_17
REMARK                            x       y       z     vdW  Elec       q    Type
REMARK                         _______ _______ _______ _____ _____    ______ ____
ROOT
ATOM      1  N   UNL     1      43.863   3.737  10.478  0.00  0.00    +0.000 N 
ATOM      2  C   UNL     1      43.755   2.408  10.909  0.00  0.00    +0.000 A 
ATOM      3  C   UNL     1      43.870   1.656   9.760  0.00  0.00    +0.000 A 
ATOM      4  C   UNL     1      44.895   2.357   9.063  0.00  0.00    +0.000 A 
ATOM      5  C   UNL     1      45.949   2.000   8.205  0.00  0.00    +0.000 A 
ATOM      6 CL   UNL     1      46.354   0.332   8.219  0.00  0.00    +0.000 Cl
ATOM      7  C   UNL     1      46.689   2.988   7.557  0.00  0.00    +0.000 A 
ATOM      8  C   UNL     1      46.290   4.325   7.684  0.00  0.00    +0.000 A 
ATOM      9  C   UNL     1      45.277   4.720   8.577  0.00  0.00    +0.000 A 
ATOM     10  C   UNL     1      44.667   3.717   9.331  0.00  0.00    +0.000 A 
ENDROOT
BRANCH   7  11
ATOM     11  C   UNL     1      47.879   2.659   6.811  0.00  0.00    +0.000 C 
ATOM     12  N   UNL     1      48.799   2.409   6.174  0.00  0.00    +0.000 NA
ENDBRANCH   7  11
BRANCH   1  13
ATOM     13  C   UNL     1      43.788   4.800  11.485  0.00  0.00    +0.000 C 
BRANCH  13  17
ATOM     14  C   UNL     1      47.551   6.781  12.418  0.00  0.00    +0.000 A 
ATOM     15  C   UNL     1      47.294   5.476  12.872  0.00  0.00    +0.000 A 
ATOM     16  C   UNL     1      46.076   4.828  12.599  0.00  0.00    +0.000 A 
ATOM     17  C   UNL     1      45.076   5.470  11.861  0.00  0.00    +0.000 A 
ATOM     18  C   UNL     1      45.348   6.745  11.356  0.00  0.00    +0.000 A 
ATOM     19  C   UNL     1      46.558   7.387  11.629  0.00  0.00    +0.000 A 
BRANCH  14  21
ATOM     20  C   UNL     1      49.466   7.130  14.114  0.00  0.00    +0.000 C 
ATOM     21  C   UNL     1      48.821   7.573  12.783  0.00  0.00    +0.000 C 
ATOM     22  C   UNL     1      48.454   9.070  12.924  0.00  0.00    +0.000 C 
ATOM     23  C   UNL     1      49.899   7.440  11.685  0.00  0.00    +0.000 C 
ENDBRANCH  14  21
ENDBRANCH  13  17
ENDBRANCH   1  13
TORSDOF 4
ENDMDL
MODEL 4
REMARK VINA RESULT:    -6.095      2.187      3.505
REMARK INTER + INTRA:          -8.055
REMARK INTER:                  -8.283
REMARK INTRA:                   0.228
REMARK UNBOUND:                -0.535
REMARK  Name = 
REMARK  7 active torsions:
REMARK  status: ('A' for Active; 'I' for Inactive)
REMARK    1  A    between atoms: C_1  and  C_2
REMARK    2  A    between atoms: C_2  and  C_3
REMARK    3  A    between atoms: C_2  and  C_4
REMARK    4  A    between atoms: C_2  and  C_5
REMARK    5  A    between atoms: C_8  and  C_9
REMARK    6  A    between atoms: C_9  and  N_10
REMARK    7  A    between atoms: C_16  and  C_17
REMARK                            x       y       z     vdW  Elec       q    Type
REMARK                         _______ _______ _______ _____ _____    ______ ____
ROOT
ATOM      1  N   UNL     1      45.101   5.532  10.796  0.00  0.00    +0.000 N 
ATOM      2  C   UNL     1      44.312   4.589  11.468  0.00  0.00    +0.000 A 
ATOM      3  C   UNL     1      43.720   3.849  10.468  0.00  0.00    +0.000 A 
ATOM      4  C   UNL     1      44.793   3.714   9.542  0.00  0.00    +0.000 A 
ATOM      5  C   UNL     1      45.225   2.723   8.645  0.00  0.00    +0.000 A 
ATOM      6 CL   UNL     1      44.547   1.168   8.912  0.00  0.00    +0.000 Cl
ATOM      7  C   UNL     1      46.258   2.991   7.748  0.00  0.00    +0.000 A 
ATOM      8  C   UNL     1      46.771   4.293   7.678  0.00  0.00    +0.000 A 
ATOM      9  C   UNL     1      46.401   5.292   8.597  0.00  0.00    +0.000 A 
ATOM     10  C   UNL     1      45.482   4.939   9.586  0.00  0.00    +0.000 A 
ENDROOT
BRANCH   7  11
ATOM     11  C   UNL     1      46.835   1.945   6.940  0.00  0.00    +0.000 C 
ATOM     12  N   UNL     1      47.332   1.147   6.285  0.00  0.00    +0.000 NA
ENDBRANCH   7  11
BRANCH   1  13
ATOM     13  C   UNL     1      45.881   6.481  11.597  0.00  0.00    +0.000 C 
BRANCH  13  17
ATOM     14  C   UNL     1      47.609   5.046  15.327  0.00  0.00    +0.000 A 
ATOM     15  C   UNL     1      46.611   4.308  14.666  0.00  0.00    +0.000 A 
ATOM     16  C   UNL     1      46.026   4.766  13.472  0.00  0.00    +0.000 A 
ATOM     17  C   UNL     1      46.424   5.981  12.902  0.00  0.00    +0.000 A 
ATOM     18  C   UNL     1      47.457   6.689  13.522  0.00  0.00    +0.000 A 
ATOM     19  C   UNL     1      48.036   6.233  14.708  0.00  0.00    +0.000 A 
BRANCH  14  21
ATOM     20  C   UNL     1      49.498   5.402  17.051  0.00  0.00    +0.000 C 
ATOM     21  C   UNL     1      48.202   4.643  16.690  0.00  0.00    +0.000 C 
ATOM     22  C   UNL     1      48.543   3.134  16.662  0.00  0.00    +0.000 C 
ATOM     23  C   UNL     1      47.194   4.891  17.833  0.00  0.00    +0.000 C 
ENDBRANCH  14  21
ENDBRANCH  13  17
ENDBRANCH   1  13
TORSDOF 4
ENDMDL
MODEL 5
REMARK VINA RESULT:    -5.944      3.025      6.467
REMARK INTER + INTRA:          -7.869
REMARK INTER:                  -7.197
REMARK INTRA:                  -0.671
REMARK UNBOUND:                -0.535
REMARK  Name = 
REMARK  7 active torsions:
REMARK  status: ('A' for Active; 'I' for Inactive)
REMARK    1  A    between atoms: C_1  and  C_2
REMARK    2  A    between atoms: C_2  and  C_3
REMARK    3  A    between atoms: C_2  and  C_4
REMARK    4  A    between atoms: C_2  and  C_5
REMARK    5  A    between atoms: C_8  and  C_9
REMARK    6  A    between atoms: C_9  and  N_10
REMARK    7  A    between atoms: C_16  and  C_17
REMARK                            x       y       z     vdW  Elec       q    Type
REMARK                         _______ _______ _______ _____ _____    ______ ____
ROOT
ATOM      1  N   UNL     1      45.481   7.428  12.886  0.00  0.00    +0.000 N 
ATOM      2  C   UNL     1      45.001   8.629  12.346  0.00  0.00    +0.000 A 
ATOM      3  C   UNL     1      45.977   9.558  12.634  0.00  0.00    +0.000 A 
ATOM      4  C   UNL     1      47.163   8.807  12.394  0.00  0.00    +0.000 A 
ATOM      5  C   UNL     1      48.447   9.090  11.899  0.00  0.00    +0.000 A 
ATOM      6 CL   UNL     1      48.582  10.587  11.069  0.00  0.00    +0.000 Cl
ATOM      7  C   UNL     1      49.446   8.119  11.947  0.00  0.00    +0.000 A 
ATOM      8  C   UNL     1      49.181   6.908  12.599  0.00  0.00    +0.000 A 
ATOM      9  C   UNL     1      47.893   6.571  13.055  0.00  0.00    +0.000 A 
ATOM     10  C   UNL     1      46.878   7.506  12.843  0.00  0.00    +0.000 A 
ENDROOT
BRANCH   7  11
ATOM     11  C   UNL     1      50.715   8.323  11.293  0.00  0.00    +0.000 C 
ATOM     12  N   UNL     1      51.720   8.437  10.753  0.00  0.00    +0.000 NA
ENDBRANCH   7  11
BRANCH   1  13
ATOM     13  C   UNL     1      44.659   6.223  12.735  0.00  0.00    +0.000 C 
BRANCH  13  17
ATOM     14  C   UNL     1      45.428   3.782   9.213  0.00  0.00    +0.000 A 
ATOM     15  C   UNL     1      44.874   3.215  10.374  0.00  0.00    +0.000 A 
ATOM     16  C   UNL     1      44.638   3.983  11.528  0.00  0.00    +0.000 A 
ATOM     17  C   UNL     1      44.952   5.346  11.555  0.00  0.00    +0.000 A 
ATOM     18  C   UNL     1      45.448   5.929  10.385  0.00  0.00    +0.000 A 
ATOM     19  C   UNL     1      45.682   5.164   9.240  0.00  0.00    +0.000 A 
BRANCH  14  21
ATOM     20  C   UNL     1      46.245   1.517   8.282  0.00  0.00    +0.000 C 
ATOM     21  C   UNL     1      45.807   2.964   7.964  0.00  0.00    +0.000 C 
ATOM     22  C   UNL     1      46.991   3.658   7.250  0.00  0.00    +0.000 C 
ATOM     23  C   UNL     1      44.626   2.876   6.973  0.00  0.00    +0.000 C 
ENDBRANCH  14  21
ENDBRANCH  13  17
ENDBRANCH   1  13
TORSDOF 4
ENDMDL
MODEL 6
REMARK VINA RESULT:    -5.816      2.483      3.595
REMARK INTER + INTRA:          -7.711
REMARK INTER:                  -6.931
REMARK INTRA:                  -0.780
REMARK UNBOUND:                -0.535
REMARK  Name = 
REMARK  7 active torsions:
REMARK  status: ('A' for Active; 'I' for Inactive)
REMARK    1  A    between atoms: C_1  and  C_2
REMARK    2  A    between atoms: C_2  and  C_3
REMARK    3  A    between atoms: C_2  and  C_4
REMARK    4  A    between atoms: C_2  and  C_5
REMARK    5  A    between atoms: C_8  and  C_9
REMARK    6  A    between atoms: C_9  and  N_10
REMARK    7  A    between atoms: C_16  and  C_17
REMARK                            x       y       z     vdW  Elec       q    Type
REMARK                         _______ _______ _______ _____ _____    ______ ____
ROOT
ATOM      1  N   UNL     1      44.291   3.990  11.207  0.00  0.00    +0.000 N 
ATOM      2  C   UNL     1      44.018   2.661  11.558  0.00  0.00    +0.000 A 
ATOM      3  C   UNL     1      43.826   2.013  10.357  0.00  0.00    +0.000 A 
ATOM      4  C   UNL     1      44.843   2.602   9.552  0.00  0.00    +0.000 A 
ATOM      5  C   UNL     1      45.678   2.162   8.511  0.00  0.00    +0.000 A 
ATOM      6 CL   UNL     1      45.782   0.456   8.345  0.00  0.00    +0.000 Cl
ATOM      7  C   UNL     1      46.475   3.073   7.820  0.00  0.00    +0.000 A 
ATOM      8  C   UNL     1      46.339   4.439   8.101  0.00  0.00    +0.000 A 
ATOM      9  C   UNL     1      45.556   4.907   9.172  0.00  0.00    +0.000 A 
ATOM     10  C   UNL     1      44.898   3.950   9.946  0.00  0.00    +0.000 A 
ENDROOT
BRANCH   7  11
ATOM     11  C   UNL     1      47.464   2.628   6.869  0.00  0.00    +0.000 C 
ATOM     12  N   UNL     1      48.219   2.292   6.075  0.00  0.00    +0.000 NA
ENDBRANCH   7  11
BRANCH   1  13
ATOM     13  C   UNL     1      44.554   4.951  12.283  0.00  0.00    +0.000 C 
BRANCH  13  17
ATOM     14  C   UNL     1      44.258   9.131  11.102  0.00  0.00    +0.000 A 
ATOM     15  C   UNL     1      45.436   8.631  11.686  0.00  0.00    +0.000 A 
ATOM     16  C   UNL     1      45.542   7.289  12.093  0.00  0.00    +0.000 A 
ATOM     17  C   UNL     1      44.470   6.405  11.928  0.00  0.00    +0.000 A 
ATOM     18  C   UNL     1      43.318   6.882  11.295  0.00  0.00    +0.000 A 
ATOM     19  C   UNL     1      43.214   8.215  10.891  0.00  0.00    +0.000 A 
BRANCH  14  21
ATOM     20  C   UNL     1      45.250  11.515  11.119  0.00  0.00    +0.000 C 
ATOM     21  C   UNL     1      44.053  10.615  10.741  0.00  0.00    +0.000 C 
ATOM     22  C   UNL     1      42.816  11.149  11.501  0.00  0.00    +0.000 C 
ATOM     23  C   UNL     1      43.807  10.793   9.227  0.00  0.00    +0.000 C 
ENDBRANCH  14  21
ENDBRANCH  13  17
ENDBRANCH   1  13
TORSDOF 4
ENDMDL
MODEL 7
REMARK VINA RESULT:    -5.739      5.079      8.526
REMARK INTER + INTRA:          -7.616
REMARK INTER:                  -6.878
REMARK INTRA:                  -0.738
REMARK UNBOUND:                -0.535
REMARK  Name = 
REMARK  7 active torsions:
REMARK  status: ('A' for Active; 'I' for Inactive)
REMARK    1  A    between atoms: C_1  and  C_2
REMARK    2  A    between atoms: C_2  and  C_3
REMARK    3  A    between atoms: C_2  and  C_4
REMARK    4  A    between atoms: C_2  and  C_5
REMARK    5  A    between atoms: C_8  and  C_9
REMARK    6  A    between atoms: C_9  and  N_10
REMARK    7  A    between atoms: C_16  and  C_17
REMARK                            x       y       z     vdW  Elec       q    Type
REMARK                         _______ _______ _______ _____ _____    ______ ____
ROOT
ATOM      1  N   UNL     1      48.510   7.158  15.213  0.00  0.00    +0.000 N 
ATOM      2  C   UNL     1      48.879   8.487  15.459  0.00  0.00    +0.000 A 
ATOM      3  C   UNL     1      48.603   8.685  16.795  0.00  0.00    +0.000 A 
ATOM      4  C   UNL     1      49.033   7.451  17.360  0.00  0.00    +0.000 A 
ATOM      5  C   UNL     1      49.626   7.054  18.571  0.00  0.00    +0.000 A 
ATOM      6 CL   UNL     1      50.317   8.333  19.485  0.00  0.00    +0.000 Cl
ATOM      7  C   UNL     1      49.774   5.700  18.868  0.00  0.00    +0.000 A 
ATOM      8  C   UNL     1      49.219   4.753  17.998  0.00  0.00    +0.000 A 
ATOM      9  C   UNL     1      48.669   5.112  16.753  0.00  0.00    +0.000 A 
ATOM     10  C   UNL     1      48.686   6.467  16.418  0.00  0.00    +0.000 A 
ENDROOT
BRANCH   7  11
ATOM     11  C   UNL     1      50.530   5.267  20.017  0.00  0.00    +0.000 C 
ATOM     12  N   UNL     1      51.141   4.974  20.942  0.00  0.00    +0.000 NA
ENDBRANCH   7  11
BRANCH   1  13
ATOM     13  C   UNL     1      48.692   6.628  13.857  0.00  0.00    +0.000 C 
BRANCH  13  17
ATOM     14  C   UNL     1      45.198   5.008  11.827  0.00  0.00    +0.000 A 
ATOM     15  C   UNL     1      45.881   6.121  11.305  0.00  0.00    +0.000 A 
ATOM     16  C   UNL     1      46.998   6.671  11.958  0.00  0.00    +0.000 A 
ATOM     17  C   UNL     1      47.466   6.122  13.157  0.00  0.00    +0.000 A 
ATOM     18  C   UNL     1      46.829   4.979  13.649  0.00  0.00    +0.000 A 
ATOM     19  C   UNL     1      45.719   4.435  12.999  0.00  0.00    +0.000 A 
BRANCH  14  21
ATOM     20  C   UNL     1      43.488   3.073  11.802  0.00  0.00    +0.000 C 
ATOM     21  C   UNL     1      43.907   4.437  11.210  0.00  0.00    +0.000 C 
ATOM     22  C   UNL     1      44.125   4.233   9.692  0.00  0.00    +0.000 C 
ATOM     23  C   UNL     1      42.719   5.404  11.403  0.00  0.00    +0.000 C 
ENDBRANCH  14  21
ENDBRANCH  13  17
ENDBRANCH   1  13
TORSDOF 4
ENDMDL
MODEL 8
REMARK VINA RESULT:    -5.592      4.407      6.124
REMARK INTER + INTRA:          -7.434
REMARK INTER:                  -6.628
REMARK INTRA:                  -0.806
REMARK UNBOUND:                -0.535
REMARK  Name = 
REMARK  7 active torsions:
REMARK  status: ('A' for Active; 'I' for Inactive)
REMARK    1  A    between atoms: C_1  and  C_2
REMARK    2  A    between atoms: C_2  and  C_3
REMARK    3  A    between atoms: C_2  and  C_4
REMARK    4  A    between atoms: C_2  and  C_5
REMARK    5  A    between atoms: C_8  and  C_9
REMARK    6  A    between atoms: C_9  and  N_10
REMARK    7  A    between atoms: C_16  and  C_17
REMARK                            x       y       z     vdW  Elec       q    Type
REMARK                         _______ _______ _______ _____ _____    ______ ____
ROOT
ATOM      1  N   UNL     1      48.240   6.779  14.248  0.00  0.00    +0.000 N 
ATOM      2  C   UNL     1      48.036   7.892  13.420  0.00  0.00    +0.000 A 
ATOM      3  C   UNL     1      47.795   7.361  12.172  0.00  0.00    +0.000 A 
ATOM      4  C   UNL     1      46.973   6.243  12.493  0.00  0.00    +0.000 A 
ATOM      5  C   UNL     1      45.894   5.582  11.881  0.00  0.00    +0.000 A 
ATOM      6 CL   UNL     1      45.130   6.467  10.625  0.00  0.00    +0.000 Cl
ATOM      7  C   UNL     1      45.413   4.387  12.413  0.00  0.00    +0.000 A 
ATOM      8  C   UNL     1      46.094   3.802  13.488  0.00  0.00    +0.000 A 
ATOM      9  C   UNL     1      47.141   4.463  14.158  0.00  0.00    +0.000 A 
ATOM     10  C   UNL     1      47.489   5.734  13.697  0.00  0.00    +0.000 A 
ENDROOT
BRANCH   7  11
ATOM     11  C   UNL     1      44.204   3.781  11.911  0.00  0.00    +0.000 C 
ATOM     12  N   UNL     1      43.229   3.346  11.492  0.00  0.00    +0.000 NA
ENDBRANCH   7  11
BRANCH   1  13
ATOM     13  C   UNL     1      48.517   7.014  15.669  0.00  0.00    +0.000 C 
BRANCH  13  17
ATOM     14  C   UNL     1      51.681   4.720  17.588  0.00  0.00    +0.000 A 
ATOM     15  C   UNL     1      51.976   5.894  16.873  0.00  0.00    +0.000 A 
ATOM     16  C   UNL     1      50.971   6.637  16.229  0.00  0.00    +0.000 A 
ATOM     17  C   UNL     1      49.635   6.224  16.281  0.00  0.00    +0.000 A 
ATOM     18  C   UNL     1      49.326   5.091  17.039  0.00  0.00    +0.000 A 
ATOM     19  C   UNL     1      50.327   4.355  17.678  0.00  0.00    +0.000 A 
BRANCH  14  21
ATOM     20  C   UNL     1      54.178   4.070  17.668  0.00  0.00    +0.000 C 
ATOM     21  C   UNL     1      52.757   3.814  18.217  0.00  0.00    +0.000 C 
ATOM     22  C   UNL     1      52.405   2.338  17.918  0.00  0.00    +0.000 C 
ATOM     23  C   UNL     1      52.818   3.998  19.748  0.00  0.00    +0.000 C 
ENDBRANCH  14  21
ENDBRANCH  13  17
ENDBRANCH   1  13
TORSDOF 4
ENDMDL
MODEL 9
REMARK VINA RESULT:    -5.300      2.305      4.384
REMARK INTER + INTRA:          -7.074
REMARK INTER:                  -6.162
REMARK INTRA:                  -0.911
REMARK UNBOUND:                -0.535
REMARK  Name = 
REMARK  7 active torsions:
REMARK  status: ('A' for Active; 'I' for Inactive)
REMARK    1  A    between atoms: C_1  and  C_2
REMARK    2  A    between atoms: C_2  and  C_3
REMARK    3  A    between atoms: C_2  and  C_4
REMARK    4  A    between atoms: C_2  and  C_5
REMARK    5  A    between atoms: C_8  and  C_9
REMARK    6  A    between atoms: C_9  and  N_10
REMARK    7  A    between atoms: C_16  and  C_17
REMARK                            x       y       z     vdW  Elec       q    Type
REMARK                         _______ _______ _______ _____ _____    ______ ____
ROOT
ATOM      1  N   UNL     1      47.807   7.442  13.935  0.00  0.00    +0.000 N 
ATOM      2  C   UNL     1      48.317   6.272  14.513  0.00  0.00    +0.000 A 
ATOM      3  C   UNL     1      47.235   5.423  14.602  0.00  0.00    +0.000 A 
ATOM      4  C   UNL     1      46.578   5.672  13.363  0.00  0.00    +0.000 A 
ATOM      5  C   UNL     1      45.834   4.904  12.451  0.00  0.00    +0.000 A 
ATOM      6 CL   UNL     1      45.995   3.206  12.642  0.00  0.00    +0.000 Cl
ATOM      7  C   UNL     1      45.183   5.521  11.384  0.00  0.00    +0.000 A 
ATOM      8  C   UNL     1      45.186   6.920  11.308  0.00  0.00    +0.000 A 
ATOM      9  C   UNL     1      45.965   7.714  12.170  0.00  0.00    +0.000 A 
ATOM     10  C   UNL     1      46.734   7.049  13.126  0.00  0.00    +0.000 A 
ENDROOT
BRANCH   7  11
ATOM     11  C   UNL     1      44.560   4.744  10.341  0.00  0.00    +0.000 C 
ATOM     12  N   UNL     1      44.076   4.083   9.538  0.00  0.00    +0.000 NA
ENDBRANCH   7  11
BRANCH   1  13
ATOM     13  C   UNL     1      48.730   8.556  13.695  0.00  0.00    +0.000 C 
BRANCH  13  17
ATOM     14  C   UNL     1      52.169   7.931  11.099  0.00  0.00    +0.000 A 
ATOM     15  C   UNL     1      50.875   7.579  10.675  0.00  0.00    +0.000 A 
ATOM     16  C   UNL     1      49.755   7.755  11.508  0.00  0.00    +0.000 A 
ATOM     17  C   UNL     1      49.898   8.287  12.794  0.00  0.00    +0.000 A 
ATOM     18  C   UNL     1      51.173   8.693  13.199  0.00  0.00    +0.000 A 
ATOM     19  C   UNL     1      52.284   8.518  12.370  0.00  0.00    +0.000 A 
BRANCH  14  21
ATOM     20  C   UNL     1      53.521   8.491   8.972  0.00  0.00    +0.000 C 
ATOM     21  C   UNL     1      53.438   7.658  10.270  0.00  0.00    +0.000 C 
ATOM     22  C   UNL     1      53.459   6.166   9.862  0.00  0.00    +0.000 C 
ATOM     23  C   UNL     1      54.715   7.955  11.086  0.00  0.00    +0.000 C 
ENDBRANCH  14  21
ENDBRANCH  13  17
ENDBRANCH   1  13
TORSDOF 4
ENDMDL
