MODEL 1
REMARK VINA RESULT:    -8.079      0.000      0.000
REMARK INTER + INTRA:         -11.822
REMARK INTER:                 -10.913
REMARK INTRA:                  -0.909
REMARK UNBOUND:                -0.909
REMARK  Name = 
REMARK  6 active torsions:
REMARK  status: ('A' for Active; 'I' for Inactive)
REMARK    1  A    between atoms: C_2  and  C_18
REMARK    2  A    between atoms: N_3  and  C_4
REMARK    3  A    between atoms: C_4  and  C_5
REMARK    4  A    between atoms: C_8  and  C_9
REMARK    5  A    between atoms: C_9  and  C_10
REMARK    6  A    between atoms: C_10  and  C_11
REMARK                            x       y       z     vdW  Elec       q    Type
REMARK                         _______ _______ _______ _____ _____    ______ ____
ROOT
ATOM      1  O   UNL     1      49.508   6.695  13.863  0.00  0.00    +0.000 OA
ATOM      2  C   UNL     1      48.615   6.604  14.702  0.00  0.00    +0.000 C 
ATOM      3  N   UNL     1      47.287   6.732  14.375  0.00  0.00    +0.000 N 
ATOM      4  H   UNL     1      46.606   6.890  15.111  0.00  0.00    +0.000 HD
ENDROOT
BRANCH   2   5
ATOM      5  C   UNL     1      48.919   6.312  16.103  0.00  0.00    +0.000 A 
ATOM      6  C   UNL     1      49.554   7.263  16.894  0.00  0.00    +0.000 A 
ATOM      7  S   UNL     1      49.815   6.747  18.499  0.00  0.00    +0.000 S 
ATOM      8  C   UNL     1      49.053   5.255  18.203  0.00  0.00    +0.000 A 
ATOM      9  N   UNL     1      48.895   4.335  19.194  0.00  0.00    +0.000 NA
ATOM     10  C   UNL     1      48.272   3.265  18.832  0.00  0.00    +0.000 A 
ATOM     11  N   UNL     1      47.795   3.021  17.571  0.00  0.00    +0.000 N 
ATOM     12  C   UNL     1      47.971   3.897  16.525  0.00  0.00    +0.000 A 
ATOM     13  O   UNL     1      47.600   3.623  15.387  0.00  0.00    +0.000 OA
ATOM     14  C   UNL     1      48.636   5.137  16.889  0.00  0.00    +0.000 A 
ATOM     15  H   UNL     1      47.340   2.154  17.345  0.00  0.00    +0.000 HD
ENDBRANCH   2   5
BRANCH   3  16
ATOM     16  C   UNL     1      46.910   7.108  13.039  0.00  0.00    +0.000 C 
BRANCH  16  17
ATOM     17  C   UNL     1      46.159   6.020  12.319  0.00  0.00    +0.000 A 
ATOM     18  C   UNL     1      45.758   6.207  10.993  0.00  0.00    +0.000 A 
ATOM     19  C   UNL     1      45.123   5.182  10.289  0.00  0.00    +0.000 A 
ATOM     20  C   UNL     1      44.869   3.941  10.889  0.00  0.00    +0.000 A 
ATOM     21  C   UNL     1      45.222   3.778  12.237  0.00  0.00    +0.000 A 
ATOM     22  C   UNL     1      45.857   4.805  12.946  0.00  0.00    +0.000 A 
BRANCH  20  23
ATOM     23  C   UNL     1      44.170   2.810  10.157  0.00  0.00    +0.000 C 
BRANCH  23  24
ATOM     24  C   UNL     1      44.528   2.698   8.667  0.00  0.00    +0.000 C 
BRANCH  24  25
ATOM     25  C   UNL     1      46.023   2.507   8.420  0.00  0.00    +0.000 C 
ATOM     26  C   UNL     1      46.448   3.083   7.074  0.00  0.00    +0.000 C 
ATOM     27  C   UNL     1      47.545   2.146   6.643  0.00  0.00    +0.000 C 
ATOM     28  C   UNL     1      47.057   0.820   7.180  0.00  0.00    +0.000 C 
ATOM     29  O   UNL     1      46.342   1.105   8.388  0.00  0.00    +0.000 OA
ENDBRANCH  24  25
ENDBRANCH  23  24
ENDBRANCH  20  23
ENDBRANCH  16  17
ENDBRANCH   3  16
TORSDOF 6
ENDMDL
MODEL 2
REMARK VINA RESULT:    -7.516      1.660      2.418
REMARK INTER + INTRA:         -11.061
REMARK INTER:                 -10.272
REMARK INTRA:                  -0.788
REMARK UNBOUND:                -0.909
REMARK  Name = 
REMARK  6 active torsions:
REMARK  status: ('A' for Active; 'I' for Inactive)
REMARK    1  A    between atoms: C_2  and  C_18
REMARK    2  A    between atoms: N_3  and  C_4
REMARK    3  A    between atoms: C_4  and  C_5
REMARK    4  A    between atoms: C_8  and  C_9
REMARK    5  A    between atoms: C_9  and  C_10
REMARK    6  A    between atoms: C_10  and  C_11
REMARK                            x       y       z     vdW  Elec       q    Type
REMARK                         _______ _______ _______ _____ _____    ______ ____
ROOT
ATOM      1  O   UNL     1      49.621   6.528  15.058  0.00  0.00    +0.000 OA
ATOM      2  C   UNL     1      48.585   6.105  15.562  0.00  0.00    +0.000 C 
ATOM      3  N   UNL     1      47.410   6.013  14.855  0.00  0.00    +0.000 N 
ATOM      4  H   UNL     1      46.536   5.894  15.356  0.00  0.00    +0.000 HD
ENDROOT
BRANCH   2   5
ATOM      5  C   UNL     1      48.552   5.634  16.948  0.00  0.00    +0.000 A 
ATOM      6  C   UNL     1      48.739   4.286  17.232  0.00  0.00    +0.000 A 
ATOM      7  S   UNL     1      48.679   3.930  18.899  0.00  0.00    +0.000 S 
ATOM      8  C   UNL     1      48.444   5.566  19.298  0.00  0.00    +0.000 A 
ATOM      9  N   UNL     1      48.352   5.969  20.596  0.00  0.00    +0.000 NA
ATOM     10  C   UNL     1      48.206   7.243  20.748  0.00  0.00    +0.000 A 
ATOM     11  N   UNL     1      48.136   8.154  19.728  0.00  0.00    +0.000 N 
ATOM     12  C   UNL     1      48.176   7.792  18.401  0.00  0.00    +0.000 A 
ATOM     13  O   UNL     1      48.036   8.619  17.504  0.00  0.00    +0.000 OA
ATOM     14  C   UNL     1      48.376   6.371  18.175  0.00  0.00    +0.000 A 
ATOM     15  H   UNL     1      47.995   9.132  19.911  0.00  0.00    +0.000 HD
ENDBRANCH   2   5
BRANCH   3  16
ATOM     16  C   UNL     1      47.335   6.538  13.517  0.00  0.00    +0.000 C 
BRANCH  16  17
ATOM     17  C   UNL     1      46.537   5.660  12.593  0.00  0.00    +0.000 A 
ATOM     18  C   UNL     1      46.181   4.368  12.990  0.00  0.00    +0.000 A 
ATOM     19  C   UNL     1      45.381   3.565  12.174  0.00  0.00    +0.000 A 
ATOM     20  C   UNL     1      44.915   4.030  10.936  0.00  0.00    +0.000 A 
ATOM     21  C   UNL     1      45.323   5.305  10.516  0.00  0.00    +0.000 A 
ATOM     22  C   UNL     1      46.126   6.110  11.333  0.00  0.00    +0.000 A 
BRANCH  20  23
ATOM     23  C   UNL     1      44.055   3.179  10.018  0.00  0.00    +0.000 C 
BRANCH  23  24
ATOM     24  C   UNL     1      44.590   3.049   8.584  0.00  0.00    +0.000 C 
BRANCH  24  25
ATOM     25  C   UNL     1      46.029   2.543   8.522  0.00  0.00    +0.000 C 
ATOM     26  C   UNL     1      46.722   2.976   7.234  0.00  0.00    +0.000 C 
ATOM     27  C   UNL     1      47.640   1.817   6.945  0.00  0.00    +0.000 C 
ATOM     28  C   UNL     1      46.823   0.640   7.425  0.00  0.00    +0.000 C 
ATOM     29  O   UNL     1      46.047   1.105   8.536  0.00  0.00    +0.000 OA
ENDBRANCH  24  25
ENDBRANCH  23  24
ENDBRANCH  20  23
ENDBRANCH  16  17
ENDBRANCH   3  16
TORSDOF 6
ENDMDL
MODEL 3
REMARK VINA RESULT:    -7.508      1.428      2.001
REMARK INTER + INTRA:         -11.051
REMARK INTER:                 -10.177
REMARK INTRA:                  -0.874
REMARK UNBOUND:                -0.909
REMARK  Name = 
REMARK  6 active torsions:
REMARK  status: ('A' for Active; 'I' for Inactive)
REMARK    1  A    between atoms: C_2  and  C_18
REMARK    2  A    between atoms: N_3  and  C_4
REMARK    3  A    between atoms: C_4  and  C_5
REMARK    4  A    between atoms: C_8  and  C_9
REMARK    5  A    between atoms: C_9  and  C_10
REMARK    6  A    between atoms: C_10  and  C_11
REMARK                            x       y       z     vdW  Elec       q    Type
REMARK                         _______ _______ _______ _____ _____    ______ ____
ROOT
ATOM      1  O   UNL     1      50.192   6.689  15.405  0.00  0.00    +0.000 OA
ATOM      2  C   UNL     1      49.048   6.851  15.820  0.00  0.00    +0.000 C 
ATOM      3  N   UNL     1      47.972   6.977  14.975  0.00  0.00    +0.000 N 
ATOM      4  H   UNL     1      47.097   7.345  15.335  0.00  0.00    +0.000 HD
ENDROOT
BRANCH   2   5
ATOM      5  C   UNL     1      48.759   6.878  17.255  0.00  0.00    +0.000 A 
ATOM      6  C   UNL     1      48.311   8.048  17.856  0.00  0.00    +0.000 A 
ATOM      7  S   UNL     1      48.017   7.884  19.528  0.00  0.00    +0.000 S 
ATOM      8  C   UNL     1      48.439   6.237  19.498  0.00  0.00    +0.000 A 
ATOM      9  N   UNL     1      48.364   5.469  20.620  0.00  0.00    +0.000 NA
ATOM     10  C   UNL     1      48.684   4.232  20.440  0.00  0.00    +0.000 A 
ATOM     11  N   UNL     1      49.079   3.687  19.246  0.00  0.00    +0.000 N 
ATOM     12  C   UNL     1      49.216   4.430  18.096  0.00  0.00    +0.000 A 
ATOM     13  O   UNL     1      49.643   3.934  17.058  0.00  0.00    +0.000 OA
ATOM     14  C   UNL     1      48.832   5.824  18.237  0.00  0.00    +0.000 A 
ATOM     15  H   UNL     1      49.341   2.719  19.177  0.00  0.00    +0.000 HD
ENDBRANCH   2   5
BRANCH   3  16
ATOM     16  C   UNL     1      48.182   7.051  13.554  0.00  0.00    +0.000 C 
BRANCH  16  17
ATOM     17  C   UNL     1      47.137   6.301  12.773  0.00  0.00    +0.000 A 
ATOM     18  C   UNL     1      46.437   5.250  13.372  0.00  0.00    +0.000 A 
ATOM     19  C   UNL     1      45.415   4.589  12.685  0.00  0.00    +0.000 A 
ATOM     20  C   UNL     1      45.065   4.959  11.379  0.00  0.00    +0.000 A 
ATOM     21  C   UNL     1      45.808   5.976  10.762  0.00  0.00    +0.000 A 
ATOM     22  C   UNL     1      46.834   6.639  11.448  0.00  0.00    +0.000 A 
BRANCH  20  23
ATOM     23  C   UNL     1      43.969   4.254  10.600  0.00  0.00    +0.000 C 
BRANCH  23  24
ATOM     24  C   UNL     1      44.298   2.806  10.208  0.00  0.00    +0.000 C 
BRANCH  24  25
ATOM     25  C   UNL     1      44.649   2.647   8.731  0.00  0.00    +0.000 C 
ATOM     26  C   UNL     1      45.854   1.733   8.535  0.00  0.00    +0.000 C 
ATOM     27  C   UNL     1      46.530   2.329   7.328  0.00  0.00    +0.000 C 
ATOM     28  C   UNL     1      46.276   3.806   7.521  0.00  0.00    +0.000 C 
ATOM     29  O   UNL     1      45.004   3.922   8.168  0.00  0.00    +0.000 OA
ENDBRANCH  24  25
ENDBRANCH  23  24
ENDBRANCH  20  23
ENDBRANCH  16  17
ENDBRANCH   3  16
TORSDOF 6
ENDMDL
MODEL 4
REMARK VINA RESULT:    -7.448      4.085      8.713
REMARK INTER + INTRA:         -10.970
REMARK INTER:                  -9.867
REMARK INTRA:                  -1.103
REMARK UNBOUND:                -0.909
REMARK  Name = 
REMARK  6 active torsions:
REMARK  status: ('A' for Active; 'I' for Inactive)
REMARK    1  A    between atoms: C_2  and  C_18
REMARK    2  A    between atoms: N_3  and  C_4
REMARK    3  A    between atoms: C_4  and  C_5
REMARK    4  A    between atoms: C_8  and  C_9
REMARK    5  A    between atoms: C_9  and  C_10
REMARK    6  A    between atoms: C_10  and  C_11
REMARK                            x       y       z     vdW  Elec       q    Type
REMARK                         _______ _______ _______ _____ _____    ______ ____
ROOT
ATOM      1  O   UNL     1      47.194   3.166  13.999  0.00  0.00    +0.000 OA
ATOM      2  C   UNL     1      46.774   4.230  14.444  0.00  0.00    +0.000 C 
ATOM      3  N   UNL     1      46.781   4.517  15.788  0.00  0.00    +0.000 N 
ATOM      4  H   UNL     1      46.216   5.285  16.136  0.00  0.00    +0.000 HD
ENDROOT
BRANCH   2   5
ATOM      5  C   UNL     1      46.273   5.279  13.554  0.00  0.00    +0.000 A 
ATOM      6  C   UNL     1      47.080   6.363  13.227  0.00  0.00    +0.000 A 
ATOM      7  S   UNL     1      46.330   7.474  12.172  0.00  0.00    +0.000 S 
ATOM      8  C   UNL     1      44.920   6.526  12.085  0.00  0.00    +0.000 A 
ATOM      9  N   UNL     1      43.871   6.893  11.297  0.00  0.00    +0.000 NA
ATOM     10  C   UNL     1      42.884   6.062  11.306  0.00  0.00    +0.000 A 
ATOM     11  N   UNL     1      42.840   4.901  12.031  0.00  0.00    +0.000 N 
ATOM     12  C   UNL     1      43.852   4.510  12.877  0.00  0.00    +0.000 A 
ATOM     13  O   UNL     1      43.756   3.504  13.574  0.00  0.00    +0.000 OA
ATOM     14  C   UNL     1      45.005   5.394  12.876  0.00  0.00    +0.000 A 
ATOM     15  H   UNL     1      42.029   4.307  12.016  0.00  0.00    +0.000 HD
ENDBRANCH   2   5
BRANCH   3  16
ATOM     16  C   UNL     1      47.173   3.507  16.734  0.00  0.00    +0.000 C 
BRANCH  16  17
ATOM     17  C   UNL     1      48.627   3.597  17.111  0.00  0.00    +0.000 A 
ATOM     18  C   UNL     1      49.436   2.459  17.053  0.00  0.00    +0.000 A 
ATOM     19  C   UNL     1      50.803   2.539  17.331  0.00  0.00    +0.000 A 
ATOM     20  C   UNL     1      51.400   3.760  17.675  0.00  0.00    +0.000 A 
ATOM     21  C   UNL     1      50.574   4.888  17.788  0.00  0.00    +0.000 A 
ATOM     22  C   UNL     1      49.203   4.808  17.511  0.00  0.00    +0.000 A 
BRANCH  20  23
ATOM     23  C   UNL     1      52.879   3.880  17.996  0.00  0.00    +0.000 C 
BRANCH  23  24
ATOM     24  C   UNL     1      53.343   3.030  19.188  0.00  0.00    +0.000 C 
BRANCH  24  25
ATOM     25  C   UNL     1      54.267   1.882  18.786  0.00  0.00    +0.000 C 
ATOM     26  C   UNL     1      54.979   2.170  17.468  0.00  0.00    +0.000 C 
ATOM     27  C   UNL     1      55.095   0.802  16.848  0.00  0.00    +0.000 C 
ATOM     28  C   UNL     1      53.812   0.142  17.296  0.00  0.00    +0.000 C 
ATOM     29  O   UNL     1      53.503   0.680  18.587  0.00  0.00    +0.000 OA
ENDBRANCH  24  25
ENDBRANCH  23  24
ENDBRANCH  20  23
ENDBRANCH  16  17
ENDBRANCH   3  16
TORSDOF 6
ENDMDL
MODEL 5
REMARK VINA RESULT:    -7.391      1.914      3.558
REMARK INTER + INTRA:         -10.892
REMARK INTER:                  -9.826
REMARK INTRA:                  -1.066
REMARK UNBOUND:                -0.909
REMARK  Name = 
REMARK  6 active torsions:
REMARK  status: ('A' for Active; 'I' for Inactive)
REMARK    1  A    between atoms: C_2  and  C_18
REMARK    2  A    between atoms: N_3  and  C_4
REMARK    3  A    between atoms: C_4  and  C_5
REMARK    4  A    between atoms: C_8  and  C_9
REMARK    5  A    between atoms: C_9  and  C_10
REMARK    6  A    between atoms: C_10  and  C_11
REMARK                            x       y       z     vdW  Elec       q    Type
REMARK                         _______ _______ _______ _____ _____    ______ ____
ROOT
ATOM      1  O   UNL     1      48.609   4.853  16.368  0.00  0.00    +0.000 OA
ATOM      2  C   UNL     1      48.313   5.829  15.685  0.00  0.00    +0.000 C 
ATOM      3  N   UNL     1      47.309   5.791  14.748  0.00  0.00    +0.000 N 
ATOM      4  H   UNL     1      47.254   6.523  14.047  0.00  0.00    +0.000 HD
ENDROOT
BRANCH   2   5
ATOM      5  C   UNL     1      48.996   7.112  15.860  0.00  0.00    +0.000 A 
ATOM      6  C   UNL     1      49.046   7.712  17.113  0.00  0.00    +0.000 A 
ATOM      7  S   UNL     1      49.891   9.193  17.124  0.00  0.00    +0.000 S 
ATOM      8  C   UNL     1      50.254   9.062  15.467  0.00  0.00    +0.000 A 
ATOM      9  N   UNL     1      51.009  10.003  14.834  0.00  0.00    +0.000 NA
ATOM     10  C   UNL     1      51.229   9.757  13.587  0.00  0.00    +0.000 A 
ATOM     11  N   UNL     1      50.762   8.663  12.907  0.00  0.00    +0.000 N 
ATOM     12  C   UNL     1      49.957   7.711  13.488  0.00  0.00    +0.000 A 
ATOM     13  O   UNL     1      49.490   6.780  12.839  0.00  0.00    +0.000 OA
ATOM     14  C   UNL     1      49.709   7.922  14.904  0.00  0.00    +0.000 A 
ATOM     15  H   UNL     1      50.947   8.541  11.926  0.00  0.00    +0.000 HD
ENDBRANCH   2   5
BRANCH   3  16
ATOM     16  C   UNL     1      46.651   4.546  14.452  0.00  0.00    +0.000 C 
BRANCH  16  17
ATOM     17  C   UNL     1      46.087   4.505  13.058  0.00  0.00    +0.000 A 
ATOM     18  C   UNL     1      45.443   3.352  12.597  0.00  0.00    +0.000 A 
ATOM     19  C   UNL     1      44.852   3.322  11.332  0.00  0.00    +0.000 A 
ATOM     20  C   UNL     1      44.889   4.442  10.490  0.00  0.00    +0.000 A 
ATOM     21  C   UNL     1      45.585   5.576  10.933  0.00  0.00    +0.000 A 
ATOM     22  C   UNL     1      46.179   5.608  12.201  0.00  0.00    +0.000 A 
BRANCH  20  23
ATOM     23  C   UNL     1      44.268   4.438   9.104  0.00  0.00    +0.000 C 
BRANCH  23  24
ATOM     24  C   UNL     1      44.592   3.193   8.265  0.00  0.00    +0.000 C 
BRANCH  24  25
ATOM     25  C   UNL     1      46.088   3.002   8.024  0.00  0.00    +0.000 C 
ATOM     26  C   UNL     1      46.472   3.333   6.586  0.00  0.00    +0.000 C 
ATOM     27  C   UNL     1      47.592   2.364   6.310  0.00  0.00    +0.000 C 
ATOM     28  C   UNL     1      47.154   1.146   7.090  0.00  0.00    +0.000 C 
ATOM     29  O   UNL     1      46.451   1.627   8.241  0.00  0.00    +0.000 OA
ENDBRANCH  24  25
ENDBRANCH  23  24
ENDBRANCH  20  23
ENDBRANCH  16  17
ENDBRANCH   3  16
TORSDOF 6
ENDMDL
MODEL 6
REMARK VINA RESULT:    -6.963      2.459      3.104
REMARK INTER + INTRA:         -10.315
REMARK INTER:                  -9.335
REMARK INTRA:                  -0.980
REMARK UNBOUND:                -0.909
REMARK  Name = 
REMARK  6 active torsions:
REMARK  status: ('A' for Active; 'I' for Inactive)
REMARK    1  A    between atoms: C_2  and  C_18
REMARK    2  A    between atoms: N_3  and  C_4
REMARK    3  A    between atoms: C_4  and  C_5
REMARK    4  A    between atoms: C_8  and  C_9
REMARK    5  A    between atoms: C_9  and  C_10
REMARK    6  A    between atoms: C_10  and  C_11
REMARK                            x       y       z     vdW  Elec       q    Type
REMARK                         _______ _______ _______ _____ _____    ______ ____
ROOT
ATOM      1  O   UNL     1      48.718   5.943  17.868  0.00  0.00    +0.000 OA
ATOM      2  C   UNL     1      49.614   5.757  17.049  0.00  0.00    +0.000 C 
ATOM      3  N   UNL     1      49.569   6.285  15.781  0.00  0.00    +0.000 N 
ATOM      4  H   UNL     1      50.192   5.921  15.068  0.00  0.00    +0.000 HD
ENDROOT
BRANCH   2   5
ATOM      5  C   UNL     1      50.810   4.989  17.396  0.00  0.00    +0.000 A 
ATOM      6  C   UNL     1      51.954   5.640  17.844  0.00  0.00    +0.000 A 
ATOM      7  S   UNL     1      53.240   4.581  18.209  0.00  0.00    +0.000 S 
ATOM      8  C   UNL     1      52.300   3.217  17.821  0.00  0.00    +0.000 A 
ATOM      9  N   UNL     1      52.798   1.956  17.958  0.00  0.00    +0.000 NA
ATOM     10  C   UNL     1      51.962   1.020  17.658  0.00  0.00    +0.000 A 
ATOM     11  N   UNL     1      50.677   1.220  17.227  0.00  0.00    +0.000 N 
ATOM     12  C   UNL     1      50.145   2.473  17.026  0.00  0.00    +0.000 A 
ATOM     13  O   UNL     1      49.016   2.627  16.568  0.00  0.00    +0.000 OA
ATOM     14  C   UNL     1      51.034   3.565  17.386  0.00  0.00    +0.000 A 
ATOM     15  H   UNL     1      50.083   0.448  16.983  0.00  0.00    +0.000 HD
ENDBRANCH   2   5
BRANCH   3  16
ATOM     16  C   UNL     1      48.389   6.976  15.333  0.00  0.00    +0.000 C 
BRANCH  16  17
ATOM     17  C   UNL     1      47.601   6.184  14.325  0.00  0.00    +0.000 A 
ATOM     18  C   UNL     1      47.235   4.864  14.604  0.00  0.00    +0.000 A 
ATOM     19  C   UNL     1      46.444   4.139  13.710  0.00  0.00    +0.000 A 
ATOM     20  C   UNL     1      45.997   4.711  12.510  0.00  0.00    +0.000 A 
ATOM     21  C   UNL     1      46.416   6.016  12.208  0.00  0.00    +0.000 A 
ATOM     22  C   UNL     1      47.210   6.744  13.103  0.00  0.00    +0.000 A 
BRANCH  20  23
ATOM     23  C   UNL     1      45.148   3.947  11.511  0.00  0.00    +0.000 C 
BRANCH  23  24
ATOM     24  C   UNL     1      44.765   4.747  10.257  0.00  0.00    +0.000 C 
BRANCH  24  25
ATOM     25  C   UNL     1      44.773   3.908   8.981  0.00  0.00    +0.000 C 
ATOM     26  C   UNL     1      45.320   2.507   9.233  0.00  0.00    +0.000 C 
ATOM     27  C   UNL     1      46.019   2.186   7.939  0.00  0.00    +0.000 C 
ATOM     28  C   UNL     1      46.566   3.535   7.532  0.00  0.00    +0.000 C 
ATOM     29  O   UNL     1      45.629   4.514   7.997  0.00  0.00    +0.000 OA
ENDBRANCH  24  25
ENDBRANCH  23  24
ENDBRANCH  20  23
ENDBRANCH  16  17
ENDBRANCH   3  16
TORSDOF 6
ENDMDL
MODEL 7
REMARK VINA RESULT:    -6.906      3.850      7.961
REMARK INTER + INTRA:         -10.237
REMARK INTER:                  -9.005
REMARK INTRA:                  -1.233
REMARK UNBOUND:                -0.909
REMARK  Name = 
REMARK  6 active torsions:
REMARK  status: ('A' for Active; 'I' for Inactive)
REMARK    1  A    between atoms: C_2  and  C_18
REMARK    2  A    between atoms: N_3  and  C_4
REMARK    3  A    between atoms: C_4  and  C_5
REMARK    4  A    between atoms: C_8  and  C_9
REMARK    5  A    between atoms: C_9  and  C_10
REMARK    6  A    between atoms: C_10  and  C_11
REMARK                            x       y       z     vdW  Elec       q    Type
REMARK                         _______ _______ _______ _____ _____    ______ ____
ROOT
ATOM      1  O   UNL     1      45.699   7.811  11.898  0.00  0.00    +0.000 OA
ATOM      2  C   UNL     1      46.334   6.832  11.516  0.00  0.00    +0.000 C 
ATOM      3  N   UNL     1      47.684   6.702  11.738  0.00  0.00    +0.000 N 
ATOM      4  H   UNL     1      48.211   6.014  11.209  0.00  0.00    +0.000 HD
ENDROOT
BRANCH   2   5
ATOM      5  C   UNL     1      45.674   5.720  10.831  0.00  0.00    +0.000 A 
ATOM      6  C   UNL     1      45.845   5.541   9.463  0.00  0.00    +0.000 A 
ATOM      7  S   UNL     1      45.009   4.189   8.845  0.00  0.00    +0.000 S 
ATOM      8  C   UNL     1      44.424   3.775  10.388  0.00  0.00    +0.000 A 
ATOM      9  N   UNL     1      43.657   2.666  10.576  0.00  0.00    +0.000 NA
ATOM     10  C   UNL     1      43.313   2.460  11.803  0.00  0.00    +0.000 A 
ATOM     11  N   UNL     1      43.655   3.260  12.861  0.00  0.00    +0.000 N 
ATOM     12  C   UNL     1      44.387   4.416  12.716  0.00  0.00    +0.000 A 
ATOM     13  O   UNL     1      44.617   5.156  13.668  0.00  0.00    +0.000 OA
ATOM     14  C   UNL     1      44.832   4.675  11.357  0.00  0.00    +0.000 A 
ATOM     15  H   UNL     1      43.333   3.060  13.791  0.00  0.00    +0.000 HD
ENDBRANCH   2   5
BRANCH   3  16
ATOM     16  C   UNL     1      48.423   7.789  12.323  0.00  0.00    +0.000 C 
BRANCH  16  17
ATOM     17  C   UNL     1      48.984   7.447  13.677  0.00  0.00    +0.000 A 
ATOM     18  C   UNL     1      48.219   6.706  14.584  0.00  0.00    +0.000 A 
ATOM     19  C   UNL     1      48.750   6.320  15.817  0.00  0.00    +0.000 A 
ATOM     20  C   UNL     1      50.060   6.663  16.179  0.00  0.00    +0.000 A 
ATOM     21  C   UNL     1      50.803   7.455  15.291  0.00  0.00    +0.000 A 
ATOM     22  C   UNL     1      50.272   7.844  14.055  0.00  0.00    +0.000 A 
BRANCH  20  23
ATOM     23  C   UNL     1      50.664   6.271  17.516  0.00  0.00    +0.000 C 
BRANCH  23  24
ATOM     24  C   UNL     1      49.668   5.647  18.506  0.00  0.00    +0.000 C 
BRANCH  24  25
ATOM     25  C   UNL     1      49.749   4.123  18.561  0.00  0.00    +0.000 C 
ATOM     26  C   UNL     1      50.918   3.593  17.737  0.00  0.00    +0.000 C 
ATOM     27  C   UNL     1      50.389   2.281  17.218  0.00  0.00    +0.000 C 
ATOM     28  C   UNL     1      48.927   2.595  16.998  0.00  0.00    +0.000 C 
ATOM     29  O   UNL     1      48.556   3.545  18.004  0.00  0.00    +0.000 OA
ENDBRANCH  24  25
ENDBRANCH  23  24
ENDBRANCH  20  23
ENDBRANCH  16  17
ENDBRANCH   3  16
TORSDOF 6
ENDMDL
MODEL 8
REMARK VINA RESULT:    -6.712      1.596      2.318
REMARK INTER + INTRA:          -9.976
REMARK INTER:                  -9.036
REMARK INTRA:                  -0.940
REMARK UNBOUND:                -0.909
REMARK  Name = 
REMARK  6 active torsions:
REMARK  status: ('A' for Active; 'I' for Inactive)
REMARK    1  A    between atoms: C_2  and  C_18
REMARK    2  A    between atoms: N_3  and  C_4
REMARK    3  A    between atoms: C_4  and  C_5
REMARK    4  A    between atoms: C_8  and  C_9
REMARK    5  A    between atoms: C_9  and  C_10
REMARK    6  A    between atoms: C_10  and  C_11
REMARK                            x       y       z     vdW  Elec       q    Type
REMARK                         _______ _______ _______ _____ _____    ______ ____
ROOT
ATOM      1  O   UNL     1      47.087   7.610  12.024  0.00  0.00    +0.000 OA
ATOM      2  C   UNL     1      46.812   7.131  13.120  0.00  0.00    +0.000 C 
ATOM      3  N   UNL     1      45.606   6.524  13.373  0.00  0.00    +0.000 N 
ATOM      4  H   UNL     1      45.322   6.360  14.334  0.00  0.00    +0.000 HD
ENDROOT
BRANCH   2   5
ATOM      5  C   UNL     1      47.780   7.145  14.218  0.00  0.00    +0.000 A 
ATOM      6  C   UNL     1      48.557   8.274  14.451  0.00  0.00    +0.000 A 
ATOM      7  S   UNL     1      49.617   8.107  15.776  0.00  0.00    +0.000 S 
ATOM      8  C   UNL     1      49.045   6.540  16.109  0.00  0.00    +0.000 A 
ATOM      9  N   UNL     1      49.517   5.828  17.170  0.00  0.00    +0.000 NA
ATOM     10  C   UNL     1      48.970   4.669  17.317  0.00  0.00    +0.000 A 
ATOM     11  N   UNL     1      48.000   4.147  16.501  0.00  0.00    +0.000 N 
ATOM     12  C   UNL     1      47.526   4.806  15.390  0.00  0.00    +0.000 A 
ATOM     13  O   UNL     1      46.711   4.287  14.633  0.00  0.00    +0.000 OA
ATOM     14  C   UNL     1      48.084   6.134  15.200  0.00  0.00    +0.000 A 
ATOM     15  H   UNL     1      47.632   3.225  16.654  0.00  0.00    +0.000 HD
ENDBRANCH   2   5
BRANCH   3  16
ATOM     16  C   UNL     1      44.568   6.548  12.377  0.00  0.00    +0.000 C 
BRANCH  16  17
ATOM     17  C   UNL     1      44.617   5.358  11.458  0.00  0.00    +0.000 A 
ATOM     18  C   UNL     1      43.971   4.170  11.817  0.00  0.00    +0.000 A 
ATOM     19  C   UNL     1      43.948   3.079  10.945  0.00  0.00    +0.000 A 
ATOM     20  C   UNL     1      44.570   3.143   9.690  0.00  0.00    +0.000 A 
ATOM     21  C   UNL     1      45.265   4.315   9.359  0.00  0.00    +0.000 A 
ATOM     22  C   UNL     1      45.291   5.410  10.232  0.00  0.00    +0.000 A 
BRANCH  20  23
ATOM     23  C   UNL     1      44.574   1.971   8.724  0.00  0.00    +0.000 C 
BRANCH  23  24
ATOM     24  C   UNL     1      45.964   1.376   8.452  0.00  0.00    +0.000 C 
BRANCH  24  25
ATOM     25  C   UNL     1      46.394   1.497   6.991  0.00  0.00    +0.000 C 
ATOM     26  C   UNL     1      47.907   1.634   6.861  0.00  0.00    +0.000 C 
ATOM     27  C   UNL     1      48.058   2.531   5.660  0.00  0.00    +0.000 C 
ATOM     28  C   UNL     1      46.867   3.451   5.803  0.00  0.00    +0.000 C 
ATOM     29  O   UNL     1      45.821   2.678   6.404  0.00  0.00    +0.000 OA
ENDBRANCH  24  25
ENDBRANCH  23  24
ENDBRANCH  20  23
ENDBRANCH  16  17
ENDBRANCH   3  16
TORSDOF 6
ENDMDL
MODEL 9
REMARK VINA RESULT:    -6.616      4.933      7.680
REMARK INTER + INTRA:          -9.846
REMARK INTER:                  -8.743
REMARK INTRA:                  -1.103
REMARK UNBOUND:                -0.909
REMARK  Name = 
REMARK  6 active torsions:
REMARK  status: ('A' for Active; 'I' for Inactive)
REMARK    1  A    between atoms: C_2  and  C_18
REMARK    2  A    between atoms: N_3  and  C_4
REMARK    3  A    between atoms: C_4  and  C_5
REMARK    4  A    between atoms: C_8  and  C_9
REMARK    5  A    between atoms: C_9  and  C_10
REMARK    6  A    between atoms: C_10  and  C_11
REMARK                            x       y       z     vdW  Elec       q    Type
REMARK                         _______ _______ _______ _____ _____    ______ ____
ROOT
ATOM      1  O   UNL     1      44.178   7.526  11.254  0.00  0.00    +0.000 OA
ATOM      2  C   UNL     1      44.809   6.609  11.771  0.00  0.00    +0.000 C 
ATOM      3  N   UNL     1      45.827   6.833  12.667  0.00  0.00    +0.000 N 
ATOM      4  H   UNL     1      46.473   6.081  12.884  0.00  0.00    +0.000 HD
ENDROOT
BRANCH   2   5
ATOM      5  C   UNL     1      44.483   5.210  11.488  0.00  0.00    +0.000 A 
ATOM      6  C   UNL     1      43.700   4.482  12.377  0.00  0.00    +0.000 A 
ATOM      7  S   UNL     1      43.417   2.877  11.874  0.00  0.00    +0.000 S 
ATOM      8  C   UNL     1      44.295   3.113  10.436  0.00  0.00    +0.000 A 
ATOM      9  N   UNL     1      44.411   2.121   9.510  0.00  0.00    +0.000 NA
ATOM     10  C   UNL     1      45.078   2.454   8.456  0.00  0.00    +0.000 A 
ATOM     11  N   UNL     1      45.646   3.681   8.240  0.00  0.00    +0.000 N 
ATOM     12  C   UNL     1      45.598   4.699   9.164  0.00  0.00    +0.000 A 
ATOM     13  O   UNL     1      46.180   5.764   8.979  0.00  0.00    +0.000 OA
ATOM     14  C   UNL     1      44.827   4.388  10.355  0.00  0.00    +0.000 A 
ATOM     15  H   UNL     1      46.177   3.870   7.407  0.00  0.00    +0.000 HD
ENDBRANCH   2   5
BRANCH   3  16
ATOM     16  C   UNL     1      46.268   8.177  12.930  0.00  0.00    +0.000 C 
BRANCH  16  17
ATOM     17  C   UNL     1      47.621   8.469  12.339  0.00  0.00    +0.000 A 
ATOM     18  C   UNL     1      48.045   9.792  12.185  0.00  0.00    +0.000 A 
ATOM     19  C   UNL     1      49.325  10.080  11.704  0.00  0.00    +0.000 A 
ATOM     20  C   UNL     1      50.217   9.054  11.363  0.00  0.00    +0.000 A 
ATOM     21  C   UNL     1      49.766   7.729  11.465  0.00  0.00    +0.000 A 
ATOM     22  C   UNL     1      48.483   7.439  11.945  0.00  0.00    +0.000 A 
BRANCH  20  23
ATOM     23  C   UNL     1      51.609   9.331  10.825  0.00  0.00    +0.000 C 
BRANCH  23  24
ATOM     24  C   UNL     1      52.573   8.138  10.908  0.00  0.00    +0.000 C 
BRANCH  24  25
ATOM     25  C   UNL     1      53.289   7.849   9.590  0.00  0.00    +0.000 C 
ATOM     26  C   UNL     1      52.969   8.902   8.535  0.00  0.00    +0.000 C 
ATOM     27  C   UNL     1      52.985   8.106   7.256  0.00  0.00    +0.000 C 
ATOM     28  C   UNL     1      52.424   6.776   7.705  0.00  0.00    +0.000 C 
ATOM     29  O   UNL     1      52.853   6.586   9.059  0.00  0.00    +0.000 OA
ENDBRANCH  24  25
ENDBRANCH  23  24
ENDBRANCH  20  23
ENDBRANCH  16  17
ENDBRANCH   3  16
TORSDOF 6
ENDMDL
