MODEL 1
REMARK VINA RESULT:    -8.618      0.000      0.000
REMARK INTER + INTRA:         -11.695
REMARK INTER:                 -10.634
REMARK INTRA:                  -1.061
REMARK UNBOUND:                -1.061
REMARK  Name = 
REMARK  4 active torsions:
REMARK  status: ('A' for Active; 'I' for Inactive)
REMARK    1  A    between atoms: C_2  and  C_4
REMARK    2  A    between atoms: N_8  and  C_9
REMARK    3  A    between atoms: C_9  and  C_10
REMARK    4  A    between atoms: C_15  and  C_16
REMARK                            x       y       z     vdW  Elec       q    Type
REMARK                         _______ _______ _______ _____ _____    ______ ____
ROOT
ATOM      1  C   UNL     1      43.846   4.933  11.375  0.00  0.00    +0.000 C 
ATOM      2  C   UNL     1      42.528   5.139  12.118  0.00  0.00    +0.000 C 
ATOM      3  C   UNL     1      42.933   6.100  11.052  0.00  0.00    +0.000 C 
ENDROOT
BRANCH   1   8
ATOM      4  C   UNL     1      46.572   2.771   7.504  0.00  0.00    +0.000 A 
ATOM      5  C   UNL     1      46.199   4.103   7.665  0.00  0.00    +0.000 A 
ATOM      6  C   UNL     1      45.332   4.452   8.704  0.00  0.00    +0.000 A 
ATOM      7  C   UNL     1      44.846   3.465   9.555  0.00  0.00    +0.000 A 
ATOM      8  N   UNL     1      43.902   3.713  10.555  0.00  0.00    +0.000 N 
ATOM      9  N   UNL     1      45.195   2.171   9.404  0.00  0.00    +0.000 NA
ATOM     10  C   UNL     1      46.038   1.847   8.389  0.00  0.00    +0.000 A 
ATOM     11  H   UNL     1      43.787   2.829  11.048  0.00  0.00    +0.000 HD
BRANCH   4  13
ATOM     12  N   UNL     1      47.382   2.955   5.223  0.00  0.00    +0.000 N 
ATOM     13  C   UNL     1      47.465   2.308   6.424  0.00  0.00    +0.000 C 
ATOM     14  O   UNL     1      48.264   1.397   6.601  0.00  0.00    +0.000 OA
ATOM     15  H   UNL     1      48.062   2.689   4.521  0.00  0.00    +0.000 HD
ATOM     16  H   UNL     1      46.923   3.848   5.112  0.00  0.00    +0.000 HD
ENDBRANCH   4  13
ENDBRANCH   1   8
BRANCH   1  17
ATOM     17  C   UNL     1      45.139   5.218  12.137  0.00  0.00    +0.000 A 
ATOM     18  C   UNL     1      45.647   4.315  13.087  0.00  0.00    +0.000 A 
ATOM     19  C   UNL     1      46.842   4.563  13.766  0.00  0.00    +0.000 A 
ATOM     20  C   UNL     1      47.563   5.719  13.494  0.00  0.00    +0.000 A 
ATOM     21  F   UNL     1      48.709   5.925  14.155  0.00  0.00    +0.000 F 
ATOM     22  C   UNL     1      47.109   6.642  12.558  0.00  0.00    +0.000 A 
ATOM     23  C   UNL     1      45.895   6.381  11.891  0.00  0.00    +0.000 A 
BRANCH  22  24
ATOM     24  C   UNL     1      47.889   7.884  12.246  0.00  0.00    +0.000 C 
ATOM     25  F   UNL     1      48.506   8.469  13.308  0.00  0.00    +0.000 F 
ATOM     26  F   UNL     1      48.873   7.653  11.331  0.00  0.00    +0.000 F 
ATOM     27  F   UNL     1      47.104   8.855  11.695  0.00  0.00    +0.000 F 
ENDBRANCH  22  24
ENDBRANCH   1  17
TORSDOF 4
ENDMDL
MODEL 2
REMARK VINA RESULT:    -8.522      1.124      2.465
REMARK INTER + INTRA:         -11.575
REMARK INTER:                 -10.936
REMARK INTRA:                  -0.640
REMARK UNBOUND:                -1.061
REMARK  Name = 
REMARK  4 active torsions:
REMARK  status: ('A' for Active; 'I' for Inactive)
REMARK    1  A    between atoms: C_2  and  C_4
REMARK    2  A    between atoms: N_8  and  C_9
REMARK    3  A    between atoms: C_9  and  C_10
REMARK    4  A    between atoms: C_15  and  C_16
REMARK                            x       y       z     vdW  Elec       q    Type
REMARK                         _______ _______ _______ _____ _____    ______ ____
ROOT
ATOM      1  C   UNL     1      43.914   4.994  11.381  0.00  0.00    +0.000 C 
ATOM      2  C   UNL     1      42.639   5.211  12.194  0.00  0.00    +0.000 C 
ATOM      3  C   UNL     1      42.955   6.125  11.060  0.00  0.00    +0.000 C 
ENDROOT
BRANCH   1   8
ATOM      4  C   UNL     1      46.467   2.684   7.479  0.00  0.00    +0.000 A 
ATOM      5  C   UNL     1      46.079   4.016   7.594  0.00  0.00    +0.000 A 
ATOM      6  C   UNL     1      45.263   4.403   8.660  0.00  0.00    +0.000 A 
ATOM      7  C   UNL     1      44.841   3.453   9.583  0.00  0.00    +0.000 A 
ATOM      8  N   UNL     1      43.947   3.736  10.620  0.00  0.00    +0.000 N 
ATOM      9  N   UNL     1      45.204   2.158   9.477  0.00  0.00    +0.000 NA
ATOM     10  C   UNL     1      45.997   1.797   8.436  0.00  0.00    +0.000 A 
ATOM     11  H   UNL     1      43.874   2.876  11.162  0.00  0.00    +0.000 HD
BRANCH   4  13
ATOM     12  N   UNL     1      47.475   2.998   5.293  0.00  0.00    +0.000 N 
ATOM     13  C   UNL     1      47.308   2.180   6.376  0.00  0.00    +0.000 C 
ATOM     14  O   UNL     1      47.855   1.087   6.436  0.00  0.00    +0.000 OA
ATOM     15  H   UNL     1      48.127   2.680   4.586  0.00  0.00    +0.000 HD
ATOM     16  H   UNL     1      47.249   3.983   5.309  0.00  0.00    +0.000 HD
ENDBRANCH   4  13
ENDBRANCH   1   8
BRANCH   1  17
ATOM     17  C   UNL     1      45.245   5.344  12.045  0.00  0.00    +0.000 A 
ATOM     18  C   UNL     1      46.079   6.353  11.533  0.00  0.00    +0.000 A 
ATOM     19  C   UNL     1      47.284   6.691  12.153  0.00  0.00    +0.000 A 
ATOM     20  C   UNL     1      47.671   6.031  13.313  0.00  0.00    +0.000 A 
ATOM     21  F   UNL     1      48.828   6.383  13.888  0.00  0.00    +0.000 F 
ATOM     22  C   UNL     1      46.880   5.031  13.865  0.00  0.00    +0.000 A 
ATOM     23  C   UNL     1      45.672   4.695  13.219  0.00  0.00    +0.000 A 
BRANCH  22  24
ATOM     24  C   UNL     1      47.282   4.326  15.126  0.00  0.00    +0.000 C 
ATOM     25  F   UNL     1      47.664   3.029  14.974  0.00  0.00    +0.000 F 
ATOM     26  F   UNL     1      48.325   4.946  15.748  0.00  0.00    +0.000 F 
ATOM     27  F   UNL     1      46.274   4.307  16.045  0.00  0.00    +0.000 F 
ENDBRANCH  22  24
ENDBRANCH   1  17
TORSDOF 4
ENDMDL
MODEL 3
REMARK VINA RESULT:    -7.718      4.474      6.874
REMARK INTER + INTRA:         -10.584
REMARK INTER:                 -10.465
REMARK INTRA:                  -0.119
REMARK UNBOUND:                -1.061
REMARK  Name = 
REMARK  4 active torsions:
REMARK  status: ('A' for Active; 'I' for Inactive)
REMARK    1  A    between atoms: C_2  and  C_4
REMARK    2  A    between atoms: N_8  and  C_9
REMARK    3  A    between atoms: C_9  and  C_10
REMARK    4  A    between atoms: C_15  and  C_16
REMARK                            x       y       z     vdW  Elec       q    Type
REMARK                         _______ _______ _______ _____ _____    ______ ____
ROOT
ATOM      1  C   UNL     1      44.541   3.118  11.541  0.00  0.00    +0.000 C 
ATOM      2  C   UNL     1      43.368   3.999  11.968  0.00  0.00    +0.000 C 
ATOM      3  C   UNL     1      43.137   2.557  11.668  0.00  0.00    +0.000 C 
ENDROOT
BRANCH   1   8
ATOM      4  C   UNL     1      47.823   5.830  14.534  0.00  0.00    +0.000 A 
ATOM      5  C   UNL     1      47.471   6.056  13.207  0.00  0.00    +0.000 A 
ATOM      6  C   UNL     1      46.685   5.115  12.536  0.00  0.00    +0.000 A 
ATOM      7  C   UNL     1      46.275   3.964  13.198  0.00  0.00    +0.000 A 
ATOM      8  N   UNL     1      45.571   2.930  12.574  0.00  0.00    +0.000 N 
ATOM      9  N   UNL     1      46.616   3.730  14.482  0.00  0.00    +0.000 NA
ATOM     10  C   UNL     1      47.382   4.653  15.121  0.00  0.00    +0.000 A 
ATOM     11  H   UNL     1      45.357   2.259  13.311  0.00  0.00    +0.000 HD
BRANCH   4  13
ATOM     12  N   UNL     1      48.129   7.969  15.640  0.00  0.00    +0.000 N 
ATOM     13  C   UNL     1      48.667   6.755  15.314  0.00  0.00    +0.000 C 
ATOM     14  O   UNL     1      49.793   6.443  15.678  0.00  0.00    +0.000 OA
ATOM     15  H   UNL     1      48.682   8.557  16.252  0.00  0.00    +0.000 HD
ATOM     16  H   UNL     1      47.140   8.166  15.574  0.00  0.00    +0.000 HD
ENDBRANCH   4  13
ENDBRANCH   1   8
BRANCH   1  17
ATOM     17  C   UNL     1      45.109   3.328  10.139  0.00  0.00    +0.000 A 
ATOM     18  C   UNL     1      45.148   4.602   9.544  0.00  0.00    +0.000 A 
ATOM     19  C   UNL     1      45.691   4.798   8.273  0.00  0.00    +0.000 A 
ATOM     20  C   UNL     1      46.221   3.721   7.575  0.00  0.00    +0.000 A 
ATOM     21  F   UNL     1      46.741   3.943   6.361  0.00  0.00    +0.000 F 
ATOM     22  C   UNL     1      46.214   2.442   8.119  0.00  0.00    +0.000 A 
ATOM     23  C   UNL     1      45.652   2.260   9.400  0.00  0.00    +0.000 A 
BRANCH  22  24
ATOM     24  C   UNL     1      46.799   1.276   7.380  0.00  0.00    +0.000 C 
ATOM     25  F   UNL     1      46.474   1.198   6.061  0.00  0.00    +0.000 F 
ATOM     26  F   UNL     1      48.162   1.275   7.423  0.00  0.00    +0.000 F 
ATOM     27  F   UNL     1      46.420   0.083   7.924  0.00  0.00    +0.000 F 
ENDBRANCH  22  24
ENDBRANCH   1  17
TORSDOF 4
ENDMDL
MODEL 4
REMARK VINA RESULT:    -7.228      4.164      6.128
REMARK INTER + INTRA:          -9.979
REMARK INTER:                  -9.106
REMARK INTRA:                  -0.873
REMARK UNBOUND:                -1.061
REMARK  Name = 
REMARK  4 active torsions:
REMARK  status: ('A' for Active; 'I' for Inactive)
REMARK    1  A    between atoms: C_2  and  C_4
REMARK    2  A    between atoms: N_8  and  C_9
REMARK    3  A    between atoms: C_9  and  C_10
REMARK    4  A    between atoms: C_15  and  C_16
REMARK                            x       y       z     vdW  Elec       q    Type
REMARK                         _______ _______ _______ _____ _____    ______ ____
ROOT
ATOM      1  C   UNL     1      43.845   5.393  11.634  0.00  0.00    +0.000 C 
ATOM      2  C   UNL     1      42.359   5.742  11.687  0.00  0.00    +0.000 C 
ATOM      3  C   UNL     1      43.013   5.117  12.872  0.00  0.00    +0.000 C 
ENDROOT
BRANCH   1   8
ATOM      4  C   UNL     1      48.548   7.046  13.129  0.00  0.00    +0.000 A 
ATOM      5  C   UNL     1      47.618   6.306  13.853  0.00  0.00    +0.000 A 
ATOM      6  C   UNL     1      46.344   6.095  13.319  0.00  0.00    +0.000 A 
ATOM      7  C   UNL     1      46.020   6.634  12.079  0.00  0.00    +0.000 A 
ATOM      8  N   UNL     1      44.742   6.553  11.518  0.00  0.00    +0.000 N 
ATOM      9  N   UNL     1      46.911   7.359  11.372  0.00  0.00    +0.000 NA
ATOM     10  C   UNL     1      48.145   7.556  11.904  0.00  0.00    +0.000 A 
ATOM     11  H   UNL     1      44.821   6.975  10.594  0.00  0.00    +0.000 HD
BRANCH   4  13
ATOM     12  N   UNL     1      50.838   7.729  12.699  0.00  0.00    +0.000 N 
ATOM     13  C   UNL     1      49.908   7.338  13.622  0.00  0.00    +0.000 C 
ATOM     14  O   UNL     1      50.189   7.257  14.811  0.00  0.00    +0.000 OA
ATOM     15  H   UNL     1      51.739   8.014  13.062  0.00  0.00    +0.000 HD
ATOM     16  H   UNL     1      50.591   8.039  11.769  0.00  0.00    +0.000 HD
ENDBRANCH   4  13
ENDBRANCH   1   8
BRANCH   1  17
ATOM     17  C   UNL     1      44.263   4.207  10.766  0.00  0.00    +0.000 A 
ATOM     18  C   UNL     1      43.782   2.909  11.016  0.00  0.00    +0.000 A 
ATOM     19  C   UNL     1      44.144   1.828  10.208  0.00  0.00    +0.000 A 
ATOM     20  C   UNL     1      44.985   2.030   9.122  0.00  0.00    +0.000 A 
ATOM     21  F   UNL     1      45.307   0.975   8.362  0.00  0.00    +0.000 F 
ATOM     22  C   UNL     1      45.482   3.294   8.827  0.00  0.00    +0.000 A 
ATOM     23  C   UNL     1      45.116   4.371   9.659  0.00  0.00    +0.000 A 
BRANCH  22  24
ATOM     24  C   UNL     1      46.378   3.523   7.646  0.00  0.00    +0.000 C 
ATOM     25  F   UNL     1      47.439   2.679   7.544  0.00  0.00    +0.000 F 
ATOM     26  F   UNL     1      45.704   3.412   6.465  0.00  0.00    +0.000 F 
ATOM     27  F   UNL     1      46.906   4.782   7.642  0.00  0.00    +0.000 F 
ENDBRANCH  22  24
ENDBRANCH   1  17
TORSDOF 4
ENDMDL
MODEL 5
REMARK VINA RESULT:    -6.063      3.693      5.643
REMARK INTER + INTRA:          -8.542
REMARK INTER:                  -8.093
REMARK INTRA:                  -0.448
REMARK UNBOUND:                -1.061
REMARK  Name = 
REMARK  4 active torsions:
REMARK  status: ('A' for Active; 'I' for Inactive)
REMARK    1  A    between atoms: C_2  and  C_4
REMARK    2  A    between atoms: N_8  and  C_9
REMARK    3  A    between atoms: C_9  and  C_10
REMARK    4  A    between atoms: C_15  and  C_16
REMARK                            x       y       z     vdW  Elec       q    Type
REMARK                         _______ _______ _______ _____ _____    ______ ____
ROOT
ATOM      1  C   UNL     1      48.206   7.900  13.785  0.00  0.00    +0.000 C 
ATOM      2  C   UNL     1      48.558   9.377  13.617  0.00  0.00    +0.000 C 
ATOM      3  C   UNL     1      49.017   8.389  12.599  0.00  0.00    +0.000 C 
ENDROOT
BRANCH   1   8
ATOM      4  C   UNL     1      44.816   5.061  11.040  0.00  0.00    +0.000 A 
ATOM      5  C   UNL     1      45.935   5.754  10.587  0.00  0.00    +0.000 A 
ATOM      6  C   UNL     1      46.631   6.586  11.468  0.00  0.00    +0.000 A 
ATOM      7  C   UNL     1      46.191   6.718  12.781  0.00  0.00    +0.000 A 
ATOM      8  N   UNL     1      46.768   7.600  13.698  0.00  0.00    +0.000 N 
ATOM      9  N   UNL     1      45.104   6.057  13.229  0.00  0.00    +0.000 NA
ATOM     10  C   UNL     1      44.438   5.252  12.360  0.00  0.00    +0.000 A 
ATOM     11  H   UNL     1      46.286   7.434  14.580  0.00  0.00    +0.000 HD
BRANCH   4  13
ATOM     12  N   UNL     1      44.044   4.418   8.830  0.00  0.00    +0.000 N 
ATOM     13  C   UNL     1      44.009   4.179  10.176  0.00  0.00    +0.000 C 
ATOM     14  O   UNL     1      43.353   3.255  10.639  0.00  0.00    +0.000 OA
ATOM     15  H   UNL     1      43.559   3.751   8.242  0.00  0.00    +0.000 HD
ATOM     16  H   UNL     1      44.746   4.999   8.395  0.00  0.00    +0.000 HD
ENDBRANCH   4  13
ENDBRANCH   1   8
BRANCH   1  17
ATOM     17  C   UNL     1      48.930   7.120  14.881  0.00  0.00    +0.000 A 
ATOM     18  C   UNL     1      50.277   7.374  15.197  0.00  0.00    +0.000 A 
ATOM     19  C   UNL     1      50.931   6.679  16.216  0.00  0.00    +0.000 A 
ATOM     20  C   UNL     1      50.244   5.723  16.951  0.00  0.00    +0.000 A 
ATOM     21  F   UNL     1      50.897   5.079  17.927  0.00  0.00    +0.000 F 
ATOM     22  C   UNL     1      48.910   5.438  16.685  0.00  0.00    +0.000 A 
ATOM     23  C   UNL     1      48.267   6.141  15.645  0.00  0.00    +0.000 A 
BRANCH  22  24
ATOM     24  C   UNL     1      48.155   4.419  17.485  0.00  0.00    +0.000 C 
ATOM     25  F   UNL     1      48.095   4.655  18.823  0.00  0.00    +0.000 F 
ATOM     26  F   UNL     1      46.860   4.302  17.073  0.00  0.00    +0.000 F 
ATOM     27  F   UNL     1      48.688   3.170  17.354  0.00  0.00    +0.000 F 
ENDBRANCH  22  24
ENDBRANCH   1  17
TORSDOF 4
ENDMDL
MODEL 6
REMARK VINA RESULT:    -6.037      1.378      2.277
REMARK INTER + INTRA:          -8.510
REMARK INTER:                  -8.441
REMARK INTRA:                  -0.069
REMARK UNBOUND:                -1.061
REMARK  Name = 
REMARK  4 active torsions:
REMARK  status: ('A' for Active; 'I' for Inactive)
REMARK    1  A    between atoms: C_2  and  C_4
REMARK    2  A    between atoms: N_8  and  C_9
REMARK    3  A    between atoms: C_9  and  C_10
REMARK    4  A    between atoms: C_15  and  C_16
REMARK                            x       y       z     vdW  Elec       q    Type
REMARK                         _______ _______ _______ _____ _____    ______ ____
ROOT
ATOM      1  C   UNL     1      43.907   5.153  11.671  0.00  0.00    +0.000 C 
ATOM      2  C   UNL     1      44.255   4.047  12.665  0.00  0.00    +0.000 C 
ATOM      3  C   UNL     1      43.006   4.841  12.851  0.00  0.00    +0.000 C 
ENDROOT
BRANCH   1   8
ATOM      4  C   UNL     1      46.334   3.549   7.355  0.00  0.00    +0.000 A 
ATOM      5  C   UNL     1      46.701   4.568   8.229  0.00  0.00    +0.000 A 
ATOM      6  C   UNL     1      45.825   4.943   9.252  0.00  0.00    +0.000 A 
ATOM      7  C   UNL     1      44.598   4.303   9.376  0.00  0.00    +0.000 A 
ATOM      8  N   UNL     1      43.626   4.681  10.306  0.00  0.00    +0.000 N 
ATOM      9  N   UNL     1      44.228   3.319   8.530  0.00  0.00    +0.000 NA
ATOM     10  C   UNL     1      45.090   2.965   7.540  0.00  0.00    +0.000 A 
ATOM     11  H   UNL     1      42.872   4.003  10.207  0.00  0.00    +0.000 HD
BRANCH   4  13
ATOM     12  N   UNL     1      48.464   2.723   6.532  0.00  0.00    +0.000 N 
ATOM     13  C   UNL     1      47.184   3.101   6.235  0.00  0.00    +0.000 C 
ATOM     14  O   UNL     1      46.756   3.047   5.089  0.00  0.00    +0.000 OA
ATOM     15  H   UNL     1      49.005   2.332   5.771  0.00  0.00    +0.000 HD
ATOM     16  H   UNL     1      48.771   2.523   7.474  0.00  0.00    +0.000 HD
ENDBRANCH   4  13
ENDBRANCH   1   8
BRANCH   1  17
ATOM     17  C   UNL     1      44.739   6.433  11.717  0.00  0.00    +0.000 A 
ATOM     18  C   UNL     1      44.173   7.688  11.430  0.00  0.00    +0.000 A 
ATOM     19  C   UNL     1      44.927   8.862  11.496  0.00  0.00    +0.000 A 
ATOM     20  C   UNL     1      46.264   8.803  11.868  0.00  0.00    +0.000 A 
ATOM     21  F   UNL     1      46.957   9.947  11.930  0.00  0.00    +0.000 F 
ATOM     22  C   UNL     1      46.870   7.590  12.169  0.00  0.00    +0.000 A 
ATOM     23  C   UNL     1      46.098   6.413  12.086  0.00  0.00    +0.000 A 
BRANCH  22  24
ATOM     24  C   UNL     1      48.309   7.519  12.588  0.00  0.00    +0.000 C 
ATOM     25  F   UNL     1      48.599   8.104  13.781  0.00  0.00    +0.000 F 
ATOM     26  F   UNL     1      48.748   6.233  12.692  0.00  0.00    +0.000 F 
ATOM     27  F   UNL     1      49.135   8.110  11.677  0.00  0.00    +0.000 F 
ENDBRANCH  22  24
ENDBRANCH   1  17
TORSDOF 4
ENDMDL
MODEL 7
REMARK VINA RESULT:    -5.859      5.296      8.183
REMARK INTER + INTRA:          -8.290
REMARK INTER:                  -7.297
REMARK INTRA:                  -0.992
REMARK UNBOUND:                -1.061
REMARK  Name = 
REMARK  4 active torsions:
REMARK  status: ('A' for Active; 'I' for Inactive)
REMARK    1  A    between atoms: C_2  and  C_4
REMARK    2  A    between atoms: N_8  and  C_9
REMARK    3  A    between atoms: C_9  and  C_10
REMARK    4  A    between atoms: C_15  and  C_16
REMARK                            x       y       z     vdW  Elec       q    Type
REMARK                         _______ _______ _______ _____ _____    ______ ____
ROOT
ATOM      1  C   UNL     1      48.576   7.510  12.623  0.00  0.00    +0.000 C 
ATOM      2  C   UNL     1      49.476   7.762  11.415  0.00  0.00    +0.000 C 
ATOM      3  C   UNL     1      48.942   8.918  12.191  0.00  0.00    +0.000 C 
ENDROOT
BRANCH   1   8
ATOM      4  C   UNL     1      48.541   7.287  17.822  0.00  0.00    +0.000 A 
ATOM      5  C   UNL     1      48.406   8.402  17.000  0.00  0.00    +0.000 A 
ATOM      6  C   UNL     1      48.598   8.267  15.623  0.00  0.00    +0.000 A 
ATOM      7  C   UNL     1      48.931   7.026  15.094  0.00  0.00    +0.000 A 
ATOM      8  N   UNL     1      49.235   6.824  13.745  0.00  0.00    +0.000 N 
ATOM      9  N   UNL     1      49.072   5.939  15.881  0.00  0.00    +0.000 NA
ATOM     10  C   UNL     1      48.883   6.086  17.218  0.00  0.00    +0.000 A 
ATOM     11  H   UNL     1      49.375   5.820  13.642  0.00  0.00    +0.000 HD
BRANCH   4  13
ATOM     12  N   UNL     1      47.767   6.274  19.888  0.00  0.00    +0.000 N 
ATOM     13  C   UNL     1      48.379   7.339  19.288  0.00  0.00    +0.000 C 
ATOM     14  O   UNL     1      48.795   8.285  19.945  0.00  0.00    +0.000 OA
ATOM     15  H   UNL     1      47.744   6.281  20.901  0.00  0.00    +0.000 HD
ATOM     16  H   UNL     1      47.633   5.386  19.425  0.00  0.00    +0.000 HD
ENDBRANCH   4  13
ENDBRANCH   1   8
BRANCH   1  17
ATOM     17  C   UNL     1      47.153   7.021  12.355  0.00  0.00    +0.000 A 
ATOM     18  C   UNL     1      46.125   7.911  11.996  0.00  0.00    +0.000 A 
ATOM     19  C   UNL     1      44.831   7.461  11.727  0.00  0.00    +0.000 A 
ATOM     20  C   UNL     1      44.543   6.104  11.798  0.00  0.00    +0.000 A 
ATOM     21  F   UNL     1      43.294   5.704  11.527  0.00  0.00    +0.000 F 
ATOM     22  C   UNL     1      45.524   5.182  12.141  0.00  0.00    +0.000 A 
ATOM     23  C   UNL     1      46.823   5.654  12.421  0.00  0.00    +0.000 A 
BRANCH  22  24
ATOM     24  C   UNL     1      45.226   3.713  12.203  0.00  0.00    +0.000 C 
ATOM     25  F   UNL     1      44.055   3.380  12.810  0.00  0.00    +0.000 F 
ATOM     26  F   UNL     1      45.172   3.150  10.963  0.00  0.00    +0.000 F 
ATOM     27  F   UNL     1      46.196   3.023  12.870  0.00  0.00    +0.000 F 
ENDBRANCH  22  24
ENDBRANCH   1  17
TORSDOF 4
ENDMDL
MODEL 8
REMARK VINA RESULT:    -5.632      2.534      3.570
REMARK INTER + INTRA:          -8.010
REMARK INTER:                  -7.827
REMARK INTRA:                  -0.183
REMARK UNBOUND:                -1.061
REMARK  Name = 
REMARK  4 active torsions:
REMARK  status: ('A' for Active; 'I' for Inactive)
REMARK    1  A    between atoms: C_2  and  C_4
REMARK    2  A    between atoms: N_8  and  C_9
REMARK    3  A    between atoms: C_9  and  C_10
REMARK    4  A    between atoms: C_15  and  C_16
REMARK                            x       y       z     vdW  Elec       q    Type
REMARK                         _______ _______ _______ _____ _____    ______ ____
ROOT
ATOM      1  C   UNL     1      43.813   5.428  11.955  0.00  0.00    +0.000 C 
ATOM      2  C   UNL     1      44.519   4.493  12.936  0.00  0.00    +0.000 C 
ATOM      3  C   UNL     1      43.147   4.988  13.245  0.00  0.00    +0.000 C 
ENDROOT
BRANCH   1   8
ATOM      4  C   UNL     1      46.143   3.605   7.673  0.00  0.00    +0.000 A 
ATOM      5  C   UNL     1      46.482   4.716   8.440  0.00  0.00    +0.000 A 
ATOM      6  C   UNL     1      45.631   5.126   9.469  0.00  0.00    +0.000 A 
ATOM      7  C   UNL     1      44.454   4.425   9.708  0.00  0.00    +0.000 A 
ATOM      8  N   UNL     1      43.502   4.823  10.650  0.00  0.00    +0.000 N 
ATOM      9  N   UNL     1      44.111   3.351   8.967  0.00  0.00    +0.000 NA
ATOM     10  C   UNL     1      44.949   2.965   7.969  0.00  0.00    +0.000 A 
ATOM     11  H   UNL     1      42.790   4.095  10.647  0.00  0.00    +0.000 HD
BRANCH   4  13
ATOM     12  N   UNL     1      47.896   2.149   6.836  0.00  0.00    +0.000 N 
ATOM     13  C   UNL     1      46.969   3.113   6.553  0.00  0.00    +0.000 C 
ATOM     14  O   UNL     1      46.817   3.533   5.414  0.00  0.00    +0.000 OA
ATOM     15  H   UNL     1      48.391   1.756   6.044  0.00  0.00    +0.000 HD
ATOM     16  H   UNL     1      47.885   1.612   7.692  0.00  0.00    +0.000 HD
ENDBRANCH   4  13
ENDBRANCH   1   8
BRANCH   1  17
ATOM     17  C   UNL     1      44.320   6.866  11.859  0.00  0.00    +0.000 A 
ATOM     18  C   UNL     1      45.545   7.253  12.432  0.00  0.00    +0.000 A 
ATOM     19  C   UNL     1      46.021   8.562  12.323  0.00  0.00    +0.000 A 
ATOM     20  C   UNL     1      45.284   9.508  11.623  0.00  0.00    +0.000 A 
ATOM     21  F   UNL     1      45.771  10.752  11.529  0.00  0.00    +0.000 F 
ATOM     22  C   UNL     1      44.071   9.176  11.031  0.00  0.00    +0.000 A 
ATOM     23  C   UNL     1      43.600   7.853  11.160  0.00  0.00    +0.000 A 
BRANCH  22  24
ATOM     24  C   UNL     1      43.278  10.187  10.258  0.00  0.00    +0.000 C 
ATOM     25  F   UNL     1      43.730  10.448   9.002  0.00  0.00    +0.000 F 
ATOM     26  F   UNL     1      41.975   9.809  10.110  0.00  0.00    +0.000 F 
ATOM     27  F   UNL     1      43.233  11.394  10.893  0.00  0.00    +0.000 F 
ENDBRANCH  22  24
ENDBRANCH   1  17
TORSDOF 4
ENDMDL
