MODEL 1
REMARK VINA RESULT:    -8.210      0.000      0.000
REMARK INTER + INTRA:         -12.590
REMARK INTER:                 -11.330
REMARK INTRA:                  -1.260
REMARK UNBOUND:                -1.260
REMARK  Name = 
REMARK  7 active torsions:
REMARK  status: ('A' for Active; 'I' for Inactive)
REMARK    1  A    between atoms: C_2  and  C_21
REMARK    2  A    between atoms: N_3  and  C_4
REMARK    3  A    between atoms: C_4  and  C_5
REMARK    4  A    between atoms: C_8  and  C_9
REMARK    5  A    between atoms: C_9  and  N_10
REMARK    6  A    between atoms: C_11  and  C_13
REMARK    7  A    between atoms: C_16  and  O_17
REMARK                            x       y       z     vdW  Elec       q    Type
REMARK                         _______ _______ _______ _____ _____    ______ ____
ROOT
ATOM      1  C   UNL     1      46.244   7.120  12.509  0.00  0.00    +0.000 A 
ATOM      2  C   UNL     1      44.934   6.775  12.871  0.00  0.00    +0.000 A 
ATOM      3  C   UNL     1      44.136   5.994  12.022  0.00  0.00    +0.000 A 
ATOM      4  C   UNL     1      44.639   5.520  10.803  0.00  0.00    +0.000 A 
ATOM      5  C   UNL     1      45.956   5.847  10.453  0.00  0.00    +0.000 A 
ATOM      6  C   UNL     1      46.753   6.628  11.301  0.00  0.00    +0.000 A 
ENDROOT
BRANCH   1   7
ATOM      7  C   UNL     1      47.099   7.969  13.420  0.00  0.00    +0.000 C 
BRANCH   7  10
ATOM      8  O   UNL     1      49.644   6.896  13.875  0.00  0.00    +0.000 OA
ATOM      9  C   UNL     1      48.800   6.803  14.760  0.00  0.00    +0.000 C 
ATOM     10  N   UNL     1      47.507   7.232  14.589  0.00  0.00    +0.000 N 
ATOM     11  H   UNL     1      46.907   7.326  15.402  0.00  0.00    +0.000 HD
BRANCH   9  12
ATOM     12  C   UNL     1      49.110   6.195  16.064  0.00  0.00    +0.000 A 
ATOM     13  C   UNL     1      50.080   6.760  16.882  0.00  0.00    +0.000 A 
ATOM     14  S   UNL     1      50.323   5.908  18.342  0.00  0.00    +0.000 S 
ATOM     15  C   UNL     1      49.104   4.786  17.955  0.00  0.00    +0.000 A 
ATOM     16  N   UNL     1      48.775   3.783  18.812  0.00  0.00    +0.000 NA
ATOM     17  C   UNL     1      47.815   3.021  18.402  0.00  0.00    +0.000 A 
ATOM     18  N   UNL     1      47.157   3.171  17.212  0.00  0.00    +0.000 N 
ATOM     19  C   UNL     1      47.473   4.147  16.303  0.00  0.00    +0.000 A 
ATOM     20  O   UNL     1      46.895   4.216  15.225  0.00  0.00    +0.000 OA
ATOM     21  C   UNL     1      48.538   5.041  16.720  0.00  0.00    +0.000 A 
ATOM     22  H   UNL     1      46.421   2.534  16.943  0.00  0.00    +0.000 HD
ENDBRANCH   9  12
ENDBRANCH   7  10
ENDBRANCH   1   7
BRANCH   4  23
ATOM     23  C   UNL     1      43.774   4.697   9.877  0.00  0.00    +0.000 C 
BRANCH  23  24
ATOM     24  N   UNL     1      44.522   4.221   8.735  0.00  0.00    +0.000 N 
ATOM     25  C   UNL     1      44.898   2.898   8.607  0.00  0.00    +0.000 C 
ATOM     26  O   UNL     1      44.615   2.038   9.431  0.00  0.00    +0.000 OA
ATOM     27  H   UNL     1      44.723   4.876   7.991  0.00  0.00    +0.000 HD
BRANCH  25  28
ATOM     28  C   UNL     1      45.698   2.629   7.333  0.00  0.00    +0.000 C 
ATOM     29  C   UNL     1      46.414   1.267   7.277  0.00  0.00    +0.000 C 
ATOM     30  C   UNL     1      47.909   1.573   7.174  0.00  0.00    +0.000 C 
ATOM     31  C   UNL     1      47.967   2.945   6.524  0.00  0.00    +0.000 C 
ATOM     32  C   UNL     1      46.801   3.686   7.157  0.00  0.00    +0.000 C 
BRANCH  31  33
ATOM     33  O   UNL     1      47.793   2.859   5.115  0.00  0.00    +0.000 OA
ATOM     34  H   UNL     1      48.054   3.700   4.707  0.00  0.00    +0.000 HD
ENDBRANCH  31  33
ENDBRANCH  25  28
ENDBRANCH  23  24
ENDBRANCH   4  23
TORSDOF 7
ENDMDL
MODEL 2
REMARK VINA RESULT:    -7.604      1.974      2.339
REMARK INTER + INTRA:         -11.754
REMARK INTER:                 -10.657
REMARK INTRA:                  -1.098
REMARK UNBOUND:                -1.260
REMARK  Name = 
REMARK  7 active torsions:
REMARK  status: ('A' for Active; 'I' for Inactive)
REMARK    1  A    between atoms: C_2  and  C_21
REMARK    2  A    between atoms: N_3  and  C_4
REMARK    3  A    between atoms: C_4  and  C_5
REMARK    4  A    between atoms: C_8  and  C_9
REMARK    5  A    between atoms: C_9  and  N_10
REMARK    6  A    between atoms: C_11  and  C_13
REMARK    7  A    between atoms: C_16  and  O_17
REMARK                            x       y       z     vdW  Elec       q    Type
REMARK                         _______ _______ _______ _____ _____    ______ ____
ROOT
ATOM      1  C   UNL     1      46.937   6.629  12.925  0.00  0.00    +0.000 A 
ATOM      2  C   UNL     1      45.973   5.744  13.427  0.00  0.00    +0.000 A 
ATOM      3  C   UNL     1      45.026   5.155  12.578  0.00  0.00    +0.000 A 
ATOM      4  C   UNL     1      45.036   5.418  11.202  0.00  0.00    +0.000 A 
ATOM      5  C   UNL     1      46.015   6.286  10.697  0.00  0.00    +0.000 A 
ATOM      6  C   UNL     1      46.961   6.875  11.546  0.00  0.00    +0.000 A 
ENDROOT
BRANCH   1   7
ATOM      7  C   UNL     1      47.951   7.271  13.842  0.00  0.00    +0.000 C 
BRANCH   7  10
ATOM      8  O   UNL     1      50.137   6.562  15.441  0.00  0.00    +0.000 OA
ATOM      9  C   UNL     1      49.009   6.461  15.910  0.00  0.00    +0.000 C 
ATOM     10  N   UNL     1      47.880   6.713  15.169  0.00  0.00    +0.000 N 
ATOM     11  H   UNL     1      46.991   6.818  15.646  0.00  0.00    +0.000 HD
BRANCH   9  12
ATOM     12  C   UNL     1      48.785   6.032  17.300  0.00  0.00    +0.000 A 
ATOM     13  C   UNL     1      49.078   4.730  17.682  0.00  0.00    +0.000 A 
ATOM     14  S   UNL     1      48.732   4.405  19.323  0.00  0.00    +0.000 S 
ATOM     15  C   UNL     1      48.230   6.009  19.592  0.00  0.00    +0.000 A 
ATOM     16  N   UNL     1      47.824   6.419  20.823  0.00  0.00    +0.000 NA
ATOM     17  C   UNL     1      47.495   7.667  20.889  0.00  0.00    +0.000 A 
ATOM     18  N   UNL     1      47.534   8.539  19.835  0.00  0.00    +0.000 N 
ATOM     19  C   UNL     1      47.906   8.164  18.570  0.00  0.00    +0.000 A 
ATOM     20  O   UNL     1      47.878   8.963  17.641  0.00  0.00    +0.000 OA
ATOM     21  C   UNL     1      48.299   6.773  18.442  0.00  0.00    +0.000 A 
ATOM     22  H   UNL     1      47.253   9.503  19.949  0.00  0.00    +0.000 HD
ENDBRANCH   9  12
ENDBRANCH   7  10
ENDBRANCH   1   7
BRANCH   4  23
ATOM     23  C   UNL     1      44.003   4.802  10.287  0.00  0.00    +0.000 C 
BRANCH  23  24
ATOM     24  N   UNL     1      44.600   4.311   9.065  0.00  0.00    +0.000 N 
ATOM     25  C   UNL     1      45.081   3.021   8.953  0.00  0.00    +0.000 C 
ATOM     26  O   UNL     1      45.022   2.202   9.861  0.00  0.00    +0.000 OA
ATOM     27  H   UNL     1      44.611   4.925   8.262  0.00  0.00    +0.000 HD
BRANCH  25  28
ATOM     28  C   UNL     1      45.686   2.731   7.580  0.00  0.00    +0.000 C 
ATOM     29  C   UNL     1      46.377   1.362   7.439  0.00  0.00    +0.000 C 
ATOM     30  C   UNL     1      47.844   1.654   7.118  0.00  0.00    +0.000 C 
ATOM     31  C   UNL     1      47.817   3.018   6.449  0.00  0.00    +0.000 C 
ATOM     32  C   UNL     1      46.759   3.776   7.234  0.00  0.00    +0.000 C 
BRANCH  31  33
ATOM     33  O   UNL     1      47.440   2.918   5.081  0.00  0.00    +0.000 OA
ATOM     34  H   UNL     1      46.513   2.637   5.022  0.00  0.00    +0.000 HD
ENDBRANCH  31  33
ENDBRANCH  25  28
ENDBRANCH  23  24
ENDBRANCH   4  23
TORSDOF 7
ENDMDL
MODEL 3
REMARK VINA RESULT:    -7.561      2.204      3.673
REMARK INTER + INTRA:         -11.694
REMARK INTER:                 -10.596
REMARK INTRA:                  -1.098
REMARK UNBOUND:                -1.260
REMARK  Name = 
REMARK  7 active torsions:
REMARK  status: ('A' for Active; 'I' for Inactive)
REMARK    1  A    between atoms: C_2  and  C_21
REMARK    2  A    between atoms: N_3  and  C_4
REMARK    3  A    between atoms: C_4  and  C_5
REMARK    4  A    between atoms: C_8  and  C_9
REMARK    5  A    between atoms: C_9  and  N_10
REMARK    6  A    between atoms: C_11  and  C_13
REMARK    7  A    between atoms: C_16  and  O_17
REMARK                            x       y       z     vdW  Elec       q    Type
REMARK                         _______ _______ _______ _____ _____    ______ ____
ROOT
ATOM      1  C   UNL     1      46.087   4.461  13.611  0.00  0.00    +0.000 A 
ATOM      2  C   UNL     1      45.466   5.617  13.118  0.00  0.00    +0.000 A 
ATOM      3  C   UNL     1      44.722   5.582  11.931  0.00  0.00    +0.000 A 
ATOM      4  C   UNL     1      44.560   4.385  11.221  0.00  0.00    +0.000 A 
ATOM      5  C   UNL     1      45.163   3.224  11.727  0.00  0.00    +0.000 A 
ATOM      6  C   UNL     1      45.907   3.259  12.913  0.00  0.00    +0.000 A 
ENDROOT
BRANCH   1   7
ATOM      7  C   UNL     1      46.897   4.501  14.885  0.00  0.00    +0.000 C 
BRANCH   7  10
ATOM      8  O   UNL     1      49.027   5.008  16.631  0.00  0.00    +0.000 OA
ATOM      9  C   UNL     1      48.685   5.889  15.850  0.00  0.00    +0.000 C 
ATOM     10  N   UNL     1      47.602   5.752  15.015  0.00  0.00    +0.000 N 
ATOM     11  H   UNL     1      47.482   6.408  14.252  0.00  0.00    +0.000 HD
BRANCH   9  12
ATOM     12  C   UNL     1      49.398   7.173  15.773  0.00  0.00    +0.000 A 
ATOM     13  C   UNL     1      49.735   7.853  16.936  0.00  0.00    +0.000 A 
ATOM     14  S   UNL     1      50.537   9.335  16.654  0.00  0.00    +0.000 S 
ATOM     15  C   UNL     1      50.508   9.094  14.970  0.00  0.00    +0.000 A 
ATOM     16  N   UNL     1      51.067   9.997  14.122  0.00  0.00    +0.000 NA
ATOM     17  C   UNL     1      50.995   9.675  12.873  0.00  0.00    +0.000 A 
ATOM     18  N   UNL     1      50.414   8.532  12.396  0.00  0.00    +0.000 N 
ATOM     19  C   UNL     1      49.810   7.608  13.209  0.00  0.00    +0.000 A 
ATOM     20  O   UNL     1      49.254   6.622  12.739  0.00  0.00    +0.000 OA
ATOM     21  C   UNL     1      49.874   7.914  14.626  0.00  0.00    +0.000 A 
ATOM     22  H   UNL     1      50.380   8.342  11.405  0.00  0.00    +0.000 HD
ENDBRANCH   9  12
ENDBRANCH   7  10
ENDBRANCH   1   7
BRANCH   4  23
ATOM     23  C   UNL     1      43.777   4.349   9.930  0.00  0.00    +0.000 C 
BRANCH  23  24
ATOM     24  N   UNL     1      44.471   3.598   8.908  0.00  0.00    +0.000 N 
ATOM     25  C   UNL     1      45.569   4.108   8.243  0.00  0.00    +0.000 C 
ATOM     26  O   UNL     1      46.042   5.212   8.479  0.00  0.00    +0.000 OA
ATOM     27  H   UNL     1      44.163   2.653   8.722  0.00  0.00    +0.000 HD
BRANCH  25  28
ATOM     28  C   UNL     1      46.125   3.148   7.191  0.00  0.00    +0.000 C 
ATOM     29  C   UNL     1      46.055   1.654   7.557  0.00  0.00    +0.000 C 
ATOM     30  C   UNL     1      47.501   1.155   7.593  0.00  0.00    +0.000 C 
ATOM     31  C   UNL     1      48.244   2.089   6.653  0.00  0.00    +0.000 C 
ATOM     32  C   UNL     1      47.610   3.443   6.926  0.00  0.00    +0.000 C 
BRANCH  31  33
ATOM     33  O   UNL     1      48.052   1.718   5.294  0.00  0.00    +0.000 OA
ATOM     34  H   UNL     1      47.482   0.933   5.252  0.00  0.00    +0.000 HD
ENDBRANCH  31  33
ENDBRANCH  25  28
ENDBRANCH  23  24
ENDBRANCH   4  23
TORSDOF 7
ENDMDL
MODEL 4
REMARK VINA RESULT:    -7.559      1.424      1.945
REMARK INTER + INTRA:         -11.691
REMARK INTER:                 -10.332
REMARK INTRA:                  -1.360
REMARK UNBOUND:                -1.260
REMARK  Name = 
REMARK  7 active torsions:
REMARK  status: ('A' for Active; 'I' for Inactive)
REMARK    1  A    between atoms: C_2  and  C_21
REMARK    2  A    between atoms: N_3  and  C_4
REMARK    3  A    between atoms: C_4  and  C_5
REMARK    4  A    between atoms: C_8  and  C_9
REMARK    5  A    between atoms: C_9  and  N_10
REMARK    6  A    between atoms: C_11  and  C_13
REMARK    7  A    between atoms: C_16  and  O_17
REMARK                            x       y       z     vdW  Elec       q    Type
REMARK                         _______ _______ _______ _____ _____    ______ ____
ROOT
ATOM      1  C   UNL     1      47.700   7.905  13.021  0.00  0.00    +0.000 A 
ATOM      2  C   UNL     1      47.798   6.818  12.142  0.00  0.00    +0.000 A 
ATOM      3  C   UNL     1      46.653   6.271  11.546  0.00  0.00    +0.000 A 
ATOM      4  C   UNL     1      45.386   6.814  11.796  0.00  0.00    +0.000 A 
ATOM      5  C   UNL     1      45.292   7.916  12.657  0.00  0.00    +0.000 A 
ATOM      6  C   UNL     1      46.436   8.462  13.254  0.00  0.00    +0.000 A 
ENDROOT
BRANCH   1   7
ATOM      7  C   UNL     1      48.933   8.487  13.671  0.00  0.00    +0.000 C 
BRANCH   7  10
ATOM      8  O   UNL     1      48.098   9.176  16.253  0.00  0.00    +0.000 OA
ATOM      9  C   UNL     1      48.753   8.151  16.101  0.00  0.00    +0.000 C 
ATOM     10  N   UNL     1      49.268   7.782  14.882  0.00  0.00    +0.000 N 
ATOM     11  H   UNL     1      49.619   6.838  14.761  0.00  0.00    +0.000 HD
BRANCH   9  12
ATOM     12  C   UNL     1      49.059   7.255  17.227  0.00  0.00    +0.000 A 
ATOM     13  C   UNL     1      49.642   7.762  18.381  0.00  0.00    +0.000 A 
ATOM     14  S   UNL     1      49.948   6.576  19.571  0.00  0.00    +0.000 S 
ATOM     15  C   UNL     1      49.263   5.352  18.606  0.00  0.00    +0.000 A 
ATOM     16  N   UNL     1      49.179   4.071  19.052  0.00  0.00    +0.000 NA
ATOM     17  C   UNL     1      48.614   3.253  18.227  0.00  0.00    +0.000 A 
ATOM     18  N   UNL     1      48.127   3.601  16.997  0.00  0.00    +0.000 N 
ATOM     19  C   UNL     1      48.216   4.872  16.492  0.00  0.00    +0.000 A 
ATOM     20  O   UNL     1      47.814   5.132  15.364  0.00  0.00    +0.000 OA
ATOM     21  C   UNL     1      48.832   5.837  17.385  0.00  0.00    +0.000 A 
ATOM     22  H   UNL     1      47.705   2.911  16.393  0.00  0.00    +0.000 HD
ENDBRANCH   9  12
ENDBRANCH   7  10
ENDBRANCH   1   7
BRANCH   4  23
ATOM     23  C   UNL     1      44.148   6.213  11.172  0.00  0.00    +0.000 C 
BRANCH  23  24
ATOM     24  N   UNL     1      44.467   5.447   9.988  0.00  0.00    +0.000 N 
ATOM     25  C   UNL     1      44.081   4.129   9.843  0.00  0.00    +0.000 C 
ATOM     26  O   UNL     1      43.431   3.524  10.686  0.00  0.00    +0.000 OA
ATOM     27  H   UNL     1      44.943   5.918   9.231  0.00  0.00    +0.000 HD
BRANCH  25  28
ATOM     28  C   UNL     1      44.547   3.515   8.523  0.00  0.00    +0.000 C 
ATOM     29  C   UNL     1      44.787   1.995   8.550  0.00  0.00    +0.000 C 
ATOM     30  C   UNL     1      46.268   1.791   8.225  0.00  0.00    +0.000 C 
ATOM     31  C   UNL     1      46.645   3.014   7.406  0.00  0.00    +0.000 C 
ATOM     32  C   UNL     1      45.879   4.140   8.081  0.00  0.00    +0.000 C 
BRANCH  31  33
ATOM     33  O   UNL     1      46.233   2.878   6.051  0.00  0.00    +0.000 OA
ATOM     34  H   UNL     1      45.363   3.293   5.937  0.00  0.00    +0.000 HD
ENDBRANCH  31  33
ENDBRANCH  25  28
ENDBRANCH  23  24
ENDBRANCH   4  23
TORSDOF 7
ENDMDL
MODEL 5
REMARK VINA RESULT:    -7.434      1.924      2.168
REMARK INTER + INTRA:         -11.519
REMARK INTER:                 -10.671
REMARK INTRA:                  -0.849
REMARK UNBOUND:                -1.260
REMARK  Name = 
REMARK  7 active torsions:
REMARK  status: ('A' for Active; 'I' for Inactive)
REMARK    1  A    between atoms: C_2  and  C_21
REMARK    2  A    between atoms: N_3  and  C_4
REMARK    3  A    between atoms: C_4  and  C_5
REMARK    4  A    between atoms: C_8  and  C_9
REMARK    5  A    between atoms: C_9  and  N_10
REMARK    6  A    between atoms: C_11  and  C_13
REMARK    7  A    between atoms: C_16  and  O_17
REMARK                            x       y       z     vdW  Elec       q    Type
REMARK                         _______ _______ _______ _____ _____    ______ ____
ROOT
ATOM      1  C   UNL     1      47.281   6.251  13.449  0.00  0.00    +0.000 A 
ATOM      2  C   UNL     1      47.242   4.947  13.962  0.00  0.00    +0.000 A 
ATOM      3  C   UNL     1      46.379   3.986  13.415  0.00  0.00    +0.000 A 
ATOM      4  C   UNL     1      45.554   4.300  12.327  0.00  0.00    +0.000 A 
ATOM      5  C   UNL     1      45.611   5.599  11.801  0.00  0.00    +0.000 A 
ATOM      6  C   UNL     1      46.472   6.559  12.348  0.00  0.00    +0.000 A 
ENDROOT
BRANCH   1   7
ATOM      7  C   UNL     1      48.204   7.288  14.045  0.00  0.00    +0.000 C 
BRANCH   7  10
ATOM      8  O   UNL     1      50.276   6.359  15.683  0.00  0.00    +0.000 OA
ATOM      9  C   UNL     1      49.276   6.832  16.212  0.00  0.00    +0.000 C 
ATOM     10  N   UNL     1      48.183   7.239  15.485  0.00  0.00    +0.000 N 
ATOM     11  H   UNL     1      47.475   7.807  15.937  0.00  0.00    +0.000 HD
BRANCH   9  12
ATOM     12  C   UNL     1      49.167   6.972  17.672  0.00  0.00    +0.000 A 
ATOM     13  C   UNL     1      49.197   8.233  18.255  0.00  0.00    +0.000 A 
ATOM     14  S   UNL     1      49.083   8.201  19.959  0.00  0.00    +0.000 S 
ATOM     15  C   UNL     1      48.937   6.505  19.973  0.00  0.00    +0.000 A 
ATOM     16  N   UNL     1      48.775   5.825  21.138  0.00  0.00    +0.000 NA
ATOM     17  C   UNL     1      48.651   4.546  20.999  0.00  0.00    +0.000 A 
ATOM     18  N   UNL     1      48.677   3.888  19.799  0.00  0.00    +0.000 N 
ATOM     19  C   UNL     1      48.869   4.527  18.602  0.00  0.00    +0.000 A 
ATOM     20  O   UNL     1      48.937   3.897  17.554  0.00  0.00    +0.000 OA
ATOM     21  C   UNL     1      49.000   5.970  18.700  0.00  0.00    +0.000 A 
ATOM     22  H   UNL     1      48.586   2.883  19.758  0.00  0.00    +0.000 HD
ENDBRANCH   9  12
ENDBRANCH   7  10
ENDBRANCH   1   7
BRANCH   4  23
ATOM     23  C   UNL     1      44.608   3.273  11.750  0.00  0.00    +0.000 C 
BRANCH  23  24
ATOM     24  N   UNL     1      45.001   2.879  10.416  0.00  0.00    +0.000 N 
ATOM     25  C   UNL     1      44.487   3.493   9.291  0.00  0.00    +0.000 C 
ATOM     26  O   UNL     1      43.686   4.418   9.338  0.00  0.00    +0.000 OA
ATOM     27  H   UNL     1      45.711   2.166  10.321  0.00  0.00    +0.000 HD
BRANCH  25  28
ATOM     28  C   UNL     1      45.027   2.898   7.991  0.00  0.00    +0.000 C 
ATOM     29  C   UNL     1      45.666   1.503   8.117  0.00  0.00    +0.000 C 
ATOM     30  C   UNL     1      47.127   1.661   7.695  0.00  0.00    +0.000 C 
ATOM     31  C   UNL     1      47.119   2.855   6.756  0.00  0.00    +0.000 C 
ATOM     32  C   UNL     1      46.119   3.803   7.398  0.00  0.00    +0.000 C 
BRANCH  31  33
ATOM     33  O   UNL     1      46.685   2.487   5.452  0.00  0.00    +0.000 OA
ATOM     34  H   UNL     1      47.301   1.836   5.080  0.00  0.00    +0.000 HD
ENDBRANCH  31  33
ENDBRANCH  25  28
ENDBRANCH  23  24
ENDBRANCH   4  23
TORSDOF 7
ENDMDL
MODEL 6
REMARK VINA RESULT:    -6.964      4.743      9.498
REMARK INTER + INTRA:         -10.871
REMARK INTER:                  -9.869
REMARK INTRA:                  -1.002
REMARK UNBOUND:                -1.260
REMARK  Name = 
REMARK  7 active torsions:
REMARK  status: ('A' for Active; 'I' for Inactive)
REMARK    1  A    between atoms: C_2  and  C_21
REMARK    2  A    between atoms: N_3  and  C_4
REMARK    3  A    between atoms: C_4  and  C_5
REMARK    4  A    between atoms: C_8  and  C_9
REMARK    5  A    between atoms: C_9  and  N_10
REMARK    6  A    between atoms: C_11  and  C_13
REMARK    7  A    between atoms: C_16  and  O_17
REMARK                            x       y       z     vdW  Elec       q    Type
REMARK                         _______ _______ _______ _____ _____    ______ ____
ROOT
ATOM      1  C   UNL     1      48.650   3.620  17.028  0.00  0.00    +0.000 A 
ATOM      2  C   UNL     1      49.538   2.536  17.062  0.00  0.00    +0.000 A 
ATOM      3  C   UNL     1      50.882   2.718  17.417  0.00  0.00    +0.000 A 
ATOM      4  C   UNL     1      51.364   3.985  17.770  0.00  0.00    +0.000 A 
ATOM      5  C   UNL     1      50.470   5.065  17.757  0.00  0.00    +0.000 A 
ATOM      6  C   UNL     1      49.127   4.883  17.402  0.00  0.00    +0.000 A 
ENDROOT
BRANCH   1   7
ATOM      7  C   UNL     1      47.205   3.424  16.636  0.00  0.00    +0.000 C 
BRANCH   7  10
ATOM      8  O   UNL     1      47.216   3.143  13.850  0.00  0.00    +0.000 OA
ATOM      9  C   UNL     1      46.755   4.171  14.335  0.00  0.00    +0.000 C 
ATOM     10  N   UNL     1      46.782   4.422  15.686  0.00  0.00    +0.000 N 
ATOM     11  H   UNL     1      46.213   5.174  16.059  0.00  0.00    +0.000 HD
BRANCH   9  12
ATOM     12  C   UNL     1      46.162   5.224  13.496  0.00  0.00    +0.000 A 
ATOM     13  C   UNL     1      46.875   6.385  13.230  0.00  0.00    +0.000 A 
ATOM     14  S   UNL     1      46.022   7.504  12.261  0.00  0.00    +0.000 S 
ATOM     15  C   UNL     1      44.692   6.452  12.120  0.00  0.00    +0.000 A 
ATOM     16  N   UNL     1      43.603   6.794  11.382  0.00  0.00    +0.000 NA
ATOM     17  C   UNL     1      42.679   5.891  11.341  0.00  0.00    +0.000 A 
ATOM     18  N   UNL     1      42.747   4.679  11.973  0.00  0.00    +0.000 N 
ATOM     19  C   UNL     1      43.810   4.303  12.753  0.00  0.00    +0.000 A 
ATOM     20  O   UNL     1      43.810   3.230  13.344  0.00  0.00    +0.000 OA
ATOM     21  C   UNL     1      44.884   5.277  12.823  0.00  0.00    +0.000 A 
ATOM     22  H   UNL     1      41.986   4.019  11.911  0.00  0.00    +0.000 HD
ENDBRANCH   9  12
ENDBRANCH   7  10
ENDBRANCH   1   7
BRANCH   4  23
ATOM     23  C   UNL     1      52.817   4.189  18.131  0.00  0.00    +0.000 C 
BRANCH  23  24
ATOM     24  N   UNL     1      53.550   2.943  18.109  0.00  0.00    +0.000 N 
ATOM     25  C   UNL     1      54.747   2.810  17.434  0.00  0.00    +0.000 C 
ATOM     26  O   UNL     1      55.280   3.730  16.827  0.00  0.00    +0.000 OA
ATOM     27  H   UNL     1      53.189   2.170  18.651  0.00  0.00    +0.000 HD
BRANCH  25  28
ATOM     28  C   UNL     1      55.330   1.401  17.529  0.00  0.00    +0.000 C 
ATOM     29  C   UNL     1      55.526   0.674  16.186  0.00  0.00    +0.000 C 
ATOM     30  C   UNL     1      54.639  -0.572  16.241  0.00  0.00    +0.000 C 
ATOM     31  C   UNL     1      54.517  -0.881  17.724  0.00  0.00    +0.000 C 
ATOM     32  C   UNL     1      54.410   0.494  18.363  0.00  0.00    +0.000 C 
BRANCH  31  33
ATOM     33  O   UNL     1      55.667  -1.564  18.208  0.00  0.00    +0.000 OA
ATOM     34  H   UNL     1      55.501  -1.871  19.114  0.00  0.00    +0.000 HD
ENDBRANCH  31  33
ENDBRANCH  25  28
ENDBRANCH  23  24
ENDBRANCH   4  23
TORSDOF 7
ENDMDL
MODEL 7
REMARK VINA RESULT:    -6.725      4.622      7.389
REMARK INTER + INTRA:         -10.540
REMARK INTER:                  -9.573
REMARK INTRA:                  -0.968
REMARK UNBOUND:                -1.260
REMARK  Name = 
REMARK  7 active torsions:
REMARK  status: ('A' for Active; 'I' for Inactive)
REMARK    1  A    between atoms: C_2  and  C_21
REMARK    2  A    between atoms: N_3  and  C_4
REMARK    3  A    between atoms: C_4  and  C_5
REMARK    4  A    between atoms: C_8  and  C_9
REMARK    5  A    between atoms: C_9  and  N_10
REMARK    6  A    between atoms: C_11  and  C_13
REMARK    7  A    between atoms: C_16  and  O_17
REMARK                            x       y       z     vdW  Elec       q    Type
REMARK                         _______ _______ _______ _____ _____    ______ ____
ROOT
ATOM      1  C   UNL     1      47.600   8.392  12.410  0.00  0.00    +0.000 A 
ATOM      2  C   UNL     1      48.412   7.261  12.240  0.00  0.00    +0.000 A 
ATOM      3  C   UNL     1      49.720   7.383  11.752  0.00  0.00    +0.000 A 
ATOM      4  C   UNL     1      50.256   8.641  11.447  0.00  0.00    +0.000 A 
ATOM      5  C   UNL     1      49.452   9.773  11.639  0.00  0.00    +0.000 A 
ATOM      6  C   UNL     1      48.144   9.651  12.126  0.00  0.00    +0.000 A 
ENDROOT
BRANCH   1   7
ATOM      7  C   UNL     1      46.187   8.258  12.926  0.00  0.00    +0.000 C 
BRANCH   7  10
ATOM      8  O   UNL     1      44.252   7.583  11.018  0.00  0.00    +0.000 OA
ATOM      9  C   UNL     1      44.767   6.685  11.676  0.00  0.00    +0.000 C 
ATOM     10  N   UNL     1      45.666   6.936  12.684  0.00  0.00    +0.000 N 
ATOM     11  H   UNL     1      46.216   6.169  13.057  0.00  0.00    +0.000 HD
BRANCH   9  12
ATOM     12  C   UNL     1      44.434   5.271  11.447  0.00  0.00    +0.000 A 
ATOM     13  C   UNL     1      43.642   4.586  12.360  0.00  0.00    +0.000 A 
ATOM     14  S   UNL     1      43.380   2.950  11.945  0.00  0.00    +0.000 S 
ATOM     15  C   UNL     1      44.272   3.115  10.504  0.00  0.00    +0.000 A 
ATOM     16  N   UNL     1      44.418   2.071   9.647  0.00  0.00    +0.000 NA
ATOM     17  C   UNL     1      45.097   2.344   8.581  0.00  0.00    +0.000 A 
ATOM     18  N   UNL     1      45.644   3.566   8.299  0.00  0.00    +0.000 N 
ATOM     19  C   UNL     1      45.550   4.639   9.147  0.00  0.00    +0.000 A 
ATOM     20  O   UNL     1      46.097   5.703   8.883  0.00  0.00    +0.000 OA
ATOM     21  C   UNL     1      44.784   4.390  10.355  0.00  0.00    +0.000 A 
ATOM     22  H   UNL     1      46.174   3.714   7.453  0.00  0.00    +0.000 HD
ENDBRANCH   9  12
ENDBRANCH   7  10
ENDBRANCH   1   7
BRANCH   4  23
ATOM     23  C   UNL     1      51.659   8.774  10.900  0.00  0.00    +0.000 C 
BRANCH  23  24
ATOM     24  N   UNL     1      52.122   7.534  10.318  0.00  0.00    +0.000 N 
ATOM     25  C   UNL     1      52.893   7.506   9.173  0.00  0.00    +0.000 C 
ATOM     26  O   UNL     1      53.253   8.516   8.582  0.00  0.00    +0.000 OA
ATOM     27  H   UNL     1      51.911   6.673  10.805  0.00  0.00    +0.000 HD
BRANCH  25  28
ATOM     28  C   UNL     1      53.247   6.087   8.730  0.00  0.00    +0.000 C 
ATOM     29  C   UNL     1      54.750   5.750   8.728  0.00  0.00    +0.000 C 
ATOM     30  C   UNL     1      55.111   5.416   7.279  0.00  0.00    +0.000 C 
ATOM     31  C   UNL     1      53.808   4.924   6.671  0.00  0.00    +0.000 C 
ATOM     32  C   UNL     1      52.762   5.835   7.293  0.00  0.00    +0.000 C 
BRANCH  31  33
ATOM     33  O   UNL     1      53.553   3.569   7.019  0.00  0.00    +0.000 OA
ATOM     34  H   UNL     1      52.701   3.295   6.641  0.00  0.00    +0.000 HD
ENDBRANCH  31  33
ENDBRANCH  25  28
ENDBRANCH  23  24
ENDBRANCH   4  23
TORSDOF 7
ENDMDL
MODEL 8
REMARK VINA RESULT:    -6.577      1.912      2.364
REMARK INTER + INTRA:         -10.337
REMARK INTER:                  -9.457
REMARK INTRA:                  -0.879
REMARK UNBOUND:                -1.260
REMARK  Name = 
REMARK  7 active torsions:
REMARK  status: ('A' for Active; 'I' for Inactive)
REMARK    1  A    between atoms: C_2  and  C_21
REMARK    2  A    between atoms: N_3  and  C_4
REMARK    3  A    between atoms: C_4  and  C_5
REMARK    4  A    between atoms: C_8  and  C_9
REMARK    5  A    between atoms: C_9  and  N_10
REMARK    6  A    between atoms: C_11  and  C_13
REMARK    7  A    between atoms: C_16  and  O_17
REMARK                            x       y       z     vdW  Elec       q    Type
REMARK                         _______ _______ _______ _____ _____    ______ ____
ROOT
ATOM      1  C   UNL     1      45.529   7.126  12.350  0.00  0.00    +0.000 A 
ATOM      2  C   UNL     1      44.450   6.404  12.877  0.00  0.00    +0.000 A 
ATOM      3  C   UNL     1      44.156   5.113  12.415  0.00  0.00    +0.000 A 
ATOM      4  C   UNL     1      44.949   4.506  11.432  0.00  0.00    +0.000 A 
ATOM      5  C   UNL     1      46.042   5.221  10.923  0.00  0.00    +0.000 A 
ATOM      6  C   UNL     1      46.335   6.511  11.383  0.00  0.00    +0.000 A 
ENDROOT
BRANCH   1   7
ATOM      7  C   UNL     1      45.840   8.521  12.842  0.00  0.00    +0.000 C 
BRANCH   7  10
ATOM      8  O   UNL     1      48.462   9.498  12.921  0.00  0.00    +0.000 OA
ATOM      9  C   UNL     1      47.968   9.057  13.953  0.00  0.00    +0.000 C 
ATOM     10  N   UNL     1      46.718   8.488  13.983  0.00  0.00    +0.000 N 
ATOM     11  H   UNL     1      46.271   8.328  14.880  0.00  0.00    +0.000 HD
BRANCH   9  12
ATOM     12  C   UNL     1      48.696   9.081  15.231  0.00  0.00    +0.000 A 
ATOM     13  C   UNL     1      49.032  10.294  15.817  0.00  0.00    +0.000 A 
ATOM     14  S   UNL     1      49.896  10.129  17.282  0.00  0.00    +0.000 S 
ATOM     15  C   UNL     1      49.804   8.431  17.209  0.00  0.00    +0.000 A 
ATOM     16  N   UNL     1      50.334   7.657  18.193  0.00  0.00    +0.000 NA
ATOM     17  C   UNL     1      50.170   6.387  18.022  0.00  0.00    +0.000 A 
ATOM     18  N   UNL     1      49.526   5.822  16.955  0.00  0.00    +0.000 N 
ATOM     19  C   UNL     1      49.003   6.559  15.924  0.00  0.00    +0.000 A 
ATOM     20  O   UNL     1      48.479   6.014  14.960  0.00  0.00    +0.000 OA
ATOM     21  C   UNL     1      49.148   7.996  16.072  0.00  0.00    +0.000 A 
ATOM     22  H   UNL     1      49.439   4.819  16.873  0.00  0.00    +0.000 HD
ENDBRANCH   9  12
ENDBRANCH   7  10
ENDBRANCH   1   7
BRANCH   4  23
ATOM     23  C   UNL     1      44.621   3.124  10.917  0.00  0.00    +0.000 C 
BRANCH  23  24
ATOM     24  N   UNL     1      45.283   2.854   9.660  0.00  0.00    +0.000 N 
ATOM     25  C   UNL     1      44.863   3.425   8.475  0.00  0.00    +0.000 C 
ATOM     26  O   UNL     1      43.923   4.206   8.402  0.00  0.00    +0.000 OA
ATOM     27  H   UNL     1      46.107   2.270   9.674  0.00  0.00    +0.000 HD
BRANCH  25  28
ATOM     28  C   UNL     1      45.696   2.980   7.273  0.00  0.00    +0.000 C 
ATOM     29  C   UNL     1      46.125   1.501   7.278  0.00  0.00    +0.000 C 
ATOM     30  C   UNL     1      47.654   1.499   7.303  0.00  0.00    +0.000 C 
ATOM     31  C   UNL     1      48.042   2.821   6.661  0.00  0.00    +0.000 C 
ATOM     32  C   UNL     1      46.999   3.791   7.193  0.00  0.00    +0.000 C 
BRANCH  31  33
ATOM     33  O   UNL     1      47.972   2.748   5.243  0.00  0.00    +0.000 OA
ATOM     34  H   UNL     1      48.492   1.988   4.934  0.00  0.00    +0.000 HD
ENDBRANCH  31  33
ENDBRANCH  25  28
ENDBRANCH  23  24
ENDBRANCH   4  23
TORSDOF 7
ENDMDL
MODEL 9
REMARK VINA RESULT:    -6.496      4.113      9.132
REMARK INTER + INTRA:         -10.224
REMARK INTER:                  -9.193
REMARK INTRA:                  -1.031
REMARK UNBOUND:                -1.260
REMARK  Name = 
REMARK  7 active torsions:
REMARK  status: ('A' for Active; 'I' for Inactive)
REMARK    1  A    between atoms: C_2  and  C_21
REMARK    2  A    between atoms: N_3  and  C_4
REMARK    3  A    between atoms: C_4  and  C_5
REMARK    4  A    between atoms: C_8  and  C_9
REMARK    5  A    between atoms: C_9  and  N_10
REMARK    6  A    between atoms: C_11  and  C_13
REMARK    7  A    between atoms: C_16  and  O_17
REMARK                            x       y       z     vdW  Elec       q    Type
REMARK                         _______ _______ _______ _____ _____    ______ ____
ROOT
ATOM      1  C   UNL     1      48.663   3.669  17.045  0.00  0.00    +0.000 A 
ATOM      2  C   UNL     1      49.473   2.530  17.163  0.00  0.00    +0.000 A 
ATOM      3  C   UNL     1      50.839   2.648  17.458  0.00  0.00    +0.000 A 
ATOM      4  C   UNL     1      51.421   3.905  17.667  0.00  0.00    +0.000 A 
ATOM      5  C   UNL     1      50.605   5.041  17.571  0.00  0.00    +0.000 A 
ATOM      6  C   UNL     1      49.241   4.924  17.275  0.00  0.00    +0.000 A 
ENDROOT
BRANCH   1   7
ATOM      7  C   UNL     1      47.194   3.542  16.718  0.00  0.00    +0.000 C 
BRANCH   7  10
ATOM      8  O   UNL     1      47.182   3.162  13.944  0.00  0.00    +0.000 OA
ATOM      9  C   UNL     1      46.751   4.218  14.394  0.00  0.00    +0.000 C 
ATOM     10  N   UNL     1      46.793   4.516  15.734  0.00  0.00    +0.000 N 
ATOM     11  H   UNL     1      46.246   5.296  16.083  0.00  0.00    +0.000 HD
BRANCH   9  12
ATOM     12  C   UNL     1      46.182   5.256  13.521  0.00  0.00    +0.000 A 
ATOM     13  C   UNL     1      46.921   6.392  13.217  0.00  0.00    +0.000 A 
ATOM     14  S   UNL     1      46.093   7.497  12.212  0.00  0.00    +0.000 S 
ATOM     15  C   UNL     1      44.739   6.472  12.105  0.00  0.00    +0.000 A 
ATOM     16  N   UNL     1      43.657   6.814  11.356  0.00  0.00    +0.000 NA
ATOM     17  C   UNL     1      42.713   5.931  11.345  0.00  0.00    +0.000 A 
ATOM     18  N   UNL     1      42.754   4.740  12.017  0.00  0.00    +0.000 N 
ATOM     19  C   UNL     1      43.808   4.365  12.808  0.00  0.00    +0.000 A 
ATOM     20  O   UNL     1      43.785   3.313  13.435  0.00  0.00    +0.000 OA
ATOM     21  C   UNL     1      44.905   5.316  12.846  0.00  0.00    +0.000 A 
ATOM     22  H   UNL     1      41.977   4.096  11.976  0.00  0.00    +0.000 HD
ENDBRANCH   9  12
ENDBRANCH   7  10
ENDBRANCH   1   7
BRANCH   4  23
ATOM     23  C   UNL     1      52.897   4.036  17.963  0.00  0.00    +0.000 C 
BRANCH  23  24
ATOM     24  N   UNL     1      53.524   5.023  17.114  0.00  0.00    +0.000 N 
ATOM     25  C   UNL     1      54.025   6.208  17.616  0.00  0.00    +0.000 C 
ATOM     26  O   UNL     1      53.993   6.499  18.805  0.00  0.00    +0.000 OA
ATOM     27  H   UNL     1      53.639   4.803  16.134  0.00  0.00    +0.000 HD
BRANCH  25  28
ATOM     28  C   UNL     1      54.622   7.107  16.534  0.00  0.00    +0.000 C 
ATOM     29  C   UNL     1      53.749   8.302  16.111  0.00  0.00    +0.000 C 
ATOM     30  C   UNL     1      53.441   8.103  14.626  0.00  0.00    +0.000 C 
ATOM     31  C   UNL     1      54.603   7.272  14.110  0.00  0.00    +0.000 C 
ATOM     32  C   UNL     1      54.878   6.303  15.249  0.00  0.00    +0.000 C 
BRANCH  31  33
ATOM     33  O   UNL     1      55.748   8.079  13.860  0.00  0.00    +0.000 OA
ATOM     34  H   UNL     1      56.543   7.609  14.159  0.00  0.00    +0.000 HD
ENDBRANCH  31  33
ENDBRANCH  25  28
ENDBRANCH  23  24
ENDBRANCH   4  23
TORSDOF 7
ENDMDL
