MODEL 1
REMARK VINA RESULT:    -8.303      0.000      0.000
REMARK INTER + INTRA:         -12.977
REMARK INTER:                 -11.943
REMARK INTRA:                  -1.034
REMARK UNBOUND:                -1.034
REMARK  Name = 
REMARK  8 active torsions:
REMARK  status: ('A' for Active; 'I' for Inactive)
REMARK    1  A    between atoms: C_2  and  C_20
REMARK    2  A    between atoms: N_3  and  C_4
REMARK    3  A    between atoms: C_4  and  C_5
REMARK    4  A    between atoms: C_8  and  C_9
REMARK    5  A    between atoms: C_9  and  O_10
REMARK    6  A    between atoms: C_9  and  C_11
REMARK    7  A    between atoms: C_11  and  N_12
REMARK    8  A    between atoms: N_12  and  C_13
REMARK                            x       y       z     vdW  Elec       q    Type
REMARK                         _______ _______ _______ _____ _____    ______ ____
ROOT
ATOM      1  C   UNL     1      46.196   6.526  12.526  0.00  0.00    +0.000 A 
ATOM      2  C   UNL     1      45.362   5.676  13.261  0.00  0.00    +0.000 A 
ATOM      3  C   UNL     1      44.556   4.736  12.616  0.00  0.00    +0.000 A 
ATOM      4  C   UNL     1      44.577   4.616  11.219  0.00  0.00    +0.000 A 
ATOM      5  C   UNL     1      45.425   5.461  10.486  0.00  0.00    +0.000 A 
ATOM      6  C   UNL     1      46.233   6.399  11.132  0.00  0.00    +0.000 A 
ENDROOT
BRANCH   1   7
ATOM      7  C   UNL     1      47.079   7.519  13.231  0.00  0.00    +0.000 C 
BRANCH   7  10
ATOM      8  O   UNL     1      49.740   7.041  14.015  0.00  0.00    +0.000 OA
ATOM      9  C   UNL     1      48.837   6.858  14.829  0.00  0.00    +0.000 C 
ATOM     10  N   UNL     1      47.514   7.007  14.505  0.00  0.00    +0.000 N 
ATOM     11  H   UNL     1      46.828   7.044  15.252  0.00  0.00    +0.000 HD
BRANCH   9  12
ATOM     12  C   UNL     1      49.121   6.402  16.195  0.00  0.00    +0.000 A 
ATOM     13  C   UNL     1      49.868   7.203  17.048  0.00  0.00    +0.000 A 
ATOM     14  S   UNL     1      50.137   6.508  18.581  0.00  0.00    +0.000 S 
ATOM     15  C   UNL     1      49.222   5.131  18.180  0.00  0.00    +0.000 A 
ATOM     16  N   UNL     1      49.028   4.134  19.082  0.00  0.00    +0.000 NA
ATOM     17  C   UNL     1      48.274   3.175  18.664  0.00  0.00    +0.000 A 
ATOM     18  N   UNL     1      47.711   3.113  17.414  0.00  0.00    +0.000 N 
ATOM     19  C   UNL     1      47.949   4.056  16.444  0.00  0.00    +0.000 A 
ATOM     20  O   UNL     1      47.536   3.904  15.301  0.00  0.00    +0.000 OA
ATOM     21  C   UNL     1      48.744   5.187  16.882  0.00  0.00    +0.000 A 
ATOM     22  H   UNL     1      47.155   2.320  17.132  0.00  0.00    +0.000 HD
ENDBRANCH   9  12
ENDBRANCH   7  10
ENDBRANCH   1   7
BRANCH   4  23
ATOM     23  C   UNL     1      43.661   3.622  10.530  0.00  0.00    +0.000 C 
BRANCH  23  24
ATOM     24  O   UNL     1      42.891   2.937  11.522  0.00  0.00    +0.000 OA
ATOM     25  H   UNL     1      42.734   3.570  12.242  0.00  0.00    +0.000 HD
ENDBRANCH  23  24
BRANCH  23  26
ATOM     26  C   UNL     1      44.484   2.638   9.653  0.00  0.00    +0.000 C 
BRANCH  26  27
ATOM     27  N   UNL     1      44.659   3.091   8.264  0.00  0.00    +0.000 NA
ATOM     28  H   UNL     1      44.426   4.081   8.188  0.00  0.00    +0.000 HD
BRANCH  27  29
ATOM     29  C   UNL     1      46.020   2.936   7.811  0.00  0.00    +0.000 C 
ATOM     30  C   UNL     1      46.278   3.127   6.323  0.00  0.00    +0.000 C 
ATOM     31  C   UNL     1      47.596   2.400   6.132  0.00  0.00    +0.000 C 
ATOM     32  C   UNL     1      47.558   1.293   7.180  0.00  0.00    +0.000 C 
ATOM     33  N   UNL     1      46.353   1.537   7.980  0.00  0.00    +0.000 NA
ATOM     34  H   UNL     1      46.517   1.338   8.964  0.00  0.00    +0.000 HD
ENDBRANCH  27  29
ENDBRANCH  26  27
ENDBRANCH  23  26
ENDBRANCH   4  23
TORSDOF 8
ENDMDL
MODEL 2
REMARK VINA RESULT:    -8.009      1.322      1.471
REMARK INTER + INTRA:         -12.555
REMARK INTER:                 -11.680
REMARK INTRA:                  -0.874
REMARK UNBOUND:                -1.034
REMARK  Name = 
REMARK  8 active torsions:
REMARK  status: ('A' for Active; 'I' for Inactive)
REMARK    1  A    between atoms: C_2  and  C_20
REMARK    2  A    between atoms: N_3  and  C_4
REMARK    3  A    between atoms: C_4  and  C_5
REMARK    4  A    between atoms: C_8  and  C_9
REMARK    5  A    between atoms: C_9  and  O_10
REMARK    6  A    between atoms: C_9  and  C_11
REMARK    7  A    between atoms: C_11  and  N_12
REMARK    8  A    between atoms: N_12  and  C_13
REMARK                            x       y       z     vdW  Elec       q    Type
REMARK                         _______ _______ _______ _____ _____    ______ ____
ROOT
ATOM      1  C   UNL     1      47.136   6.073  12.727  0.00  0.00    +0.000 A 
ATOM      2  C   UNL     1      46.544   4.920  13.257  0.00  0.00    +0.000 A 
ATOM      3  C   UNL     1      45.473   4.306  12.605  0.00  0.00    +0.000 A 
ATOM      4  C   UNL     1      44.978   4.825  11.400  0.00  0.00    +0.000 A 
ATOM      5  C   UNL     1      45.583   5.973  10.866  0.00  0.00    +0.000 A 
ATOM      6  C   UNL     1      46.656   6.585  11.516  0.00  0.00    +0.000 A 
ENDROOT
BRANCH   1   7
ATOM      7  C   UNL     1      48.305   6.713  13.424  0.00  0.00    +0.000 C 
BRANCH   7  10
ATOM      8  O   UNL     1      50.357   6.756  15.349  0.00  0.00    +0.000 OA
ATOM      9  C   UNL     1      49.187   6.763  15.726  0.00  0.00    +0.000 C 
ATOM     10  N   UNL     1      48.134   6.679  14.854  0.00  0.00    +0.000 N 
ATOM     11  H   UNL     1      47.201   6.892  15.190  0.00  0.00    +0.000 HD
BRANCH   9  12
ATOM     12  C   UNL     1      48.844   6.798  17.153  0.00  0.00    +0.000 A 
ATOM     13  C   UNL     1      48.379   7.976  17.722  0.00  0.00    +0.000 A 
ATOM     14  S   UNL     1      48.065   7.853  19.392  0.00  0.00    +0.000 S 
ATOM     15  C   UNL     1      48.488   6.205  19.408  0.00  0.00    +0.000 A 
ATOM     16  N   UNL     1      48.411   5.475  20.552  0.00  0.00    +0.000 NA
ATOM     17  C   UNL     1      48.712   4.229  20.410  0.00  0.00    +0.000 A 
ATOM     18  N   UNL     1      49.105   3.650  19.229  0.00  0.00    +0.000 N 
ATOM     19  C   UNL     1      49.278   4.367  18.070  0.00  0.00    +0.000 A 
ATOM     20  O   UNL     1      49.752   3.845  17.069  0.00  0.00    +0.000 OA
ATOM     21  C   UNL     1      48.895   5.763  18.161  0.00  0.00    +0.000 A 
ATOM     22  H   UNL     1      49.360   2.675  19.187  0.00  0.00    +0.000 HD
ENDBRANCH   9  12
ENDBRANCH   7  10
ENDBRANCH   1   7
BRANCH   4  23
ATOM     23  C   UNL     1      43.784   4.173  10.728  0.00  0.00    +0.000 C 
BRANCH  23  24
ATOM     24  O   UNL     1      42.629   4.365  11.549  0.00  0.00    +0.000 OA
ATOM     25  H   UNL     1      42.147   3.521  11.558  0.00  0.00    +0.000 HD
ENDBRANCH  23  24
BRANCH  23  26
ATOM     26  C   UNL     1      44.062   2.668  10.460  0.00  0.00    +0.000 C 
BRANCH  26  27
ATOM     27  N   UNL     1      44.215   2.341   9.033  0.00  0.00    +0.000 NA
ATOM     28  H   UNL     1      43.712   3.023   8.464  0.00  0.00    +0.000 HD
BRANCH  27  29
ATOM     29  C   UNL     1      45.596   2.371   8.616  0.00  0.00    +0.000 C 
ATOM     30  C   UNL     1      45.912   3.121   7.330  0.00  0.00    +0.000 C 
ATOM     31  C   UNL     1      47.248   2.521   6.930  0.00  0.00    +0.000 C 
ATOM     32  C   UNL     1      47.182   1.095   7.467  0.00  0.00    +0.000 C 
ATOM     33  N   UNL     1      45.942   1.014   8.245  0.00  0.00    +0.000 NA
ATOM     34  H   UNL     1      46.068   0.450   9.082  0.00  0.00    +0.000 HD
ENDBRANCH  27  29
ENDBRANCH  26  27
ENDBRANCH  23  26
ENDBRANCH   4  23
TORSDOF 8
ENDMDL
MODEL 3
REMARK VINA RESULT:    -7.875      1.822      2.308
REMARK INTER + INTRA:         -12.362
REMARK INTER:                 -11.555
REMARK INTRA:                  -0.807
REMARK UNBOUND:                -1.034
REMARK  Name = 
REMARK  8 active torsions:
REMARK  status: ('A' for Active; 'I' for Inactive)
REMARK    1  A    between atoms: C_2  and  C_20
REMARK    2  A    between atoms: N_3  and  C_4
REMARK    3  A    between atoms: C_4  and  C_5
REMARK    4  A    between atoms: C_8  and  C_9
REMARK    5  A    between atoms: C_9  and  O_10
REMARK    6  A    between atoms: C_9  and  C_11
REMARK    7  A    between atoms: C_11  and  N_12
REMARK    8  A    between atoms: N_12  and  C_13
REMARK                            x       y       z     vdW  Elec       q    Type
REMARK                         _______ _______ _______ _____ _____    ______ ____
ROOT
ATOM      1  C   UNL     1      46.873   5.919  12.825  0.00  0.00    +0.000 A 
ATOM      2  C   UNL     1      46.342   4.700  13.263  0.00  0.00    +0.000 A 
ATOM      3  C   UNL     1      45.360   4.043  12.519  0.00  0.00    +0.000 A 
ATOM      4  C   UNL     1      44.895   4.585  11.313  0.00  0.00    +0.000 A 
ATOM      5  C   UNL     1      45.439   5.801  10.870  0.00  0.00    +0.000 A 
ATOM      6  C   UNL     1      46.424   6.456  11.613  0.00  0.00    +0.000 A 
ENDROOT
BRANCH   1   7
ATOM      7  C   UNL     1      47.948   6.608  13.619  0.00  0.00    +0.000 C 
BRANCH   7  10
ATOM      8  O   UNL     1      50.095   6.725  15.436  0.00  0.00    +0.000 OA
ATOM      9  C   UNL     1      49.002   6.324  15.831  0.00  0.00    +0.000 C 
ATOM     10  N   UNL     1      47.928   6.177  14.994  0.00  0.00    +0.000 N 
ATOM     11  H   UNL     1      47.007   6.041  15.399  0.00  0.00    +0.000 HD
BRANCH   9  12
ATOM     12  C   UNL     1      48.798   5.912  17.225  0.00  0.00    +0.000 A 
ATOM     13  C   UNL     1      49.027   4.594  17.594  0.00  0.00    +0.000 A 
ATOM     14  S   UNL     1      48.706   4.277  19.238  0.00  0.00    +0.000 S 
ATOM     15  C   UNL     1      48.298   5.903  19.529  0.00  0.00    +0.000 A 
ATOM     16  N   UNL     1      47.946   6.322  20.774  0.00  0.00    +0.000 NA
ATOM     17  C   UNL     1      47.712   7.587  20.863  0.00  0.00    +0.000 A 
ATOM     18  N   UNL     1      47.777   8.470  19.814  0.00  0.00    +0.000 N 
ATOM     19  C   UNL     1      48.045   8.075  18.526  0.00  0.00    +0.000 A 
ATOM     20  O   UNL     1      47.969   8.866  17.594  0.00  0.00    +0.000 OA
ATOM     21  C   UNL     1      48.375   6.671  18.381  0.00  0.00    +0.000 A 
ATOM     22  H   UNL     1      47.550   9.444  19.939  0.00  0.00    +0.000 HD
ENDBRANCH   9  12
ENDBRANCH   7  10
ENDBRANCH   1   7
BRANCH   4  23
ATOM     23  C   UNL     1      43.795   3.882  10.541  0.00  0.00    +0.000 C 
BRANCH  23  24
ATOM     24  O   UNL     1      42.780   3.464  11.457  0.00  0.00    +0.000 OA
ATOM     25  H   UNL     1      42.563   4.235  12.008  0.00  0.00    +0.000 HD
ENDBRANCH  23  24
BRANCH  23  26
ATOM     26  C   UNL     1      44.372   2.689   9.729  0.00  0.00    +0.000 C 
BRANCH  26  27
ATOM     27  N   UNL     1      44.568   2.986   8.302  0.00  0.00    +0.000 NA
ATOM     28  H   UNL     1      44.276   3.943   8.102  0.00  0.00    +0.000 HD
BRANCH  27  29
ATOM     29  C   UNL     1      45.951   2.869   7.908  0.00  0.00    +0.000 C 
ATOM     30  C   UNL     1      46.287   3.205   6.462  0.00  0.00    +0.000 C 
ATOM     31  C   UNL     1      47.614   2.492   6.270  0.00  0.00    +0.000 C 
ATOM     32  C   UNL     1      47.519   1.287   7.199  0.00  0.00    +0.000 C 
ATOM     33  N   UNL     1      46.273   1.457   7.954  0.00  0.00    +0.000 NA
ATOM     34  H   UNL     1      46.384   1.161   8.921  0.00  0.00    +0.000 HD
ENDBRANCH  27  29
ENDBRANCH  26  27
ENDBRANCH  23  26
ENDBRANCH   4  23
TORSDOF 8
ENDMDL
MODEL 4
REMARK VINA RESULT:    -7.850      1.091      1.343
REMARK INTER + INTRA:         -12.326
REMARK INTER:                 -11.240
REMARK INTRA:                  -1.086
REMARK UNBOUND:                -1.034
REMARK  Name = 
REMARK  8 active torsions:
REMARK  status: ('A' for Active; 'I' for Inactive)
REMARK    1  A    between atoms: C_2  and  C_20
REMARK    2  A    between atoms: N_3  and  C_4
REMARK    3  A    between atoms: C_4  and  C_5
REMARK    4  A    between atoms: C_8  and  C_9
REMARK    5  A    between atoms: C_9  and  O_10
REMARK    6  A    between atoms: C_9  and  C_11
REMARK    7  A    between atoms: C_11  and  N_12
REMARK    8  A    between atoms: N_12  and  C_13
REMARK                            x       y       z     vdW  Elec       q    Type
REMARK                         _______ _______ _______ _____ _____    ______ ____
ROOT
ATOM      1  C   UNL     1      46.527   7.258  12.909  0.00  0.00    +0.000 A 
ATOM      2  C   UNL     1      46.443   5.861  12.919  0.00  0.00    +0.000 A 
ATOM      3  C   UNL     1      45.407   5.205  12.251  0.00  0.00    +0.000 A 
ATOM      4  C   UNL     1      44.438   5.934  11.546  0.00  0.00    +0.000 A 
ATOM      5  C   UNL     1      44.534   7.334  11.528  0.00  0.00    +0.000 A 
ATOM      6  C   UNL     1      45.572   7.989  12.193  0.00  0.00    +0.000 A 
ENDROOT
BRANCH   1   7
ATOM      7  C   UNL     1      47.661   7.955  13.611  0.00  0.00    +0.000 C 
BRANCH   7  10
ATOM      8  O   UNL     1      50.207   7.297  14.613  0.00  0.00    +0.000 OA
ATOM      9  C   UNL     1      49.220   7.096  15.317  0.00  0.00    +0.000 C 
ATOM     10  N   UNL     1      47.944   7.330  14.877  0.00  0.00    +0.000 N 
ATOM     11  H   UNL     1      47.187   7.343  15.554  0.00  0.00    +0.000 HD
BRANCH   9  12
ATOM     12  C   UNL     1      49.346   6.527  16.664  0.00  0.00    +0.000 A 
ATOM     13  C   UNL     1      49.989   7.249  17.661  0.00  0.00    +0.000 A 
ATOM     14  S   UNL     1      50.081   6.428  19.151  0.00  0.00    +0.000 S 
ATOM     15  C   UNL     1      49.219   5.097  18.536  0.00  0.00    +0.000 A 
ATOM     16  N   UNL     1      48.923   4.030  19.325  0.00  0.00    +0.000 NA
ATOM     17  C   UNL     1      48.222   3.116  18.746  0.00  0.00    +0.000 A 
ATOM     18  N   UNL     1      47.807   3.162  17.438  0.00  0.00    +0.000 N 
ATOM     19  C   UNL     1      48.154   4.179  16.583  0.00  0.00    +0.000 A 
ATOM     20  O   UNL     1      47.875   4.125  15.392  0.00  0.00    +0.000 OA
ATOM     21  C   UNL     1      48.892   5.263  17.201  0.00  0.00    +0.000 A 
ATOM     22  H   UNL     1      47.287   2.400  17.030  0.00  0.00    +0.000 HD
ENDBRANCH   9  12
ENDBRANCH   7  10
ENDBRANCH   1   7
BRANCH   4  23
ATOM     23  C   UNL     1      43.293   5.209  10.865  0.00  0.00    +0.000 C 
BRANCH  23  24
ATOM     24  O   UNL     1      42.368   4.765  11.861  0.00  0.00    +0.000 OA
ATOM     25  H   UNL     1      42.682   5.113  12.712  0.00  0.00    +0.000 HD
ENDBRANCH  23  24
BRANCH  23  26
ATOM     26  C   UNL     1      43.827   4.031  10.002  0.00  0.00    +0.000 C 
BRANCH  26  27
ATOM     27  N   UNL     1      44.203   4.424   8.635  0.00  0.00    +0.000 NA
ATOM     28  H   UNL     1      44.812   5.242   8.663  0.00  0.00    +0.000 HD
BRANCH  27  29
ATOM     29  C   UNL     1      44.922   3.378   7.949  0.00  0.00    +0.000 C 
ATOM     30  C   UNL     1      45.416   2.212   8.794  0.00  0.00    +0.000 C 
ATOM     31  C   UNL     1      46.519   1.633   7.926  0.00  0.00    +0.000 C 
ATOM     32  C   UNL     1      47.060   2.842   7.170  0.00  0.00    +0.000 C 
ATOM     33  N   UNL     1      46.174   3.960   7.510  0.00  0.00    +0.000 NA
ATOM     34  H   UNL     1      46.010   4.560   6.705  0.00  0.00    +0.000 HD
ENDBRANCH  27  29
ENDBRANCH  26  27
ENDBRANCH  23  26
ENDBRANCH   4  23
TORSDOF 8
ENDMDL
MODEL 5
REMARK VINA RESULT:    -7.513      2.312      2.988
REMARK INTER + INTRA:         -11.842
REMARK INTER:                 -10.885
REMARK INTRA:                  -0.957
REMARK UNBOUND:                -1.034
REMARK  Name = 
REMARK  8 active torsions:
REMARK  status: ('A' for Active; 'I' for Inactive)
REMARK    1  A    between atoms: C_2  and  C_20
REMARK    2  A    between atoms: N_3  and  C_4
REMARK    3  A    between atoms: C_4  and  C_5
REMARK    4  A    between atoms: C_8  and  C_9
REMARK    5  A    between atoms: C_9  and  O_10
REMARK    6  A    between atoms: C_9  and  C_11
REMARK    7  A    between atoms: C_11  and  N_12
REMARK    8  A    between atoms: N_12  and  C_13
REMARK                            x       y       z     vdW  Elec       q    Type
REMARK                         _______ _______ _______ _____ _____    ______ ____
ROOT
ATOM      1  C   UNL     1      46.526   4.390  13.911  0.00  0.00    +0.000 A 
ATOM      2  C   UNL     1      45.904   3.384  13.161  0.00  0.00    +0.000 A 
ATOM      3  C   UNL     1      45.297   3.680  11.939  0.00  0.00    +0.000 A 
ATOM      4  C   UNL     1      45.308   4.988  11.434  0.00  0.00    +0.000 A 
ATOM      5  C   UNL     1      45.944   5.991  12.183  0.00  0.00    +0.000 A 
ATOM      6  C   UNL     1      46.554   5.694  13.403  0.00  0.00    +0.000 A 
ENDROOT
BRANCH   1   7
ATOM      7  C   UNL     1      47.200   4.058  15.214  0.00  0.00    +0.000 C 
BRANCH   7  10
ATOM      8  O   UNL     1      49.577   4.340  16.693  0.00  0.00    +0.000 OA
ATOM      9  C   UNL     1      48.858   5.323  16.529  0.00  0.00    +0.000 C 
ATOM     10  N   UNL     1      47.655   5.253  15.877  0.00  0.00    +0.000 N 
ATOM     11  H   UNL     1      47.201   6.115  15.592  0.00  0.00    +0.000 HD
BRANCH   9  12
ATOM     12  C   UNL     1      49.217   6.634  17.084  0.00  0.00    +0.000 A 
ATOM     13  C   UNL     1      50.233   7.376  16.496  0.00  0.00    +0.000 A 
ATOM     14  S   UNL     1      50.548   8.853  17.286  0.00  0.00    +0.000 S 
ATOM     15  C   UNL     1      49.303   8.580  18.413  0.00  0.00    +0.000 A 
ATOM     16  N   UNL     1      49.017   9.498  19.374  0.00  0.00    +0.000 NA
ATOM     17  C   UNL     1      48.018   9.188  20.127  0.00  0.00    +0.000 A 
ATOM     18  N   UNL     1      47.289   8.029  20.020  0.00  0.00    +0.000 N 
ATOM     19  C   UNL     1      47.597   7.038  19.120  0.00  0.00    +0.000 A 
ATOM     20  O   UNL     1      47.008   5.964  19.137  0.00  0.00    +0.000 OA
ATOM     21  C   UNL     1      48.676   7.364  18.209  0.00  0.00    +0.000 A 
ATOM     22  H   UNL     1      46.537   7.826  20.661  0.00  0.00    +0.000 HD
ENDBRANCH   9  12
ENDBRANCH   7  10
ENDBRANCH   1   7
BRANCH   4  23
ATOM     23  C   UNL     1      44.603   5.302  10.128  0.00  0.00    +0.000 C 
BRANCH  23  24
ATOM     24  O   UNL     1      43.226   5.575  10.399  0.00  0.00    +0.000 OA
ATOM     25  H   UNL     1      43.074   6.507  10.171  0.00  0.00    +0.000 HD
ENDBRANCH  23  24
BRANCH  23  26
ATOM     26  C   UNL     1      44.776   4.133   9.118  0.00  0.00    +0.000 C 
BRANCH  26  27
ATOM     27  N   UNL     1      45.697   4.439   8.013  0.00  0.00    +0.000 NA
ATOM     28  H   UNL     1      46.533   4.898   8.373  0.00  0.00    +0.000 HD
BRANCH  27  29
ATOM     29  C   UNL     1      46.127   3.248   7.321  0.00  0.00    +0.000 C 
ATOM     30  C   UNL     1      46.208   1.966   8.138  0.00  0.00    +0.000 C 
ATOM     31  C   UNL     1      47.151   1.116   7.306  0.00  0.00    +0.000 C 
ATOM     32  C   UNL     1      48.065   2.136   6.635  0.00  0.00    +0.000 C 
ATOM     33  N   UNL     1      47.519   3.453   6.977  0.00  0.00    +0.000 NA
ATOM     34  H   UNL     1      47.588   4.096   6.191  0.00  0.00    +0.000 HD
ENDBRANCH  27  29
ENDBRANCH  26  27
ENDBRANCH  23  26
ENDBRANCH   4  23
TORSDOF 8
ENDMDL
MODEL 6
REMARK VINA RESULT:    -7.481      1.960      3.320
REMARK INTER + INTRA:         -11.795
REMARK INTER:                 -10.708
REMARK INTRA:                  -1.087
REMARK UNBOUND:                -1.034
REMARK  Name = 
REMARK  8 active torsions:
REMARK  status: ('A' for Active; 'I' for Inactive)
REMARK    1  A    between atoms: C_2  and  C_20
REMARK    2  A    between atoms: N_3  and  C_4
REMARK    3  A    between atoms: C_4  and  C_5
REMARK    4  A    between atoms: C_8  and  C_9
REMARK    5  A    between atoms: C_9  and  O_10
REMARK    6  A    between atoms: C_9  and  C_11
REMARK    7  A    between atoms: C_11  and  N_12
REMARK    8  A    between atoms: N_12  and  C_13
REMARK                            x       y       z     vdW  Elec       q    Type
REMARK                         _______ _______ _______ _____ _____    ______ ____
ROOT
ATOM      1  C   UNL     1      46.475   4.459  13.881  0.00  0.00    +0.000 A 
ATOM      2  C   UNL     1      45.881   3.435  13.134  0.00  0.00    +0.000 A 
ATOM      3  C   UNL     1      45.272   3.710  11.908  0.00  0.00    +0.000 A 
ATOM      4  C   UNL     1      45.256   5.015  11.395  0.00  0.00    +0.000 A 
ATOM      5  C   UNL     1      45.864   6.037  12.142  0.00  0.00    +0.000 A 
ATOM      6  C   UNL     1      46.475   5.761  13.366  0.00  0.00    +0.000 A 
ENDROOT
BRANCH   1   7
ATOM      7  C   UNL     1      47.150   4.150  15.189  0.00  0.00    +0.000 C 
BRANCH   7  10
ATOM      8  O   UNL     1      48.753   4.288  17.498  0.00  0.00    +0.000 OA
ATOM      9  C   UNL     1      48.498   5.324  16.887  0.00  0.00    +0.000 C 
ATOM     10  N   UNL     1      47.674   5.348  15.794  0.00  0.00    +0.000 N 
ATOM     11  H   UNL     1      47.658   6.178  15.210  0.00  0.00    +0.000 HD
BRANCH   9  12
ATOM     12  C   UNL     1      49.015   6.623  17.336  0.00  0.00    +0.000 A 
ATOM     13  C   UNL     1      48.891   6.991  18.669  0.00  0.00    +0.000 A 
ATOM     14  S   UNL     1      49.508   8.542  19.012  0.00  0.00    +0.000 S 
ATOM     15  C   UNL     1      50.012   8.759  17.402  0.00  0.00    +0.000 A 
ATOM     16  N   UNL     1      50.654   9.894  17.018  0.00  0.00    +0.000 NA
ATOM     17  C   UNL     1      51.025   9.905  15.783  0.00  0.00    +0.000 A 
ATOM     18  N   UNL     1      50.792   8.890  14.889  0.00  0.00    +0.000 N 
ATOM     19  C   UNL     1      50.074   7.765  15.212  0.00  0.00    +0.000 A 
ATOM     20  O   UNL     1      49.774   6.940  14.358  0.00  0.00    +0.000 OA
ATOM     21  C   UNL     1      49.685   7.676  16.606  0.00  0.00    +0.000 A 
ATOM     22  H   UNL     1      51.078   8.970  13.925  0.00  0.00    +0.000 HD
ENDBRANCH   9  12
ENDBRANCH   7  10
ENDBRANCH   1   7
BRANCH   4  23
ATOM     23  C   UNL     1      44.549   5.305  10.084  0.00  0.00    +0.000 C 
BRANCH  23  24
ATOM     24  O   UNL     1      43.170   5.571  10.350  0.00  0.00    +0.000 OA
ATOM     25  H   UNL     1      42.683   4.752  10.154  0.00  0.00    +0.000 HD
ENDBRANCH  23  24
BRANCH  23  26
ATOM     26  C   UNL     1      44.732   4.124   9.091  0.00  0.00    +0.000 C 
BRANCH  26  27
ATOM     27  N   UNL     1      45.649   4.423   7.980  0.00  0.00    +0.000 NA
ATOM     28  H   UNL     1      46.487   4.885   8.334  0.00  0.00    +0.000 HD
BRANCH  27  29
ATOM     29  C   UNL     1      46.076   3.229   7.293  0.00  0.00    +0.000 C 
ATOM     30  C   UNL     1      46.176   1.955   8.121  0.00  0.00    +0.000 C 
ATOM     31  C   UNL     1      47.112   1.103   7.283  0.00  0.00    +0.000 C 
ATOM     32  C   UNL     1      48.011   2.121   6.590  0.00  0.00    +0.000 C 
ATOM     33  N   UNL     1      47.462   3.439   6.927  0.00  0.00    +0.000 NA
ATOM     34  H   UNL     1      47.516   4.075   6.135  0.00  0.00    +0.000 HD
ENDBRANCH  27  29
ENDBRANCH  26  27
ENDBRANCH  23  26
ENDBRANCH   4  23
TORSDOF 8
ENDMDL
MODEL 7
REMARK VINA RESULT:    -7.352      1.703      2.254
REMARK INTER + INTRA:         -11.609
REMARK INTER:                 -10.754
REMARK INTRA:                  -0.856
REMARK UNBOUND:                -1.034
REMARK  Name = 
REMARK  8 active torsions:
REMARK  status: ('A' for Active; 'I' for Inactive)
REMARK    1  A    between atoms: C_2  and  C_20
REMARK    2  A    between atoms: N_3  and  C_4
REMARK    3  A    between atoms: C_4  and  C_5
REMARK    4  A    between atoms: C_8  and  C_9
REMARK    5  A    between atoms: C_9  and  O_10
REMARK    6  A    between atoms: C_9  and  C_11
REMARK    7  A    between atoms: C_11  and  N_12
REMARK    8  A    between atoms: N_12  and  C_13
REMARK                            x       y       z     vdW  Elec       q    Type
REMARK                         _______ _______ _______ _____ _____    ______ ____
ROOT
ATOM      1  C   UNL     1      46.726   6.281  12.865  0.00  0.00    +0.000 A 
ATOM      2  C   UNL     1      46.160   5.134  13.433  0.00  0.00    +0.000 A 
ATOM      3  C   UNL     1      45.241   4.365  12.718  0.00  0.00    +0.000 A 
ATOM      4  C   UNL     1      44.876   4.720  11.411  0.00  0.00    +0.000 A 
ATOM      5  C   UNL     1      45.455   5.864  10.841  0.00  0.00    +0.000 A 
ATOM      6  C   UNL     1      46.378   6.631  11.555  0.00  0.00    +0.000 A 
ENDROOT
BRANCH   1   7
ATOM      7  C   UNL     1      47.736   7.090  13.634  0.00  0.00    +0.000 C 
BRANCH   7  10
ATOM      8  O   UNL     1      48.839   8.107  16.014  0.00  0.00    +0.000 OA
ATOM      9  C   UNL     1      48.766   6.889  15.865  0.00  0.00    +0.000 C 
ATOM     10  N   UNL     1      48.301   6.318  14.710  0.00  0.00    +0.000 N 
ATOM     11  H   UNL     1      48.071   5.329  14.711  0.00  0.00    +0.000 HD
BRANCH   9  12
ATOM     12  C   UNL     1      49.237   5.962  16.901  0.00  0.00    +0.000 A 
ATOM     13  C   UNL     1      48.316   5.282  17.688  0.00  0.00    +0.000 A 
ATOM     14  S   UNL     1      49.031   4.278  18.865  0.00  0.00    +0.000 S 
ATOM     15  C   UNL     1      50.597   4.675  18.335  0.00  0.00    +0.000 A 
ATOM     16  N   UNL     1      51.693   4.121  18.917  0.00  0.00    +0.000 NA
ATOM     17  C   UNL     1      52.814   4.470  18.383  0.00  0.00    +0.000 A 
ATOM     18  N   UNL     1      52.941   5.342  17.331  0.00  0.00    +0.000 N 
ATOM     19  C   UNL     1      51.867   5.989  16.769  0.00  0.00    +0.000 A 
ATOM     20  O   UNL     1      52.027   6.856  15.919  0.00  0.00    +0.000 OA
ATOM     21  C   UNL     1      50.577   5.586  17.293  0.00  0.00    +0.000 A 
ATOM     22  H   UNL     1      53.848   5.602  16.977  0.00  0.00    +0.000 HD
ENDBRANCH   9  12
ENDBRANCH   7  10
ENDBRANCH   1   7
BRANCH   4  23
ATOM     23  C   UNL     1      43.840   3.901  10.665  0.00  0.00    +0.000 C 
BRANCH  23  24
ATOM     24  O   UNL     1      42.615   3.920  11.402  0.00  0.00    +0.000 OA
ATOM     25  H   UNL     1      42.706   4.611  12.080  0.00  0.00    +0.000 HD
ENDBRANCH  23  24
BRANCH  23  26
ATOM     26  C   UNL     1      44.354   2.453  10.429  0.00  0.00    +0.000 C 
BRANCH  26  27
ATOM     27  N   UNL     1      44.491   2.099   9.008  0.00  0.00    +0.000 NA
ATOM     28  H   UNL     1      43.868   2.678   8.443  0.00  0.00    +0.000 HD
BRANCH  27  29
ATOM     29  C   UNL     1      45.832   2.315   8.523  0.00  0.00    +0.000 C 
ATOM     30  C   UNL     1      45.983   3.160   7.265  0.00  0.00    +0.000 C 
ATOM     31  C   UNL     1      47.355   2.745   6.765  0.00  0.00    +0.000 C 
ATOM     32  C   UNL     1      47.489   1.298   7.225  0.00  0.00    +0.000 C 
ATOM     33  N   UNL     1      46.314   1.030   8.060  0.00  0.00    +0.000 NA
ATOM     34  H   UNL     1      46.553   0.445   8.858  0.00  0.00    +0.000 HD
ENDBRANCH  27  29
ENDBRANCH  26  27
ENDBRANCH  23  26
ENDBRANCH   4  23
TORSDOF 8
ENDMDL
MODEL 8
REMARK VINA RESULT:    -6.795      3.085      4.304
REMARK INTER + INTRA:         -10.809
REMARK INTER:                  -9.648
REMARK INTRA:                  -1.161
REMARK UNBOUND:                -1.034
REMARK  Name = 
REMARK  8 active torsions:
REMARK  status: ('A' for Active; 'I' for Inactive)
REMARK    1  A    between atoms: C_2  and  C_20
REMARK    2  A    between atoms: N_3  and  C_4
REMARK    3  A    between atoms: C_4  and  C_5
REMARK    4  A    between atoms: C_8  and  C_9
REMARK    5  A    between atoms: C_9  and  O_10
REMARK    6  A    between atoms: C_9  and  C_11
REMARK    7  A    between atoms: C_11  and  N_12
REMARK    8  A    between atoms: N_12  and  C_13
REMARK                            x       y       z     vdW  Elec       q    Type
REMARK                         _______ _______ _______ _____ _____    ______ ____
ROOT
ATOM      1  C   UNL     1      48.348   5.894  16.235  0.00  0.00    +0.000 A 
ATOM      2  C   UNL     1      47.576   4.735  16.091  0.00  0.00    +0.000 A 
ATOM      3  C   UNL     1      46.966   4.433  14.872  0.00  0.00    +0.000 A 
ATOM      4  C   UNL     1      47.125   5.278  13.764  0.00  0.00    +0.000 A 
ATOM      5  C   UNL     1      47.911   6.432  13.909  0.00  0.00    +0.000 A 
ATOM      6  C   UNL     1      48.524   6.732  15.127  0.00  0.00    +0.000 A 
ENDROOT
BRANCH   1   7
ATOM      7  C   UNL     1      49.023   6.198  17.544  0.00  0.00    +0.000 C 
BRANCH   7  10
ATOM      8  O   UNL     1      51.679   6.285  16.619  0.00  0.00    +0.000 OA
ATOM      9  C   UNL     1      51.344   5.383  17.384  0.00  0.00    +0.000 C 
ATOM     10  N   UNL     1      50.056   5.236  17.827  0.00  0.00    +0.000 N 
ATOM     11  H   UNL     1      49.874   4.611  18.605  0.00  0.00    +0.000 HD
BRANCH   9  12
ATOM     12  C   UNL     1      52.300   4.360  17.824  0.00  0.00    +0.000 A 
ATOM     13  C   UNL     1      53.521   4.744  18.363  0.00  0.00    +0.000 A 
ATOM     14  S   UNL     1      54.526   3.434  18.785  0.00  0.00    +0.000 S 
ATOM     15  C   UNL     1      53.347   2.303  18.312  0.00  0.00    +0.000 A 
ATOM     16  N   UNL     1      53.566   0.968  18.443  0.00  0.00    +0.000 NA
ATOM     17  C   UNL     1      52.570   0.227  18.093  0.00  0.00    +0.000 A 
ATOM     18  N   UNL     1      51.378   0.701  17.603  0.00  0.00    +0.000 N 
ATOM     19  C   UNL     1      51.146   2.035  17.375  0.00  0.00    +0.000 A 
ATOM     20  O   UNL     1      50.123   2.412  16.818  0.00  0.00    +0.000 OA
ATOM     21  C   UNL     1      52.213   2.917  17.808  0.00  0.00    +0.000 A 
ATOM     22  H   UNL     1      50.647   0.070  17.315  0.00  0.00    +0.000 HD
ENDBRANCH   9  12
ENDBRANCH   7  10
ENDBRANCH   1   7
BRANCH   4  23
ATOM     23  C   UNL     1      46.418   4.960  12.461  0.00  0.00    +0.000 C 
BRANCH  23  24
ATOM     24  O   UNL     1      46.414   6.130  11.639  0.00  0.00    +0.000 OA
ATOM     25  H   UNL     1      46.213   6.882  12.221  0.00  0.00    +0.000 HD
ENDBRANCH  23  24
BRANCH  23  26
ATOM     26  C   UNL     1      44.980   4.437  12.733  0.00  0.00    +0.000 C 
BRANCH  26  27
ATOM     27  N   UNL     1      43.964   5.008  11.834  0.00  0.00    +0.000 NA
ATOM     28  H   UNL     1      44.250   5.940  11.532  0.00  0.00    +0.000 HD
BRANCH  27  29
ATOM     29  C   UNL     1      43.782   4.210  10.646  0.00  0.00    +0.000 C 
ATOM     30  C   UNL     1      44.466   2.850  10.617  0.00  0.00    +0.000 C 
ATOM     31  C   UNL     1      44.523   2.554   9.129  0.00  0.00    +0.000 C 
ATOM     32  C   UNL     1      44.632   3.932   8.486  0.00  0.00    +0.000 C 
ATOM     33  N   UNL     1      44.476   4.899   9.577  0.00  0.00    +0.000 NA
ATOM     34  H   UNL     1      43.933   5.707   9.280  0.00  0.00    +0.000 HD
ENDBRANCH  27  29
ENDBRANCH  26  27
ENDBRANCH  23  26
ENDBRANCH   4  23
TORSDOF 8
ENDMDL
MODEL 9
REMARK VINA RESULT:    -6.735      3.536      8.060
REMARK INTER + INTRA:         -10.722
REMARK INTER:                  -9.069
REMARK INTRA:                  -1.653
REMARK UNBOUND:                -1.034
REMARK  Name = 
REMARK  8 active torsions:
REMARK  status: ('A' for Active; 'I' for Inactive)
REMARK    1  A    between atoms: C_2  and  C_20
REMARK    2  A    between atoms: N_3  and  C_4
REMARK    3  A    between atoms: C_4  and  C_5
REMARK    4  A    between atoms: C_8  and  C_9
REMARK    5  A    between atoms: C_9  and  O_10
REMARK    6  A    between atoms: C_9  and  C_11
REMARK    7  A    between atoms: C_11  and  N_12
REMARK    8  A    between atoms: N_12  and  C_13
REMARK                            x       y       z     vdW  Elec       q    Type
REMARK                         _______ _______ _______ _____ _____    ______ ____
ROOT
ATOM      1  C   UNL     1      48.577   8.252  15.542  0.00  0.00    +0.000 A 
ATOM      2  C   UNL     1      49.286   7.046  15.595  0.00  0.00    +0.000 A 
ATOM      3  C   UNL     1      49.634   6.478  16.823  0.00  0.00    +0.000 A 
ATOM      4  C   UNL     1      49.268   7.099  18.026  0.00  0.00    +0.000 A 
ATOM      5  C   UNL     1      48.546   8.301  17.968  0.00  0.00    +0.000 A 
ATOM      6  C   UNL     1      48.195   8.867  16.741  0.00  0.00    +0.000 A 
ENDROOT
BRANCH   1   7
ATOM      7  C   UNL     1      48.185   8.844  14.216  0.00  0.00    +0.000 C 
BRANCH   7  10
ATOM      8  O   UNL     1      48.128   6.952  12.134  0.00  0.00    +0.000 OA
ATOM      9  C   UNL     1      47.079   7.235  12.709  0.00  0.00    +0.000 C 
ATOM     10  N   UNL     1      47.014   8.191  13.688  0.00  0.00    +0.000 N 
ATOM     11  H   UNL     1      46.182   8.245  14.266  0.00  0.00    +0.000 HD
BRANCH   9  12
ATOM     12  C   UNL     1      45.807   6.605  12.335  0.00  0.00    +0.000 A 
ATOM     13  C   UNL     1      44.798   7.373  11.770  0.00  0.00    +0.000 A 
ATOM     14  S   UNL     1      43.377   6.494  11.431  0.00  0.00    +0.000 S 
ATOM     15  C   UNL     1      44.076   5.044  11.978  0.00  0.00    +0.000 A 
ATOM     16  N   UNL     1      43.384   3.874  11.933  0.00  0.00    +0.000 NA
ATOM     17  C   UNL     1      44.051   2.845  12.331  0.00  0.00    +0.000 A 
ATOM     18  N   UNL     1      45.344   2.882  12.791  0.00  0.00    +0.000 N 
ATOM     19  C   UNL     1      46.050   4.051  12.933  0.00  0.00    +0.000 A 
ATOM     20  O   UNL     1      47.152   4.064  13.467  0.00  0.00    +0.000 OA
ATOM     21  C   UNL     1      45.366   5.233  12.444  0.00  0.00    +0.000 A 
ATOM     22  H   UNL     1      45.803   2.046  13.121  0.00  0.00    +0.000 HD
ENDBRANCH   9  12
ENDBRANCH   7  10
ENDBRANCH   1   7
BRANCH   4  23
ATOM     23  C   UNL     1      49.694   6.493  19.350  0.00  0.00    +0.000 C 
BRANCH  23  24
ATOM     24  O   UNL     1      50.992   5.913  19.198  0.00  0.00    +0.000 OA
ATOM     25  H   UNL     1      51.350   6.242  18.356  0.00  0.00    +0.000 HD
ENDBRANCH  23  24
BRANCH  23  26
ATOM     26  C   UNL     1      48.647   5.453  19.838  0.00  0.00    +0.000 C 
BRANCH  26  27
ATOM     27  N   UNL     1      49.153   4.072  19.859  0.00  0.00    +0.000 NA
ATOM     28  H   UNL     1      48.916   3.628  20.746  0.00  0.00    +0.000 HD
BRANCH  27  29
ATOM     29  C   UNL     1      48.575   3.267  18.810  0.00  0.00    +0.000 C 
ATOM     30  C   UNL     1      49.418   3.054  17.561  0.00  0.00    +0.000 C 
ATOM     31  C   UNL     1      48.371   2.671  16.531  0.00  0.00    +0.000 C 
ATOM     32  C   UNL     1      47.122   3.417  16.986  0.00  0.00    +0.000 C 
ATOM     33  N   UNL     1      47.463   4.026  18.275  0.00  0.00    +0.000 NA
ATOM     34  H   UNL     1      46.678   3.987  18.921  0.00  0.00    +0.000 HD
ENDBRANCH  27  29
ENDBRANCH  26  27
ENDBRANCH  23  26
ENDBRANCH   4  23
TORSDOF 8
ENDMDL
