MODEL 1
REMARK VINA RESULT:    -8.528      0.000      0.000
REMARK INTER + INTRA:         -11.923
REMARK INTER:                 -11.020
REMARK INTRA:                  -0.903
REMARK UNBOUND:                -0.903
REMARK  Name = 
REMARK  5 active torsions:
REMARK  status: ('A' for Active; 'I' for Inactive)
REMARK    1  A    between atoms: C_2  and  C_4
REMARK    2  A    between atoms: C_7  and  O_8
REMARK    3  A    between atoms: O_8  and  C_9
REMARK    4  A    between atoms: C_9  and  C_10
REMARK    5  A    between atoms: C_14  and  N_15
REMARK                            x       y       z     vdW  Elec       q    Type
REMARK                         _______ _______ _______ _____ _____    ______ ____
ROOT
ATOM      1  C   UNL     1      43.668   4.139  11.317  0.00  0.00    +0.000 C 
ENDROOT
BRANCH   1   2
ATOM      2  C   UNL     1      44.820   4.575  12.199  0.00  0.00    +0.000 A 
ATOM      3  C   UNL     1      45.639   3.655  12.855  0.00  0.00    +0.000 A 
ATOM      4  C   UNL     1      46.739   4.103  13.577  0.00  0.00    +0.000 A 
ATOM      5  C   UNL     1      47.044   5.468  13.628  0.00  0.00    +0.000 A 
ATOM      6  C   UNL     1      46.262   6.431  12.971  0.00  0.00    +0.000 A 
ATOM      7  C   UNL     1      45.144   5.947  12.271  0.00  0.00    +0.000 A 
BRANCH   6   8
ATOM      8  N   UNL     1      46.599   7.772  12.981  0.00  0.00    +0.000 N 
ATOM      9  C   UNL     1      45.591   8.837  13.009  0.00  0.00    +0.000 C 
ATOM     10  C   UNL     1      45.874   9.840  11.885  0.00  0.00    +0.000 C 
ATOM     11  C   UNL     1      47.313  10.349  11.918  0.00  0.00    +0.000 C 
ATOM     12  C   UNL     1      48.301   9.188  11.916  0.00  0.00    +0.000 C 
ATOM     13  F   UNL     1      49.559   9.687  12.065  0.00  0.00    +0.000 F 
ATOM     14  C   UNL     1      47.996   8.224  13.063  0.00  0.00    +0.000 C 
ENDBRANCH   6   8
ENDBRANCH   1   2
BRANCH   1  15
ATOM     15  O   UNL     1      43.769   4.677   9.994  0.00  0.00    +0.000 OA
BRANCH  15  19
ATOM     16  C   UNL     1      46.448   2.509   7.730  0.00  0.00    +0.000 A 
ATOM     17  C   UNL     1      45.604   1.847   8.624  0.00  0.00    +0.000 A 
ATOM     18  C   UNL     1      44.697   2.592   9.383  0.00  0.00    +0.000 A 
ATOM     19  C   UNL     1      44.667   3.970   9.219  0.00  0.00    +0.000 A 
ATOM     20  N   UNL     1      45.470   4.632   8.359  0.00  0.00    +0.000 NA
ATOM     21  C   UNL     1      46.349   3.891   7.642  0.00  0.00    +0.000 A 
BRANCH  16  23
ATOM     22  N   UNL     1      48.528   2.572   6.467  0.00  0.00    +0.000 N 
ATOM     23  C   UNL     1      47.464   1.830   6.899  0.00  0.00    +0.000 C 
ATOM     24  O   UNL     1      47.380   0.638   6.636  0.00  0.00    +0.000 OA
ATOM     25  H   UNL     1      49.261   2.060   5.992  0.00  0.00    +0.000 HD
ATOM     26  H   UNL     1      48.770   3.469   6.865  0.00  0.00    +0.000 HD
ENDBRANCH  16  23
ENDBRANCH  15  19
ENDBRANCH   1  15
TORSDOF 5
ENDMDL
MODEL 2
REMARK VINA RESULT:    -8.360      1.836      3.197
REMARK INTER + INTRA:         -11.706
REMARK INTER:                 -10.818
REMARK INTRA:                  -0.889
REMARK UNBOUND:                -0.903
REMARK  Name = 
REMARK  5 active torsions:
REMARK  status: ('A' for Active; 'I' for Inactive)
REMARK    1  A    between atoms: C_2  and  C_4
REMARK    2  A    between atoms: C_7  and  O_8
REMARK    3  A    between atoms: O_8  and  C_9
REMARK    4  A    between atoms: C_9  and  C_10
REMARK    5  A    between atoms: C_14  and  N_15
REMARK                            x       y       z     vdW  Elec       q    Type
REMARK                         _______ _______ _______ _____ _____    ______ ____
ROOT
ATOM      1  C   UNL     1      43.690   4.611  11.074  0.00  0.00    +0.000 C 
ENDROOT
BRANCH   1   2
ATOM      2  C   UNL     1      44.683   5.579  11.685  0.00  0.00    +0.000 A 
ATOM      3  C   UNL     1      44.626   6.951  11.439  0.00  0.00    +0.000 A 
ATOM      4  C   UNL     1      45.503   7.807  12.096  0.00  0.00    +0.000 A 
ATOM      5  C   UNL     1      46.424   7.302  13.021  0.00  0.00    +0.000 A 
ATOM      6  C   UNL     1      46.508   5.933  13.317  0.00  0.00    +0.000 A 
ATOM      7  C   UNL     1      45.625   5.093  12.617  0.00  0.00    +0.000 A 
BRANCH   6   8
ATOM      8  N   UNL     1      47.383   5.447  14.272  0.00  0.00    +0.000 N 
ATOM      9  C   UNL     1      47.227   4.122  14.880  0.00  0.00    +0.000 C 
ATOM     10  C   UNL     1      47.268   4.252  16.407  0.00  0.00    +0.000 C 
ATOM     11  C   UNL     1      48.502   5.013  16.887  0.00  0.00    +0.000 C 
ATOM     12  C   UNL     1      48.613   6.364  16.190  0.00  0.00    +0.000 C 
ATOM     13  F   UNL     1      49.785   6.949  16.560  0.00  0.00    +0.000 F 
ATOM     14  C   UNL     1      48.589   6.187  14.672  0.00  0.00    +0.000 C 
ENDBRANCH   6   8
ENDBRANCH   1   2
BRANCH   1  15
ATOM     15  O   UNL     1      43.614   4.746   9.650  0.00  0.00    +0.000 OA
BRANCH  15  19
ATOM     16  C   UNL     1      46.327   2.260   7.789  0.00  0.00    +0.000 A 
ATOM     17  C   UNL     1      45.454   1.738   8.747  0.00  0.00    +0.000 A 
ATOM     18  C   UNL     1      44.536   2.589   9.368  0.00  0.00    +0.000 A 
ATOM     19  C   UNL     1      44.524   3.930   9.008  0.00  0.00    +0.000 A 
ATOM     20  N   UNL     1      45.354   4.457   8.083  0.00  0.00    +0.000 NA
ATOM     21  C   UNL     1      46.244   3.616   7.503  0.00  0.00    +0.000 A 
BRANCH  16  23
ATOM     22  N   UNL     1      48.433   2.130   6.577  0.00  0.00    +0.000 N 
ATOM     23  C   UNL     1      47.357   1.463   7.091  0.00  0.00    +0.000 C 
ATOM     24  O   UNL     1      47.271   0.246   7.005  0.00  0.00    +0.000 OA
ATOM     25  H   UNL     1      49.174   1.552   6.199  0.00  0.00    +0.000 HD
ATOM     26  H   UNL     1      48.672   3.076   6.843  0.00  0.00    +0.000 HD
ENDBRANCH  16  23
ENDBRANCH  15  19
ENDBRANCH   1  15
TORSDOF 5
ENDMDL
MODEL 3
REMARK VINA RESULT:    -7.926      1.546      2.199
REMARK INTER + INTRA:         -11.145
REMARK INTER:                 -10.382
REMARK INTRA:                  -0.764
REMARK UNBOUND:                -0.903
REMARK  Name = 
REMARK  5 active torsions:
REMARK  status: ('A' for Active; 'I' for Inactive)
REMARK    1  A    between atoms: C_2  and  C_4
REMARK    2  A    between atoms: C_7  and  O_8
REMARK    3  A    between atoms: O_8  and  C_9
REMARK    4  A    between atoms: C_9  and  C_10
REMARK    5  A    between atoms: C_14  and  N_15
REMARK                            x       y       z     vdW  Elec       q    Type
REMARK                         _______ _______ _______ _____ _____    ______ ____
ROOT
ATOM      1  C   UNL     1      44.358   3.169  11.379  0.00  0.00    +0.000 C 
ENDROOT
BRANCH   1   2
ATOM      2  C   UNL     1      44.273   4.682  11.382  0.00  0.00    +0.000 A 
ATOM      3  C   UNL     1      43.071   5.355  11.164  0.00  0.00    +0.000 A 
ATOM      4  C   UNL     1      43.026   6.741  11.268  0.00  0.00    +0.000 A 
ATOM      5  C   UNL     1      44.175   7.461  11.616  0.00  0.00    +0.000 A 
ATOM      6  C   UNL     1      45.404   6.829  11.863  0.00  0.00    +0.000 A 
ATOM      7  C   UNL     1      45.419   5.431  11.724  0.00  0.00    +0.000 A 
BRANCH   6   8
ATOM      8  N   UNL     1      46.522   7.541  12.259  0.00  0.00    +0.000 N 
ATOM      9  C   UNL     1      46.441   8.916  12.762  0.00  0.00    +0.000 C 
ATOM     10  C   UNL     1      47.429   9.801  11.994  0.00  0.00    +0.000 C 
ATOM     11  C   UNL     1      48.842   9.223  11.996  0.00  0.00    +0.000 C 
ATOM     12  C   UNL     1      48.841   7.785  11.488  0.00  0.00    +0.000 C 
ATOM     13  F   UNL     1      50.097   7.277  11.620  0.00  0.00    +0.000 F 
ATOM     14  C   UNL     1      47.860   6.933  12.294  0.00  0.00    +0.000 C 
ENDBRANCH   6   8
ENDBRANCH   1   2
BRANCH   1  15
ATOM     15  O   UNL     1      43.813   2.602  10.183  0.00  0.00    +0.000 OA
BRANCH  15  19
ATOM     16  C   UNL     1      46.573   2.477   7.121  0.00  0.00    +0.000 A 
ATOM     17  C   UNL     1      45.820   3.635   7.327  0.00  0.00    +0.000 A 
ATOM     18  C   UNL     1      44.890   3.667   8.370  0.00  0.00    +0.000 A 
ATOM     19  C   UNL     1      44.750   2.541   9.170  0.00  0.00    +0.000 A 
ATOM     20  N   UNL     1      45.468   1.412   8.994  0.00  0.00    +0.000 NA
ATOM     21  C   UNL     1      46.355   1.400   7.969  0.00  0.00    +0.000 A 
BRANCH  16  23
ATOM     22  N   UNL     1      47.479   3.175   4.973  0.00  0.00    +0.000 N 
ATOM     23  C   UNL     1      47.561   2.318   6.035  0.00  0.00    +0.000 C 
ATOM     24  O   UNL     1      48.447   1.475   6.096  0.00  0.00    +0.000 OA
ATOM     25  H   UNL     1      48.230   3.115   4.296  0.00  0.00    +0.000 HD
ATOM     26  H   UNL     1      46.943   4.032   4.999  0.00  0.00    +0.000 HD
ENDBRANCH  16  23
ENDBRANCH  15  19
ENDBRANCH   1  15
TORSDOF 5
ENDMDL
MODEL 4
REMARK VINA RESULT:    -7.903      1.519      2.625
REMARK INTER + INTRA:         -11.115
REMARK INTER:                 -10.275
REMARK INTRA:                  -0.840
REMARK UNBOUND:                -0.903
REMARK  Name = 
REMARK  5 active torsions:
REMARK  status: ('A' for Active; 'I' for Inactive)
REMARK    1  A    between atoms: C_2  and  C_4
REMARK    2  A    between atoms: C_7  and  O_8
REMARK    3  A    between atoms: O_8  and  C_9
REMARK    4  A    between atoms: C_9  and  C_10
REMARK    5  A    between atoms: C_14  and  N_15
REMARK                            x       y       z     vdW  Elec       q    Type
REMARK                         _______ _______ _______ _____ _____    ______ ____
ROOT
ATOM      1  C   UNL     1      43.919   4.157  11.569  0.00  0.00    +0.000 C 
ENDROOT
BRANCH   1   2
ATOM      2  C   UNL     1      44.706   5.439  11.750  0.00  0.00    +0.000 A 
ATOM      3  C   UNL     1      44.179   6.685  11.411  0.00  0.00    +0.000 A 
ATOM      4  C   UNL     1      44.905   7.840  11.682  0.00  0.00    +0.000 A 
ATOM      5  C   UNL     1      46.150   7.759  12.316  0.00  0.00    +0.000 A 
ATOM      6  C   UNL     1      46.716   6.531  12.693  0.00  0.00    +0.000 A 
ATOM      7  C   UNL     1      45.967   5.384  12.382  0.00  0.00    +0.000 A 
BRANCH   6   8
ATOM      8  N   UNL     1      47.921   6.462  13.368  0.00  0.00    +0.000 N 
ATOM      9  C   UNL     1      48.062   5.781  14.659  0.00  0.00    +0.000 C 
ATOM     10  C   UNL     1      48.742   6.722  15.661  0.00  0.00    +0.000 C 
ATOM     11  C   UNL     1      50.049   7.295  15.117  0.00  0.00    +0.000 C 
ATOM     12  C   UNL     1      49.829   7.959  13.763  0.00  0.00    +0.000 C 
ATOM     13  F   UNL     1      51.036   8.347  13.267  0.00  0.00    +0.000 F 
ATOM     14  C   UNL     1      49.169   6.982  12.788  0.00  0.00    +0.000 C 
ENDBRANCH   6   8
ENDBRANCH   1   2
BRANCH   1  15
ATOM     15  O   UNL     1      43.459   3.994  10.223  0.00  0.00    +0.000 OA
BRANCH  15  19
ATOM     16  C   UNL     1      46.381   2.484   7.734  0.00  0.00    +0.000 A 
ATOM     17  C   UNL     1      46.062   3.843   7.682  0.00  0.00    +0.000 A 
ATOM     18  C   UNL     1      45.073   4.344   8.533  0.00  0.00    +0.000 A 
ATOM     19  C   UNL     1      44.441   3.468   9.405  0.00  0.00    +0.000 A 
ATOM     20  N   UNL     1      44.734   2.152   9.477  0.00  0.00    +0.000 NA
ATOM     21  C   UNL     1      45.687   1.686   8.634  0.00  0.00    +0.000 A 
BRANCH  16  23
ATOM     22  N   UNL     1      48.456   2.589   6.468  0.00  0.00    +0.000 N 
ATOM     23  C   UNL     1      47.385   1.838   6.864  0.00  0.00    +0.000 C 
ATOM     24  O   UNL     1      47.285   0.663   6.537  0.00  0.00    +0.000 OA
ATOM     25  H   UNL     1      49.182   2.094   5.963  0.00  0.00    +0.000 HD
ATOM     26  H   UNL     1      48.711   3.460   6.912  0.00  0.00    +0.000 HD
ENDBRANCH  16  23
ENDBRANCH  15  19
ENDBRANCH   1  15
TORSDOF 5
ENDMDL
MODEL 5
REMARK VINA RESULT:    -7.308      1.775      2.757
REMARK INTER + INTRA:         -10.347
REMARK INTER:                  -9.552
REMARK INTRA:                  -0.795
REMARK UNBOUND:                -0.903
REMARK  Name = 
REMARK  5 active torsions:
REMARK  status: ('A' for Active; 'I' for Inactive)
REMARK    1  A    between atoms: C_2  and  C_4
REMARK    2  A    between atoms: C_7  and  O_8
REMARK    3  A    between atoms: O_8  and  C_9
REMARK    4  A    between atoms: C_9  and  C_10
REMARK    5  A    between atoms: C_14  and  N_15
REMARK                            x       y       z     vdW  Elec       q    Type
REMARK                         _______ _______ _______ _____ _____    ______ ____
ROOT
ATOM      1  C   UNL     1      45.327   5.168  11.448  0.00  0.00    +0.000 C 
ENDROOT
BRANCH   1   2
ATOM      2  C   UNL     1      45.779   6.588  11.721  0.00  0.00    +0.000 A 
ATOM      3  C   UNL     1      44.892   7.578  12.144  0.00  0.00    +0.000 A 
ATOM      4  C   UNL     1      45.373   8.842  12.470  0.00  0.00    +0.000 A 
ATOM      5  C   UNL     1      46.743   9.116  12.401  0.00  0.00    +0.000 A 
ATOM      6  C   UNL     1      47.678   8.149  11.999  0.00  0.00    +0.000 A 
ATOM      7  C   UNL     1      47.156   6.891  11.652  0.00  0.00    +0.000 A 
BRANCH   6   8
ATOM      8  N   UNL     1      49.036   8.411  11.984  0.00  0.00    +0.000 N 
ATOM      9  C   UNL     1      49.582   9.747  12.244  0.00  0.00    +0.000 C 
ATOM     10  C   UNL     1      50.548  10.133  11.119  0.00  0.00    +0.000 C 
ATOM     11  C   UNL     1      51.613   9.064  10.883  0.00  0.00    +0.000 C 
ATOM     12  C   UNL     1      50.971   7.701  10.649  0.00  0.00    +0.000 C 
ATOM     13  F   UNL     1      51.957   6.766  10.563  0.00  0.00    +0.000 F 
ATOM     14  C   UNL     1      50.033   7.346  11.803  0.00  0.00    +0.000 C 
ENDBRANCH   6   8
ENDBRANCH   1   2
BRANCH   1  15
ATOM     15  O   UNL     1      44.610   5.060  10.212  0.00  0.00    +0.000 OA
BRANCH  15  19
ATOM     16  C   UNL     1      46.549   2.554   7.572  0.00  0.00    +0.000 A 
ATOM     17  C   UNL     1      45.748   2.011   8.580  0.00  0.00    +0.000 A 
ATOM     18  C   UNL     1      45.093   2.870   9.467  0.00  0.00    +0.000 A 
ATOM     19  C   UNL     1      45.261   4.239   9.311  0.00  0.00    +0.000 A 
ATOM     20  N   UNL     1      46.026   4.788   8.343  0.00  0.00    +0.000 NA
ATOM     21  C   UNL     1      46.661   3.936   7.503  0.00  0.00    +0.000 A 
BRANCH  16  23
ATOM     22  N   UNL     1      48.264   2.382   5.854  0.00  0.00    +0.000 N 
ATOM     23  C   UNL     1      47.311   1.745   6.599  0.00  0.00    +0.000 C 
ATOM     24  O   UNL     1      47.124   0.541   6.486  0.00  0.00    +0.000 OA
ATOM     25  H   UNL     1      48.843   1.787   5.274  0.00  0.00    +0.000 HD
ATOM     26  H   UNL     1      48.625   3.296   6.089  0.00  0.00    +0.000 HD
ENDBRANCH  16  23
ENDBRANCH  15  19
ENDBRANCH   1  15
TORSDOF 5
ENDMDL
MODEL 6
REMARK VINA RESULT:    -7.298      4.369      8.213
REMARK INTER + INTRA:         -10.333
REMARK INTER:                  -9.743
REMARK INTRA:                  -0.591
REMARK UNBOUND:                -0.903
REMARK  Name = 
REMARK  5 active torsions:
REMARK  status: ('A' for Active; 'I' for Inactive)
REMARK    1  A    between atoms: C_2  and  C_4
REMARK    2  A    between atoms: C_7  and  O_8
REMARK    3  A    between atoms: O_8  and  C_9
REMARK    4  A    between atoms: C_9  and  C_10
REMARK    5  A    between atoms: C_14  and  N_15
REMARK                            x       y       z     vdW  Elec       q    Type
REMARK                         _______ _______ _______ _____ _____    ______ ____
ROOT
ATOM      1  C   UNL     1      46.634   4.798  13.784  0.00  0.00    +0.000 C 
ENDROOT
BRANCH   1   2
ATOM      2  C   UNL     1      45.431   4.486  12.918  0.00  0.00    +0.000 A 
ATOM      3  C   UNL     1      44.134   4.830  13.300  0.00  0.00    +0.000 A 
ATOM      4  C   UNL     1      43.074   4.606  12.429  0.00  0.00    +0.000 A 
ATOM      5  C   UNL     1      43.306   4.061  11.160  0.00  0.00    +0.000 A 
ATOM      6  C   UNL     1      44.593   3.715  10.721  0.00  0.00    +0.000 A 
ATOM      7  C   UNL     1      45.637   3.932  11.636  0.00  0.00    +0.000 A 
BRANCH   6   8
ATOM      8  N   UNL     1      44.821   3.228   9.447  0.00  0.00    +0.000 N 
ATOM      9  C   UNL     1      44.699   1.804   9.116  0.00  0.00    +0.000 C 
ATOM     10  C   UNL     1      45.971   1.334   8.401  0.00  0.00    +0.000 C 
ATOM     11  C   UNL     1      46.319   2.220   7.207  0.00  0.00    +0.000 C 
ATOM     12  C   UNL     1      46.400   3.685   7.622  0.00  0.00    +0.000 C 
ATOM     13  F   UNL     1      46.594   4.442   6.507  0.00  0.00    +0.000 F 
ATOM     14  C   UNL     1      45.105   4.117   8.312  0.00  0.00    +0.000 C 
ENDBRANCH   6   8
ENDBRANCH   1   2
BRANCH   1  15
ATOM     15  O   UNL     1      47.149   3.628  14.430  0.00  0.00    +0.000 OA
BRANCH  15  19
ATOM     16  C   UNL     1      48.514   4.403  18.244  0.00  0.00    +0.000 A 
ATOM     17  C   UNL     1      48.028   3.132  17.928  0.00  0.00    +0.000 A 
ATOM     18  C   UNL     1      47.572   2.879  16.631  0.00  0.00    +0.000 A 
ATOM     19  C   UNL     1      47.620   3.907  15.699  0.00  0.00    +0.000 A 
ATOM     20  N   UNL     1      48.087   5.142  15.978  0.00  0.00    +0.000 NA
ATOM     21  C   UNL     1      48.513   5.367  17.245  0.00  0.00    +0.000 A 
BRANCH  16  23
ATOM     22  N   UNL     1      48.681   3.972  20.633  0.00  0.00    +0.000 N 
ATOM     23  C   UNL     1      48.993   4.793  19.586  0.00  0.00    +0.000 C 
ATOM     24  O   UNL     1      49.677   5.794  19.753  0.00  0.00    +0.000 OA
ATOM     25  H   UNL     1      49.111   4.203  21.521  0.00  0.00    +0.000 HD
ATOM     26  H   UNL     1      48.352   3.024  20.509  0.00  0.00    +0.000 HD
ENDBRANCH  16  23
ENDBRANCH  15  19
ENDBRANCH   1  15
TORSDOF 5
ENDMDL
MODEL 7
REMARK VINA RESULT:    -6.899      5.310      7.985
REMARK INTER + INTRA:          -9.818
REMARK INTER:                  -9.051
REMARK INTRA:                  -0.767
REMARK UNBOUND:                -0.903
REMARK  Name = 
REMARK  5 active torsions:
REMARK  status: ('A' for Active; 'I' for Inactive)
REMARK    1  A    between atoms: C_2  and  C_4
REMARK    2  A    between atoms: C_7  and  O_8
REMARK    3  A    between atoms: O_8  and  C_9
REMARK    4  A    between atoms: C_9  and  C_10
REMARK    5  A    between atoms: C_14  and  N_15
REMARK                            x       y       z     vdW  Elec       q    Type
REMARK                         _______ _______ _______ _____ _____    ______ ____
ROOT
ATOM      1  C   UNL     1      48.984   6.522  15.852  0.00  0.00    +0.000 C 
ENDROOT
BRANCH   1   2
ATOM      2  C   UNL     1      48.308   6.602  14.499  0.00  0.00    +0.000 A 
ATOM      3  C   UNL     1      48.865   7.311  13.434  0.00  0.00    +0.000 A 
ATOM      4  C   UNL     1      48.253   7.278  12.186  0.00  0.00    +0.000 A 
ATOM      5  C   UNL     1      47.095   6.517  11.987  0.00  0.00    +0.000 A 
ATOM      6  C   UNL     1      46.505   5.774  13.021  0.00  0.00    +0.000 A 
ATOM      7  C   UNL     1      47.135   5.849  14.274  0.00  0.00    +0.000 A 
BRANCH   6   8
ATOM      8  N   UNL     1      45.392   4.982  12.804  0.00  0.00    +0.000 N 
ATOM      9  C   UNL     1      45.491   3.551  12.500  0.00  0.00    +0.000 C 
ATOM     10  C   UNL     1      44.675   3.237  11.241  0.00  0.00    +0.000 C 
ATOM     11  C   UNL     1      43.240   3.750  11.343  0.00  0.00    +0.000 C 
ATOM     12  C   UNL     1      43.217   5.235  11.689  0.00  0.00    +0.000 C 
ATOM     13  F   UNL     1      41.925   5.615  11.886  0.00  0.00    +0.000 F 
ATOM     14  C   UNL     1      44.025   5.501  12.961  0.00  0.00    +0.000 C 
ENDBRANCH   6   8
ENDBRANCH   1   2
BRANCH   1  15
ATOM     15  O   UNL     1      48.416   5.499  16.677  0.00  0.00    +0.000 OA
BRANCH  15  19
ATOM     16  C   UNL     1      51.180   2.543  17.468  0.00  0.00    +0.000 A 
ATOM     17  C   UNL     1      51.533   3.883  17.640  0.00  0.00    +0.000 A 
ATOM     18  C   UNL     1      50.586   4.876  17.373  0.00  0.00    +0.000 A 
ATOM     19  C   UNL     1      49.323   4.492  16.945  0.00  0.00    +0.000 A 
ATOM     20  N   UNL     1      48.957   3.204  16.775  0.00  0.00    +0.000 NA
ATOM     21  C   UNL     1      49.894   2.259  17.029  0.00  0.00    +0.000 A 
BRANCH  16  23
ATOM     22  N   UNL     1      51.569   0.232  18.124  0.00  0.00    +0.000 N 
ATOM     23  C   UNL     1      52.105   1.412  17.690  0.00  0.00    +0.000 C 
ATOM     24  O   UNL     1      53.303   1.513  17.461  0.00  0.00    +0.000 OA
ATOM     25  H   UNL     1      52.206  -0.555  18.166  0.00  0.00    +0.000 HD
ATOM     26  H   UNL     1      50.580   0.028  18.079  0.00  0.00    +0.000 HD
ENDBRANCH  16  23
ENDBRANCH  15  19
ENDBRANCH   1  15
TORSDOF 5
ENDMDL
MODEL 8
REMARK VINA RESULT:    -6.699      3.127      7.150
REMARK INTER + INTRA:          -9.560
REMARK INTER:                  -8.723
REMARK INTRA:                  -0.837
REMARK UNBOUND:                -0.903
REMARK  Name = 
REMARK  5 active torsions:
REMARK  status: ('A' for Active; 'I' for Inactive)
REMARK    1  A    between atoms: C_2  and  C_4
REMARK    2  A    between atoms: C_7  and  O_8
REMARK    3  A    between atoms: O_8  and  C_9
REMARK    4  A    between atoms: C_9  and  C_10
REMARK    5  A    between atoms: C_14  and  N_15
REMARK                            x       y       z     vdW  Elec       q    Type
REMARK                         _______ _______ _______ _____ _____    ______ ____
ROOT
ATOM      1  C   UNL     1      44.531   6.698  11.973  0.00  0.00    +0.000 C 
ENDROOT
BRANCH   1   2
ATOM      2  C   UNL     1      44.357   5.215  11.717  0.00  0.00    +0.000 A 
ATOM      3  C   UNL     1      43.661   4.389  12.599  0.00  0.00    +0.000 A 
ATOM      4  C   UNL     1      43.449   3.053  12.274  0.00  0.00    +0.000 A 
ATOM      5  C   UNL     1      43.910   2.542  11.055  0.00  0.00    +0.000 A 
ATOM      6  C   UNL     1      44.599   3.336  10.126  0.00  0.00    +0.000 A 
ATOM      7  C   UNL     1      44.817   4.674  10.498  0.00  0.00    +0.000 A 
BRANCH   6   8
ATOM      8  N   UNL     1      45.004   2.838   8.901  0.00  0.00    +0.000 N 
ATOM      9  C   UNL     1      45.152   1.402   8.646  0.00  0.00    +0.000 C 
ATOM     10  C   UNL     1      46.536   1.128   8.047  0.00  0.00    +0.000 C 
ATOM     11  C   UNL     1      46.820   2.006   6.830  0.00  0.00    +0.000 C 
ATOM     12  C   UNL     1      46.618   3.479   7.163  0.00  0.00    +0.000 C 
ATOM     13  F   UNL     1      46.765   4.207   6.023  0.00  0.00    +0.000 F 
ATOM     14  C   UNL     1      45.220   3.711   7.738  0.00  0.00    +0.000 C 
ENDBRANCH   6   8
ENDBRANCH   1   2
BRANCH   1  15
ATOM     15  O   UNL     1      45.643   7.242  11.253  0.00  0.00    +0.000 OA
BRANCH  15  19
ATOM     16  C   UNL     1      48.837   8.009  13.746  0.00  0.00    +0.000 A 
ATOM     17  C   UNL     1      47.579   8.535  14.051  0.00  0.00    +0.000 A 
ATOM     18  C   UNL     1      46.503   8.265  13.201  0.00  0.00    +0.000 A 
ATOM     19  C   UNL     1      46.724   7.478  12.079  0.00  0.00    +0.000 A 
ATOM     20  N   UNL     1      47.929   6.955  11.765  0.00  0.00    +0.000 NA
ATOM     21  C   UNL     1      48.959   7.240  12.597  0.00  0.00    +0.000 A 
BRANCH  16  23
ATOM     22  N   UNL     1      51.228   7.727  14.100  0.00  0.00    +0.000 N 
ATOM     23  C   UNL     1      50.050   8.251  14.553  0.00  0.00    +0.000 C 
ATOM     24  O   UNL     1      50.013   8.927  15.573  0.00  0.00    +0.000 OA
ATOM     25  H   UNL     1      52.059   7.997  14.612  0.00  0.00    +0.000 HD
ATOM     26  H   UNL     1      51.353   7.393  13.154  0.00  0.00    +0.000 HD
ENDBRANCH  16  23
ENDBRANCH  15  19
ENDBRANCH   1  15
TORSDOF 5
ENDMDL
MODEL 9
REMARK VINA RESULT:    -6.647      5.097      7.951
REMARK INTER + INTRA:          -9.493
REMARK INTER:                  -8.824
REMARK INTRA:                  -0.669
REMARK UNBOUND:                -0.903
REMARK  Name = 
REMARK  5 active torsions:
REMARK  status: ('A' for Active; 'I' for Inactive)
REMARK    1  A    between atoms: C_2  and  C_4
REMARK    2  A    between atoms: C_7  and  O_8
REMARK    3  A    between atoms: O_8  and  C_9
REMARK    4  A    between atoms: C_9  and  C_10
REMARK    5  A    between atoms: C_14  and  N_15
REMARK                            x       y       z     vdW  Elec       q    Type
REMARK                         _______ _______ _______ _____ _____    ______ ____
ROOT
ATOM      1  C   UNL     1      47.101   3.935  15.104  0.00  0.00    +0.000 C 
ENDROOT
BRANCH   1   2
ATOM      2  C   UNL     1      46.811   4.876  13.952  0.00  0.00    +0.000 A 
ATOM      3  C   UNL     1      47.336   6.168  13.902  0.00  0.00    +0.000 A 
ATOM      4  C   UNL     1      47.116   6.959  12.780  0.00  0.00    +0.000 A 
ATOM      5  C   UNL     1      46.394   6.456  11.691  0.00  0.00    +0.000 A 
ATOM      6  C   UNL     1      45.861   5.158  11.686  0.00  0.00    +0.000 A 
ATOM      7  C   UNL     1      46.080   4.395  12.845  0.00  0.00    +0.000 A 
BRANCH   6   8
ATOM      8  N   UNL     1      45.194   4.650  10.586  0.00  0.00    +0.000 N 
ATOM      9  C   UNL     1      44.016   3.785  10.710  0.00  0.00    +0.000 C 
ATOM     10  C   UNL     1      44.221   2.518   9.871  0.00  0.00    +0.000 C 
ATOM     11  C   UNL     1      44.605   2.839   8.429  0.00  0.00    +0.000 C 
ATOM     12  C   UNL     1      45.816   3.763   8.381  0.00  0.00    +0.000 C 
ATOM     13  F   UNL     1      46.045   4.113   7.085  0.00  0.00    +0.000 F 
ATOM     14  C   UNL     1      45.563   5.021   9.211  0.00  0.00    +0.000 C 
ENDBRANCH   6   8
ENDBRANCH   1   2
BRANCH   1  15
ATOM     15  O   UNL     1      47.551   4.635  16.270  0.00  0.00    +0.000 OA
BRANCH  15  19
ATOM     16  C   UNL     1      51.188   3.201  17.584  0.00  0.00    +0.000 A 
ATOM     17  C   UNL     1      50.147   2.307  17.317  0.00  0.00    +0.000 A 
ATOM     18  C   UNL     1      48.920   2.805  16.868  0.00  0.00    +0.000 A 
ATOM     19  C   UNL     1      48.780   4.176  16.702  0.00  0.00    +0.000 A 
ATOM     20  N   UNL     1      49.771   5.058  16.949  0.00  0.00    +0.000 NA
ATOM     21  C   UNL     1      50.948   4.555  17.395  0.00  0.00    +0.000 A 
BRANCH  16  23
ATOM     22  N   UNL     1      52.672   1.493  18.481  0.00  0.00    +0.000 N 
ATOM     23  C   UNL     1      52.515   2.793  18.089  0.00  0.00    +0.000 C 
ATOM     24  O   UNL     1      53.453   3.579  18.123  0.00  0.00    +0.000 OA
ATOM     25  H   UNL     1      53.616   1.214  18.721  0.00  0.00    +0.000 HD
ATOM     26  H   UNL     1      52.019   0.762  18.233  0.00  0.00    +0.000 HD
ENDBRANCH  16  23
ENDBRANCH  15  19
ENDBRANCH   1  15
TORSDOF 5
ENDMDL
