MODEL 1
REMARK VINA RESULT:    -8.066      0.000      0.000
REMARK INTER + INTRA:         -11.650
REMARK INTER:                 -10.896
REMARK INTRA:                  -0.754
REMARK UNBOUND:                -0.754
REMARK  Name = 
REMARK  6 active torsions:
REMARK  status: ('A' for Active; 'I' for Inactive)
REMARK    1  A    between atoms: C_2  and  C_25
REMARK    2  A    between atoms: N_3  and  C_4
REMARK    3  A    between atoms: C_4  and  C_5
REMARK    4  A    between atoms: C_8  and  C_9
REMARK    5  A    between atoms: C_9  and  N_10
REMARK    6  A    between atoms: C_11  and  C_13
REMARK                            x       y       z     vdW  Elec       q    Type
REMARK                         _______ _______ _______ _____ _____    ______ ____
ROOT
ATOM      1  C   UNL     1      44.680   5.119  11.361  0.00  0.00    +0.000 A 
ATOM      2  C   UNL     1      45.726   4.649  12.158  0.00  0.00    +0.000 A 
ATOM      3  C   UNL     1      46.525   5.552  12.853  0.00  0.00    +0.000 A 
ATOM      4  C   UNL     1      46.263   6.914  12.733  0.00  0.00    +0.000 A 
ATOM      5  N   UNL     1      45.231   7.392  11.990  0.00  0.00    +0.000 NA
ATOM      6  C   UNL     1      44.469   6.491  11.330  0.00  0.00    +0.000 A 
ENDROOT
BRANCH   1   7
ATOM      7  C   UNL     1      43.831   4.186  10.555  0.00  0.00    +0.000 C 
BRANCH   7  10
ATOM      8  O   UNL     1      45.253   4.724   8.273  0.00  0.00    +0.000 OA
ATOM      9  C   UNL     1      45.284   3.570   8.697  0.00  0.00    +0.000 C 
ATOM     10  N   UNL     1      44.597   3.201   9.835  0.00  0.00    +0.000 N 
ATOM     11  H   UNL     1      44.693   2.252  10.177  0.00  0.00    +0.000 HD
BRANCH   9  12
ATOM     12  C   UNL     1      46.037   2.514   8.052  0.00  0.00    +0.000 A 
ATOM     13  C   UNL     1      46.899   2.571   6.973  0.00  0.00    +0.000 A 
ATOM     14  C   UNL     1      47.347   1.251   6.736  0.00  0.00    +0.000 A 
ATOM     15  C   UNL     1      46.731   0.467   7.684  0.00  0.00    +0.000 A 
ATOM     16  O   UNL     1      45.939   1.222   8.493  0.00  0.00    +0.000 OA
ENDBRANCH   9  12
ENDBRANCH   7  10
ENDBRANCH   1   7
BRANCH   4  17
ATOM     17  C   UNL     1      47.125   7.921  13.454  0.00  0.00    +0.000 C 
BRANCH  17  18
ATOM     18  N   UNL     1      47.623   7.410  14.710  0.00  0.00    +0.000 N 
ATOM     19  C   UNL     1      48.911   6.978  14.874  0.00  0.00    +0.000 C 
ATOM     20  O   UNL     1      49.730   7.006  13.960  0.00  0.00    +0.000 OA
ATOM     21  H   UNL     1      46.913   7.162  15.393  0.00  0.00    +0.000 HD
BRANCH  19  22
ATOM     22  C   UNL     1      49.286   6.542  16.225  0.00  0.00    +0.000 A 
ATOM     23  C   UNL     1      50.229   7.265  16.943  0.00  0.00    +0.000 A 
ATOM     24  S   UNL     1      50.526   6.645  18.504  0.00  0.00    +0.000 S 
ATOM     25  C   UNL     1      49.438   5.360  18.260  0.00  0.00    +0.000 A 
ATOM     26  N   UNL     1      49.242   4.417  19.220  0.00  0.00    +0.000 NA
ATOM     27  C   UNL     1      48.417   3.483  18.892  0.00  0.00    +0.000 A 
ATOM     28  N   UNL     1      47.759   3.410  17.689  0.00  0.00    +0.000 N 
ATOM     29  C   UNL     1      47.885   4.368  16.714  0.00  0.00    +0.000 A 
ATOM     30  O   UNL     1      47.210   4.322  15.689  0.00  0.00    +0.000 OA
ATOM     31  C   UNL     1      48.832   5.421  17.017  0.00  0.00    +0.000 A 
ATOM     32  H   UNL     1      47.105   2.665  17.500  0.00  0.00    +0.000 HD
ENDBRANCH  19  22
ENDBRANCH  17  18
ENDBRANCH   4  17
TORSDOF 6
ENDMDL
MODEL 2
REMARK VINA RESULT:    -7.803      2.066      3.595
REMARK INTER + INTRA:         -11.295
REMARK INTER:                 -10.344
REMARK INTRA:                  -0.950
REMARK UNBOUND:                -0.754
REMARK  Name = 
REMARK  6 active torsions:
REMARK  status: ('A' for Active; 'I' for Inactive)
REMARK    1  A    between atoms: C_2  and  C_25
REMARK    2  A    between atoms: N_3  and  C_4
REMARK    3  A    between atoms: C_4  and  C_5
REMARK    4  A    between atoms: C_8  and  C_9
REMARK    5  A    between atoms: C_9  and  N_10
REMARK    6  A    between atoms: C_11  and  C_13
REMARK                            x       y       z     vdW  Elec       q    Type
REMARK                         _______ _______ _______ _____ _____    ______ ____
ROOT
ATOM      1  C   UNL     1      44.898   4.413  11.501  0.00  0.00    +0.000 A 
ATOM      2  C   UNL     1      45.203   5.622  12.130  0.00  0.00    +0.000 A 
ATOM      3  C   UNL     1      45.933   5.619  13.316  0.00  0.00    +0.000 A 
ATOM      4  C   UNL     1      46.340   4.401  13.854  0.00  0.00    +0.000 A 
ATOM      5  N   UNL     1      46.082   3.215  13.242  0.00  0.00    +0.000 NA
ATOM      6  C   UNL     1      45.376   3.249  12.089  0.00  0.00    +0.000 A 
ENDROOT
BRANCH   1   7
ATOM      7  C   UNL     1      44.070   4.368  10.255  0.00  0.00    +0.000 C 
BRANCH   7  10
ATOM      8  O   UNL     1      46.104   5.351   8.701  0.00  0.00    +0.000 OA
ATOM      9  C   UNL     1      45.714   4.210   8.462  0.00  0.00    +0.000 C 
ATOM     10  N   UNL     1      44.693   3.630   9.187  0.00  0.00    +0.000 N 
ATOM     11  H   UNL     1      44.439   2.669   8.990  0.00  0.00    +0.000 HD
BRANCH   9  12
ATOM     12  C   UNL     1      46.286   3.384   7.419  0.00  0.00    +0.000 A 
ATOM     13  C   UNL     1      46.735   2.077   7.469  0.00  0.00    +0.000 A 
ATOM     14  C   UNL     1      47.220   1.762   6.178  0.00  0.00    +0.000 A 
ATOM     15  C   UNL     1      47.037   2.893   5.418  0.00  0.00    +0.000 A 
ATOM     16  O   UNL     1      46.465   3.883   6.157  0.00  0.00    +0.000 OA
ENDBRANCH   9  12
ENDBRANCH   7  10
ENDBRANCH   1   7
BRANCH   4  17
ATOM     17  C   UNL     1      47.112   4.360  15.149  0.00  0.00    +0.000 C 
BRANCH  17  18
ATOM     18  N   UNL     1      47.567   5.671  15.552  0.00  0.00    +0.000 N 
ATOM     19  C   UNL     1      48.704   5.865  16.287  0.00  0.00    +0.000 C 
ATOM     20  O   UNL     1      49.417   4.931  16.646  0.00  0.00    +0.000 OA
ATOM     21  H   UNL     1      46.880   6.415  15.471  0.00  0.00    +0.000 HD
BRANCH  19  22
ATOM     22  C   UNL     1      49.070   7.259  16.568  0.00  0.00    +0.000 A 
ATOM     23  C   UNL     1      49.311   7.656  17.877  0.00  0.00    +0.000 A 
ATOM     24  S   UNL     1      49.756   9.295  18.027  0.00  0.00    +0.000 S 
ATOM     25  C   UNL     1      49.599   9.547  16.352  0.00  0.00    +0.000 A 
ATOM     26  N   UNL     1      49.811  10.775  15.805  0.00  0.00    +0.000 NA
ATOM     27  C   UNL     1      49.626  10.833  14.531  0.00  0.00    +0.000 A 
ATOM     28  N   UNL     1      49.256   9.767  13.747  0.00  0.00    +0.000 N 
ATOM     29  C   UNL     1      49.086   8.500  14.247  0.00  0.00    +0.000 A 
ATOM     30  O   UNL     1      48.849   7.552  13.504  0.00  0.00    +0.000 OA
ATOM     31  C   UNL     1      49.243   8.388  15.683  0.00  0.00    +0.000 A 
ATOM     32  H   UNL     1      49.150   9.871  12.749  0.00  0.00    +0.000 HD
ENDBRANCH  19  22
ENDBRANCH  17  18
ENDBRANCH   4  17
TORSDOF 6
ENDMDL
MODEL 3
REMARK VINA RESULT:    -7.631      1.849      2.284
REMARK INTER + INTRA:         -11.062
REMARK INTER:                 -10.159
REMARK INTRA:                  -0.903
REMARK UNBOUND:                -0.754
REMARK  Name = 
REMARK  6 active torsions:
REMARK  status: ('A' for Active; 'I' for Inactive)
REMARK    1  A    between atoms: C_2  and  C_25
REMARK    2  A    between atoms: N_3  and  C_4
REMARK    3  A    between atoms: C_4  and  C_5
REMARK    4  A    between atoms: C_8  and  C_9
REMARK    5  A    between atoms: C_9  and  N_10
REMARK    6  A    between atoms: C_11  and  C_13
REMARK                            x       y       z     vdW  Elec       q    Type
REMARK                         _______ _______ _______ _____ _____    ______ ____
ROOT
ATOM      1  C   UNL     1      45.302   5.016  11.626  0.00  0.00    +0.000 A 
ATOM      2  C   UNL     1      45.695   6.239  11.078  0.00  0.00    +0.000 A 
ATOM      3  C   UNL     1      46.515   7.093  11.811  0.00  0.00    +0.000 A 
ATOM      4  C   UNL     1      46.921   6.708  13.086  0.00  0.00    +0.000 A 
ATOM      5  N   UNL     1      46.577   5.509  13.625  0.00  0.00    +0.000 NA
ATOM      6  C   UNL     1      45.786   4.698  12.888  0.00  0.00    +0.000 A 
ENDROOT
BRANCH   1   7
ATOM      7  C   UNL     1      44.379   4.093  10.894  0.00  0.00    +0.000 C 
BRANCH   7  10
ATOM      8  O   UNL     1      44.968   4.415   8.235  0.00  0.00    +0.000 OA
ATOM      9  C   UNL     1      45.326   3.367   8.769  0.00  0.00    +0.000 C 
ATOM     10  N   UNL     1      45.072   3.110  10.100  0.00  0.00    +0.000 N 
ATOM     11  H   UNL     1      45.430   2.256  10.511  0.00  0.00    +0.000 HD
BRANCH   9  12
ATOM     12  C   UNL     1      46.040   2.325   8.058  0.00  0.00    +0.000 A 
ATOM     13  C   UNL     1      46.839   2.408   6.933  0.00  0.00    +0.000 A 
ATOM     14  C   UNL     1      47.272   1.093   6.641  0.00  0.00    +0.000 A 
ATOM     15  C   UNL     1      46.711   0.288   7.605  0.00  0.00    +0.000 A 
ATOM     16  O   UNL     1      45.967   1.023   8.475  0.00  0.00    +0.000 OA
ENDBRANCH   9  12
ENDBRANCH   7  10
ENDBRANCH   1   7
BRANCH   4  17
ATOM     17  C   UNL     1      47.789   7.620  13.916  0.00  0.00    +0.000 C 
BRANCH  17  18
ATOM     18  N   UNL     1      47.949   7.136  15.267  0.00  0.00    +0.000 N 
ATOM     19  C   UNL     1      49.158   6.747  15.776  0.00  0.00    +0.000 C 
ATOM     20  O   UNL     1      50.191   6.793  15.112  0.00  0.00    +0.000 OA
ATOM     21  H   UNL     1      47.090   6.872  15.741  0.00  0.00    +0.000 HD
BRANCH  19  22
ATOM     22  C   UNL     1      49.173   6.335  17.185  0.00  0.00    +0.000 A 
ATOM     23  C   UNL     1      49.754   5.125  17.541  0.00  0.00    +0.000 A 
ATOM     24  S   UNL     1      49.716   4.812  19.217  0.00  0.00    +0.000 S 
ATOM     25  C   UNL     1      48.882   6.263  19.524  0.00  0.00    +0.000 A 
ATOM     26  N   UNL     1      48.504   6.599  20.787  0.00  0.00    +0.000 NA
ATOM     27  C   UNL     1      47.851   7.707  20.873  0.00  0.00    +0.000 A 
ATOM     28  N   UNL     1      47.549   8.520  19.807  0.00  0.00    +0.000 N 
ATOM     29  C   UNL     1      47.959   8.248  18.525  0.00  0.00    +0.000 A 
ATOM     30  O   UNL     1      47.755   9.043  17.612  0.00  0.00    +0.000 OA
ATOM     31  C   UNL     1      48.664   6.992  18.368  0.00  0.00    +0.000 A 
ATOM     32  H   UNL     1      47.055   9.389  19.942  0.00  0.00    +0.000 HD
ENDBRANCH  19  22
ENDBRANCH  17  18
ENDBRANCH   4  17
TORSDOF 6
ENDMDL
MODEL 4
REMARK VINA RESULT:    -7.240      3.981      4.850
REMARK INTER + INTRA:         -10.534
REMARK INTER:                  -9.737
REMARK INTRA:                  -0.797
REMARK UNBOUND:                -0.754
REMARK  Name = 
REMARK  6 active torsions:
REMARK  status: ('A' for Active; 'I' for Inactive)
REMARK    1  A    between atoms: C_2  and  C_25
REMARK    2  A    between atoms: N_3  and  C_4
REMARK    3  A    between atoms: C_4  and  C_5
REMARK    4  A    between atoms: C_8  and  C_9
REMARK    5  A    between atoms: C_9  and  N_10
REMARK    6  A    between atoms: C_11  and  C_13
REMARK                            x       y       z     vdW  Elec       q    Type
REMARK                         _______ _______ _______ _____ _____    ______ ____
ROOT
ATOM      1  C   UNL     1      44.389   4.505  11.595  0.00  0.00    +0.000 A 
ATOM      2  C   UNL     1      45.539   4.612  12.380  0.00  0.00    +0.000 A 
ATOM      3  C   UNL     1      45.939   5.859  12.853  0.00  0.00    +0.000 A 
ATOM      4  C   UNL     1      45.180   6.979  12.525  0.00  0.00    +0.000 A 
ATOM      5  N   UNL     1      44.041   6.893  11.790  0.00  0.00    +0.000 NA
ATOM      6  C   UNL     1      43.674   5.669  11.348  0.00  0.00    +0.000 A 
ENDROOT
BRANCH   1   7
ATOM      7  C   UNL     1      43.954   3.192  11.021  0.00  0.00    +0.000 C 
BRANCH   7  10
ATOM      8  O   UNL     1      44.403   4.092   8.470  0.00  0.00    +0.000 OA
ATOM      9  C   UNL     1      45.079   3.142   8.860  0.00  0.00    +0.000 C 
ATOM     10  N   UNL     1      44.924   2.616  10.125  0.00  0.00    +0.000 N 
ATOM     11  H   UNL     1      45.538   1.867  10.422  0.00  0.00    +0.000 HD
BRANCH   9  12
ATOM     12  C   UNL     1      46.088   2.504   8.038  0.00  0.00    +0.000 A 
ATOM     13  C   UNL     1      46.418   1.167   7.918  0.00  0.00    +0.000 A 
ATOM     14  C   UNL     1      47.491   1.092   6.999  0.00  0.00    +0.000 A 
ATOM     15  C   UNL     1      47.750   2.386   6.613  0.00  0.00    +0.000 A 
ATOM     16  O   UNL     1      46.903   3.252   7.231  0.00  0.00    +0.000 OA
ENDBRANCH   9  12
ENDBRANCH   7  10
ENDBRANCH   1   7
BRANCH   4  17
ATOM     17  C   UNL     1      45.598   8.348  13.001  0.00  0.00    +0.000 C 
BRANCH  17  18
ATOM     18  N   UNL     1      46.779   8.824  12.318  0.00  0.00    +0.000 N 
ATOM     19  C   UNL     1      47.859   9.340  12.980  0.00  0.00    +0.000 C 
ATOM     20  O   UNL     1      47.895   9.425  14.205  0.00  0.00    +0.000 OA
ATOM     21  H   UNL     1      46.673   8.979  11.319  0.00  0.00    +0.000 HD
BRANCH  19  22
ATOM     22  C   UNL     1      49.009   9.727  12.152  0.00  0.00    +0.000 A 
ATOM     23  C   UNL     1      49.179  11.057  11.790  0.00  0.00    +0.000 A 
ATOM     24  S   UNL     1      50.579  11.341  10.859  0.00  0.00    +0.000 S 
ATOM     25  C   UNL     1      50.986   9.689  10.868  0.00  0.00    +0.000 A 
ATOM     26  N   UNL     1      52.085   9.235  10.207  0.00  0.00    +0.000 NA
ATOM     27  C   UNL     1      52.258   7.960  10.268  0.00  0.00    +0.000 A 
ATOM     28  N   UNL     1      51.433   7.092  10.941  0.00  0.00    +0.000 N 
ATOM     29  C   UNL     1      50.346   7.512  11.667  0.00  0.00    +0.000 A 
ATOM     30  O   UNL     1      49.686   6.721  12.335  0.00  0.00    +0.000 OA
ATOM     31  C   UNL     1      50.084   8.935  11.598  0.00  0.00    +0.000 A 
ATOM     32  H   UNL     1      51.635   6.104  10.972  0.00  0.00    +0.000 HD
ENDBRANCH  19  22
ENDBRANCH  17  18
ENDBRANCH   4  17
TORSDOF 6
ENDMDL
MODEL 5
REMARK VINA RESULT:    -7.033      3.601      8.361
REMARK INTER + INTRA:         -10.255
REMARK INTER:                  -9.359
REMARK INTRA:                  -0.895
REMARK UNBOUND:                -0.754
REMARK  Name = 
REMARK  6 active torsions:
REMARK  status: ('A' for Active; 'I' for Inactive)
REMARK    1  A    between atoms: C_2  and  C_25
REMARK    2  A    between atoms: N_3  and  C_4
REMARK    3  A    between atoms: C_4  and  C_5
REMARK    4  A    between atoms: C_8  and  C_9
REMARK    5  A    between atoms: C_9  and  N_10
REMARK    6  A    between atoms: C_11  and  C_13
REMARK                            x       y       z     vdW  Elec       q    Type
REMARK                         _______ _______ _______ _____ _____    ______ ____
ROOT
ATOM      1  C   UNL     1      49.532   5.805  16.910  0.00  0.00    +0.000 A 
ATOM      2  C   UNL     1      50.307   6.808  16.324  0.00  0.00    +0.000 A 
ATOM      3  C   UNL     1      49.961   7.307  15.072  0.00  0.00    +0.000 A 
ATOM      4  C   UNL     1      48.843   6.786  14.424  0.00  0.00    +0.000 A 
ATOM      5  N   UNL     1      48.057   5.833  14.990  0.00  0.00    +0.000 NA
ATOM      6  C   UNL     1      48.415   5.372  16.209  0.00  0.00    +0.000 A 
ENDROOT
BRANCH   1   7
ATOM      7  C   UNL     1      49.901   5.204  18.230  0.00  0.00    +0.000 C 
BRANCH   7  10
ATOM      8  O   UNL     1      49.780   2.543  17.576  0.00  0.00    +0.000 OA
ATOM      9  C   UNL     1      50.890   3.015  17.816  0.00  0.00    +0.000 C 
ATOM     10  N   UNL     1      51.052   4.341  18.159  0.00  0.00    +0.000 N 
ATOM     11  H   UNL     1      51.990   4.699  18.297  0.00  0.00    +0.000 HD
BRANCH   9  12
ATOM     12  C   UNL     1      52.108   2.232  17.757  0.00  0.00    +0.000 A 
ATOM     13  C   UNL     1      53.408   2.591  18.061  0.00  0.00    +0.000 A 
ATOM     14  C   UNL     1      54.215   1.457  17.807  0.00  0.00    +0.000 A 
ATOM     15  C   UNL     1      53.360   0.476  17.364  0.00  0.00    +0.000 A 
ATOM     16  O   UNL     1      52.077   0.930  17.335  0.00  0.00    +0.000 OA
ENDBRANCH   9  12
ENDBRANCH   7  10
ENDBRANCH   1   7
BRANCH   4  17
ATOM     17  C   UNL     1      48.453   7.287  13.056  0.00  0.00    +0.000 C 
BRANCH  17  18
ATOM     18  N   UNL     1      47.625   6.340  12.346  0.00  0.00    +0.000 N 
ATOM     19  C   UNL     1      46.463   6.697  11.719  0.00  0.00    +0.000 C 
ATOM     20  O   UNL     1      46.054   7.855  11.714  0.00  0.00    +0.000 OA
ATOM     21  H   UNL     1      47.819   5.361  12.538  0.00  0.00    +0.000 HD
BRANCH  19  22
ATOM     22  C   UNL     1      45.761   5.634  10.988  0.00  0.00    +0.000 A 
ATOM     23  C   UNL     1      45.802   5.613   9.600  0.00  0.00    +0.000 A 
ATOM     24  S   UNL     1      44.965   4.297   8.910  0.00  0.00    +0.000 S 
ATOM     25  C   UNL     1      44.480   3.733  10.439  0.00  0.00    +0.000 A 
ATOM     26  N   UNL     1      43.692   2.630  10.561  0.00  0.00    +0.000 NA
ATOM     27  C   UNL     1      43.372   2.332  11.774  0.00  0.00    +0.000 A 
ATOM     28  N   UNL     1      43.779   3.033  12.883  0.00  0.00    +0.000 N 
ATOM     29  C   UNL     1      44.619   4.117  12.810  0.00  0.00    +0.000 A 
ATOM     30  O   UNL     1      45.039   4.662  13.827  0.00  0.00    +0.000 OA
ATOM     31  C   UNL     1      44.976   4.518  11.465  0.00  0.00    +0.000 A 
ATOM     32  H   UNL     1      43.515   2.736  13.810  0.00  0.00    +0.000 HD
ENDBRANCH  19  22
ENDBRANCH  17  18
ENDBRANCH   4  17
TORSDOF 6
ENDMDL
MODEL 6
REMARK VINA RESULT:    -6.976      2.665      4.165
REMARK INTER + INTRA:         -10.177
REMARK INTER:                  -9.125
REMARK INTRA:                  -1.052
REMARK UNBOUND:                -0.754
REMARK  Name = 
REMARK  6 active torsions:
REMARK  status: ('A' for Active; 'I' for Inactive)
REMARK    1  A    between atoms: C_2  and  C_25
REMARK    2  A    between atoms: N_3  and  C_4
REMARK    3  A    between atoms: C_4  and  C_5
REMARK    4  A    between atoms: C_8  and  C_9
REMARK    5  A    between atoms: C_9  and  N_10
REMARK    6  A    between atoms: C_11  and  C_13
REMARK                            x       y       z     vdW  Elec       q    Type
REMARK                         _______ _______ _______ _____ _____    ______ ____
ROOT
ATOM      1  C   UNL     1      45.134   4.523  11.638  0.00  0.00    +0.000 A 
ATOM      2  C   UNL     1      45.511   5.859  11.793  0.00  0.00    +0.000 A 
ATOM      3  C   UNL     1      46.295   6.235  12.880  0.00  0.00    +0.000 A 
ATOM      4  C   UNL     1      46.683   5.263  13.799  0.00  0.00    +0.000 A 
ATOM      5  N   UNL     1      46.355   3.953  13.650  0.00  0.00    +0.000 NA
ATOM      6  C   UNL     1      45.598   3.617  12.582  0.00  0.00    +0.000 A 
ENDROOT
BRANCH   1   7
ATOM      7  C   UNL     1      44.248   4.087  10.513  0.00  0.00    +0.000 C 
BRANCH   7  10
ATOM      8  O   UNL     1      45.687   5.121   8.420  0.00  0.00    +0.000 OA
ATOM      9  C   UNL     1      45.633   3.896   8.517  0.00  0.00    +0.000 C 
ATOM     10  N   UNL     1      44.931   3.282   9.533  0.00  0.00    +0.000 N 
ATOM     11  H   UNL     1      44.957   2.272   9.604  0.00  0.00    +0.000 HD
BRANCH   9  12
ATOM     12  C   UNL     1      46.297   3.003   7.589  0.00  0.00    +0.000 A 
ATOM     13  C   UNL     1      46.683   3.213   6.279  0.00  0.00    +0.000 A 
ATOM     14  C   UNL     1      47.269   2.007   5.826  0.00  0.00    +0.000 A 
ATOM     15  C   UNL     1      47.206   1.135   6.888  0.00  0.00    +0.000 A 
ATOM     16  O   UNL     1      46.625   1.728   7.966  0.00  0.00    +0.000 OA
ENDBRANCH   9  12
ENDBRANCH   7  10
ENDBRANCH   1   7
BRANCH   4  17
ATOM     17  C   UNL     1      47.512   5.639  15.001  0.00  0.00    +0.000 C 
BRANCH  17  18
ATOM     18  N   UNL     1      48.746   6.290  14.628  0.00  0.00    +0.000 N 
ATOM     19  C   UNL     1      49.079   7.547  15.055  0.00  0.00    +0.000 C 
ATOM     20  O   UNL     1      48.347   8.200  15.794  0.00  0.00    +0.000 OA
ATOM     21  H   UNL     1      49.241   5.872  13.845  0.00  0.00    +0.000 HD
BRANCH  19  22
ATOM     22  C   UNL     1      50.394   8.051  14.640  0.00  0.00    +0.000 A 
ATOM     23  C   UNL     1      51.318   8.433  15.604  0.00  0.00    +0.000 A 
ATOM     24  S   UNL     1      52.804   8.963  14.957  0.00  0.00    +0.000 S 
ATOM     25  C   UNL     1      52.251   8.744  13.364  0.00  0.00    +0.000 A 
ATOM     26  N   UNL     1      53.041   9.052  12.300  0.00  0.00    +0.000 NA
ATOM     27  C   UNL     1      52.487   8.869  11.150  0.00  0.00    +0.000 A 
ATOM     28  N   UNL     1      51.211   8.394  10.966  0.00  0.00    +0.000 N 
ATOM     29  C   UNL     1      50.400   8.019  12.009  0.00  0.00    +0.000 A 
ATOM     30  O   UNL     1      49.302   7.510  11.806  0.00  0.00    +0.000 OA
ATOM     31  C   UNL     1      50.962   8.243  13.325  0.00  0.00    +0.000 A 
ATOM     32  H   UNL     1      50.841   8.249  10.039  0.00  0.00    +0.000 HD
ENDBRANCH  19  22
ENDBRANCH  17  18
ENDBRANCH   4  17
TORSDOF 6
ENDMDL
MODEL 7
REMARK VINA RESULT:    -6.910      3.500      4.722
REMARK INTER + INTRA:         -10.088
REMARK INTER:                  -9.188
REMARK INTRA:                  -0.899
REMARK UNBOUND:                -0.754
REMARK  Name = 
REMARK  6 active torsions:
REMARK  status: ('A' for Active; 'I' for Inactive)
REMARK    1  A    between atoms: C_2  and  C_25
REMARK    2  A    between atoms: N_3  and  C_4
REMARK    3  A    between atoms: C_4  and  C_5
REMARK    4  A    between atoms: C_8  and  C_9
REMARK    5  A    between atoms: C_9  and  N_10
REMARK    6  A    between atoms: C_11  and  C_13
REMARK                            x       y       z     vdW  Elec       q    Type
REMARK                         _______ _______ _______ _____ _____    ______ ____
ROOT
ATOM      1  C   UNL     1      47.254   5.994  13.801  0.00  0.00    +0.000 A 
ATOM      2  C   UNL     1      46.648   4.822  14.258  0.00  0.00    +0.000 A 
ATOM      3  C   UNL     1      47.076   4.240  15.448  0.00  0.00    +0.000 A 
ATOM      4  C   UNL     1      48.112   4.842  16.157  0.00  0.00    +0.000 A 
ATOM      5  N   UNL     1      48.694   5.999  15.748  0.00  0.00    +0.000 NA
ATOM      6  C   UNL     1      48.254   6.544  14.592  0.00  0.00    +0.000 A 
ENDROOT
BRANCH   1   7
ATOM      7  C   UNL     1      46.860   6.622  12.501  0.00  0.00    +0.000 C 
BRANCH   7  10
ATOM      8  O   UNL     1      44.421   6.409  11.265  0.00  0.00    +0.000 OA
ATOM      9  C   UNL     1      45.304   5.631  10.908  0.00  0.00    +0.000 C 
ATOM     10  N   UNL     1      46.562   5.657  11.473  0.00  0.00    +0.000 N 
ATOM     11  H   UNL     1      47.273   5.033  11.111  0.00  0.00    +0.000 HD
BRANCH   9  12
ATOM     12  C   UNL     1      45.105   4.637   9.872  0.00  0.00    +0.000 A 
ATOM     13  C   UNL     1      44.470   3.411   9.931  0.00  0.00    +0.000 A 
ATOM     14  C   UNL     1      44.581   2.830   8.646  0.00  0.00    +0.000 A 
ATOM     15  C   UNL     1      45.277   3.736   7.881  0.00  0.00    +0.000 A 
ATOM     16  O   UNL     1      45.596   4.840   8.610  0.00  0.00    +0.000 OA
ENDBRANCH   9  12
ENDBRANCH   7  10
ENDBRANCH   1   7
BRANCH   4  17
ATOM     17  C   UNL     1      48.617   4.225  17.438  0.00  0.00    +0.000 C 
BRANCH  17  18
ATOM     18  N   UNL     1      50.026   3.912  17.371  0.00  0.00    +0.000 N 
ATOM     19  C   UNL     1      50.891   4.173  18.399  0.00  0.00    +0.000 C 
ATOM     20  O   UNL     1      50.518   4.685  19.452  0.00  0.00    +0.000 OA
ATOM     21  H   UNL     1      50.386   3.714  16.442  0.00  0.00    +0.000 HD
BRANCH  19  22
ATOM     22  C   UNL     1      52.282   3.744  18.208  0.00  0.00    +0.000 A 
ATOM     23  C   UNL     1      53.314   4.653  18.402  0.00  0.00    +0.000 A 
ATOM     24  S   UNL     1      54.867   3.986  18.172  0.00  0.00    +0.000 S 
ATOM     25  C   UNL     1      54.215   2.470  17.760  0.00  0.00    +0.000 A 
ATOM     26  N   UNL     1      55.022   1.433  17.410  0.00  0.00    +0.000 NA
ATOM     27  C   UNL     1      54.397   0.352  17.090  0.00  0.00    +0.000 A 
ATOM     28  N   UNL     1      53.031   0.210  17.096  0.00  0.00    +0.000 N 
ATOM     29  C   UNL     1      52.181   1.212  17.495  0.00  0.00    +0.000 A 
ATOM     30  O   UNL     1      50.972   1.021  17.580  0.00  0.00    +0.000 OA
ATOM     31  C   UNL     1      52.832   2.463  17.828  0.00  0.00    +0.000 A 
ATOM     32  H   UNL     1      52.600  -0.670  16.858  0.00  0.00    +0.000 HD
ENDBRANCH  19  22
ENDBRANCH  17  18
ENDBRANCH   4  17
TORSDOF 6
ENDMDL
MODEL 8
REMARK VINA RESULT:    -6.564      3.575      5.404
REMARK INTER + INTRA:          -9.621
REMARK INTER:                  -8.884
REMARK INTRA:                  -0.738
REMARK UNBOUND:                -0.754
REMARK  Name = 
REMARK  6 active torsions:
REMARK  status: ('A' for Active; 'I' for Inactive)
REMARK    1  A    between atoms: C_2  and  C_25
REMARK    2  A    between atoms: N_3  and  C_4
REMARK    3  A    between atoms: C_4  and  C_5
REMARK    4  A    between atoms: C_8  and  C_9
REMARK    5  A    between atoms: C_9  and  N_10
REMARK    6  A    between atoms: C_11  and  C_13
REMARK                            x       y       z     vdW  Elec       q    Type
REMARK                         _______ _______ _______ _____ _____    ______ ____
ROOT
ATOM      1  C   UNL     1      47.742   5.857  14.691  0.00  0.00    +0.000 A 
ATOM      2  C   UNL     1      47.041   4.665  14.883  0.00  0.00    +0.000 A 
ATOM      3  C   UNL     1      47.276   3.900  16.023  0.00  0.00    +0.000 A 
ATOM      4  C   UNL     1      48.218   4.343  16.948  0.00  0.00    +0.000 A 
ATOM      5  N   UNL     1      48.888   5.516  16.797  0.00  0.00    +0.000 NA
ATOM      6  C   UNL     1      48.634   6.240  15.684  0.00  0.00    +0.000 A 
ENDROOT
BRANCH   1   7
ATOM      7  C   UNL     1      47.558   6.681  13.455  0.00  0.00    +0.000 C 
BRANCH   7  10
ATOM      8  O   UNL     1      44.978   6.848  12.541  0.00  0.00    +0.000 OA
ATOM      9  C   UNL     1      45.736   6.081  11.951  0.00  0.00    +0.000 C 
ATOM     10  N   UNL     1      47.051   5.925  12.339  0.00  0.00    +0.000 N 
ATOM     11  H   UNL     1      47.653   5.321  11.793  0.00  0.00    +0.000 HD
BRANCH   9  12
ATOM     12  C   UNL     1      45.324   5.288  10.810  0.00  0.00    +0.000 A 
ATOM     13  C   UNL     1      45.774   5.314   9.504  0.00  0.00    +0.000 A 
ATOM     14  C   UNL     1      45.020   4.352   8.792  0.00  0.00    +0.000 A 
ATOM     15  C   UNL     1      44.156   3.797   9.706  0.00  0.00    +0.000 A 
ATOM     16  O   UNL     1      44.334   4.351  10.936  0.00  0.00    +0.000 OA
ENDBRANCH   9  12
ENDBRANCH   7  10
ENDBRANCH   1   7
BRANCH   4  17
ATOM     17  C   UNL     1      48.515   3.527  18.181  0.00  0.00    +0.000 C 
BRANCH  17  18
ATOM     18  N   UNL     1      49.909   3.155  18.264  0.00  0.00    +0.000 N 
ATOM     19  C   UNL     1      50.492   2.275  17.393  0.00  0.00    +0.000 C 
ATOM     20  O   UNL     1      49.864   1.749  16.477  0.00  0.00    +0.000 OA
ATOM     21  H   UNL     1      50.372   3.389  19.137  0.00  0.00    +0.000 HD
BRANCH  19  22
ATOM     22  C   UNL     1      51.931   2.041  17.566  0.00  0.00    +0.000 A 
ATOM     23  C   UNL     1      52.421   0.741  17.567  0.00  0.00    +0.000 A 
ATOM     24  S   UNL     1      54.114   0.646  17.745  0.00  0.00    +0.000 S 
ATOM     25  C   UNL     1      54.250   2.337  17.874  0.00  0.00    +0.000 A 
ATOM     26  N   UNL     1      55.458   2.929  18.077  0.00  0.00    +0.000 NA
ATOM     27  C   UNL     1      55.413   4.213  18.189  0.00  0.00    +0.000 A 
ATOM     28  N   UNL     1      54.266   4.964  18.104  0.00  0.00    +0.000 N 
ATOM     29  C   UNL     1      53.035   4.414  17.844  0.00  0.00    +0.000 A 
ATOM     30  O   UNL     1      52.047   5.123  17.679  0.00  0.00    +0.000 OA
ATOM     31  C   UNL     1      53.024   2.968  17.749  0.00  0.00    +0.000 A 
ATOM     32  H   UNL     1      54.299   5.969  18.175  0.00  0.00    +0.000 HD
ENDBRANCH  19  22
ENDBRANCH  17  18
ENDBRANCH   4  17
TORSDOF 6
ENDMDL
MODEL 9
REMARK VINA RESULT:    -6.314      2.538      3.698
REMARK INTER + INTRA:          -9.283
REMARK INTER:                  -8.277
REMARK INTRA:                  -1.006
REMARK UNBOUND:                -0.754
REMARK  Name = 
REMARK  6 active torsions:
REMARK  status: ('A' for Active; 'I' for Inactive)
REMARK    1  A    between atoms: C_2  and  C_25
REMARK    2  A    between atoms: N_3  and  C_4
REMARK    3  A    between atoms: C_4  and  C_5
REMARK    4  A    between atoms: C_8  and  C_9
REMARK    5  A    between atoms: C_9  and  N_10
REMARK    6  A    between atoms: C_11  and  C_13
REMARK                            x       y       z     vdW  Elec       q    Type
REMARK                         _______ _______ _______ _____ _____    ______ ____
ROOT
ATOM      1  C   UNL     1      46.383   7.658  12.287  0.00  0.00    +0.000 A 
ATOM      2  C   UNL     1      47.534   6.899  12.062  0.00  0.00    +0.000 A 
ATOM      3  C   UNL     1      48.641   7.059  12.891  0.00  0.00    +0.000 A 
ATOM      4  C   UNL     1      48.576   7.984  13.930  0.00  0.00    +0.000 A 
ATOM      5  N   UNL     1      47.456   8.709  14.187  0.00  0.00    +0.000 NA
ATOM      6  C   UNL     1      46.395   8.528  13.369  0.00  0.00    +0.000 A 
ENDROOT
BRANCH   1   7
ATOM      7  C   UNL     1      45.192   7.556  11.387  0.00  0.00    +0.000 C 
BRANCH   7  10
ATOM      8  O   UNL     1      43.779   5.263  11.907  0.00  0.00    +0.000 OA
ATOM      9  C   UNL     1      44.467   5.283  10.888  0.00  0.00    +0.000 C 
ATOM     10  N   UNL     1      45.217   6.388  10.544  0.00  0.00    +0.000 N 
ATOM     11  H   UNL     1      45.728   6.379   9.669  0.00  0.00    +0.000 HD
BRANCH   9  12
ATOM     12  C   UNL     1      44.546   4.164   9.970  0.00  0.00    +0.000 A 
ATOM     13  C   UNL     1      44.361   2.814  10.200  0.00  0.00    +0.000 A 
ATOM     14  C   UNL     1      44.578   2.156   8.967  0.00  0.00    +0.000 A 
ATOM     15  C   UNL     1      44.881   3.143   8.059  0.00  0.00    +0.000 A 
ATOM     16  O   UNL     1      44.859   4.367   8.653  0.00  0.00    +0.000 OA
ENDBRANCH   9  12
ENDBRANCH   7  10
ENDBRANCH   1   7
BRANCH   4  17
ATOM     17  C   UNL     1      49.765   8.200  14.833  0.00  0.00    +0.000 C 
BRANCH  17  18
ATOM     18  N   UNL     1      50.215   6.970  15.442  0.00  0.00    +0.000 N 
ATOM     19  C   UNL     1      49.694   6.490  16.612  0.00  0.00    +0.000 C 
ATOM     20  O   UNL     1      48.800   7.076  17.217  0.00  0.00    +0.000 OA
ATOM     21  H   UNL     1      51.097   6.606  15.090  0.00  0.00    +0.000 HD
BRANCH  19  22
ATOM     22  C   UNL     1      50.212   5.196  17.076  0.00  0.00    +0.000 A 
ATOM     23  C   UNL     1      49.333   4.143  17.293  0.00  0.00    +0.000 A 
ATOM     24  S   UNL     1      50.098   2.705  17.796  0.00  0.00    +0.000 S 
ATOM     25  C   UNL     1      51.627   3.450  17.786  0.00  0.00    +0.000 A 
ATOM     26  N   UNL     1      52.743   2.765  18.157  0.00  0.00    +0.000 NA
ATOM     27  C   UNL     1      53.829   3.458  18.135  0.00  0.00    +0.000 A 
ATOM     28  N   UNL     1      53.904   4.778  17.763  0.00  0.00    +0.000 N 
ATOM     29  C   UNL     1      52.815   5.492  17.329  0.00  0.00    +0.000 A 
ATOM     30  O   UNL     1      52.934   6.641  16.914  0.00  0.00    +0.000 OA
ATOM     31  C   UNL     1      51.560   4.769  17.373  0.00  0.00    +0.000 A 
ATOM     32  H   UNL     1      54.790   5.261  17.743  0.00  0.00    +0.000 HD
ENDBRANCH  19  22
ENDBRANCH  17  18
ENDBRANCH   4  17
TORSDOF 6
ENDMDL
