MODEL 1
REMARK VINA RESULT:    -8.093      0.000      0.000
REMARK INTER + INTRA:         -12.893
REMARK INTER:                 -11.642
REMARK INTRA:                  -1.251
REMARK UNBOUND:                -1.251
REMARK  Name = 
REMARK  8 active torsions:
REMARK  status: ('A' for Active; 'I' for Inactive)
REMARK    1  A    between atoms: N_1  and  C_2
REMARK    2  A    between atoms: C_2  and  C_3
REMARK    3  A    between atoms: C_2  and  C_17
REMARK    4  A    between atoms: C_3  and  N_4
REMARK    5  A    between atoms: C_5  and  C_7
REMARK    6  A    between atoms: C_20  and  C_21
REMARK    7  A    between atoms: C_21  and  N_22
REMARK    8  A    between atoms: C_23  and  C_25
REMARK                            x       y       z     vdW  Elec       q    Type
REMARK                         _______ _______ _______ _____ _____    ______ ____
ROOT
ATOM      1  C   UNL     1      47.186   4.014  15.810  0.00  0.00    +0.000 C 
ENDROOT
BRANCH   1   2
ATOM      2  C   UNL     1      46.722   4.567  14.466  0.00  0.00    +0.000 A 
ATOM      3  C   UNL     1      47.259   5.768  13.969  0.00  0.00    +0.000 A 
ATOM      4  C   UNL     1      46.850   6.297  12.743  0.00  0.00    +0.000 A 
ATOM      5  C   UNL     1      45.900   5.628  11.966  0.00  0.00    +0.000 A 
ATOM      6  C   UNL     1      45.398   4.406  12.421  0.00  0.00    +0.000 A 
ATOM      7  C   UNL     1      45.806   3.883  13.650  0.00  0.00    +0.000 A 
BRANCH   5   8
ATOM      8  C   UNL     1      45.457   6.191  10.647  0.00  0.00    +0.000 C 
BRANCH   8   9
ATOM      9  N   UNL     1      44.941   5.153   9.787  0.00  0.00    +0.000 N 
ATOM     10  C   UNL     1      45.627   4.785   8.651  0.00  0.00    +0.000 C 
ATOM     11  O   UNL     1      46.700   5.289   8.334  0.00  0.00    +0.000 OA
ATOM     12  H   UNL     1      44.142   4.621  10.104  0.00  0.00    +0.000 HD
BRANCH  10  13
ATOM     13  C   UNL     1      44.947   3.688   7.847  0.00  0.00    +0.000 C 
ATOM     14  C   UNL     1      44.574   2.486   8.689  0.00  0.00    +0.000 C 
ATOM     15  C   UNL     1      45.852   1.676   8.693  0.00  0.00    +0.000 C 
ATOM     16  O   UNL     1      46.485   1.910   7.428  0.00  0.00    +0.000 OA
ATOM     17  C   UNL     1      45.906   3.083   6.837  0.00  0.00    +0.000 C 
ENDBRANCH  10  13
ENDBRANCH   8   9
ENDBRANCH   5   8
ENDBRANCH   1   2
BRANCH   1  18
ATOM     18  N   UNL     1      48.017   2.804  15.635  0.00  0.00    +0.000 NA
ATOM     19  H   UNL     1      48.901   2.950  16.122  0.00  0.00    +0.000 HD
ATOM     20  H   UNL     1      48.291   2.751  14.651  0.00  0.00    +0.000 HD
ENDBRANCH   1  18
BRANCH   1  21
ATOM     21  C   UNL     1      47.931   5.056  16.693  0.00  0.00    +0.000 C 
BRANCH  21  22
ATOM     22  N   UNL     1      49.138   4.525  17.300  0.00  0.00    +0.000 N 
ATOM     23  C   UNL     1      50.393   5.000  17.035  0.00  0.00    +0.000 C 
ATOM     24  O   UNL     1      50.591   5.933  16.263  0.00  0.00    +0.000 OA
ATOM     25  H   UNL     1      49.035   3.646  17.797  0.00  0.00    +0.000 HD
BRANCH  23  26
ATOM     26  C   UNL     1      51.487   4.341  17.749  0.00  0.00    +0.000 A 
ATOM     27  C   UNL     1      52.355   5.093  18.528  0.00  0.00    +0.000 A 
ATOM     28  S   UNL     1      53.537   4.158  19.323  0.00  0.00    +0.000 S 
ATOM     29  C   UNL     1      52.962   2.722  18.612  0.00  0.00    +0.000 A 
ATOM     30  N   UNL     1      53.559   1.526  18.865  0.00  0.00    +0.000 NA
ATOM     31  C   UNL     1      53.046   0.527  18.227  0.00  0.00    +0.000 A 
ATOM     32  N   UNL     1      51.983   0.614  17.365  0.00  0.00    +0.000 N 
ATOM     33  C   UNL     1      51.313   1.788  17.121  0.00  0.00    +0.000 A 
ATOM     34  O   UNL     1      50.299   1.812  16.429  0.00  0.00    +0.000 OA
ATOM     35  C   UNL     1      51.871   2.950  17.794  0.00  0.00    +0.000 A 
ATOM     36  H   UNL     1      51.619  -0.213  16.911  0.00  0.00    +0.000 HD
ENDBRANCH  23  26
ENDBRANCH  21  22
ENDBRANCH   1  21
TORSDOF 8
ENDMDL
MODEL 2
REMARK VINA RESULT:    -8.029      1.463      2.008
REMARK INTER + INTRA:         -12.801
REMARK INTER:                 -11.633
REMARK INTRA:                  -1.168
REMARK UNBOUND:                -1.251
REMARK  Name = 
REMARK  8 active torsions:
REMARK  status: ('A' for Active; 'I' for Inactive)
REMARK    1  A    between atoms: N_1  and  C_2
REMARK    2  A    between atoms: C_2  and  C_3
REMARK    3  A    between atoms: C_2  and  C_17
REMARK    4  A    between atoms: C_3  and  N_4
REMARK    5  A    between atoms: C_5  and  C_7
REMARK    6  A    between atoms: C_20  and  C_21
REMARK    7  A    between atoms: C_21  and  N_22
REMARK    8  A    between atoms: C_23  and  C_25
REMARK                            x       y       z     vdW  Elec       q    Type
REMARK                         _______ _______ _______ _____ _____    ______ ____
ROOT
ATOM      1  C   UNL     1      46.689   4.141  14.489  0.00  0.00    +0.000 C 
ENDROOT
BRANCH   1   2
ATOM      2  C   UNL     1      46.072   4.305  13.103  0.00  0.00    +0.000 A 
ATOM      3  C   UNL     1      45.346   3.251  12.520  0.00  0.00    +0.000 A 
ATOM      4  C   UNL     1      44.773   3.374  11.253  0.00  0.00    +0.000 A 
ATOM      5  C   UNL     1      44.897   4.567  10.533  0.00  0.00    +0.000 A 
ATOM      6  C   UNL     1      45.569   5.641  11.122  0.00  0.00    +0.000 A 
ATOM      7  C   UNL     1      46.145   5.513  12.388  0.00  0.00    +0.000 A 
BRANCH   5   8
ATOM      8  C   UNL     1      44.283   4.706   9.171  0.00  0.00    +0.000 C 
BRANCH   8   9
ATOM      9  N   UNL     1      44.627   3.586   8.329  0.00  0.00    +0.000 N 
ATOM     10  C   UNL     1      45.763   3.623   7.551  0.00  0.00    +0.000 C 
ATOM     11  O   UNL     1      46.536   4.576   7.555  0.00  0.00    +0.000 OA
ATOM     12  H   UNL     1      44.092   2.734   8.422  0.00  0.00    +0.000 HD
BRANCH  10  13
ATOM     13  C   UNL     1      45.978   2.372   6.713  0.00  0.00    +0.000 C 
ATOM     14  C   UNL     1      46.925   1.385   7.362  0.00  0.00    +0.000 C 
ATOM     15  C   UNL     1      48.283   1.895   6.930  0.00  0.00    +0.000 C 
ATOM     16  O   UNL     1      48.104   2.472   5.629  0.00  0.00    +0.000 OA
ATOM     17  C   UNL     1      46.702   2.704   5.421  0.00  0.00    +0.000 C 
ENDBRANCH  10  13
ENDBRANCH   8   9
ENDBRANCH   5   8
ENDBRANCH   1   2
BRANCH   1  18
ATOM     18  N   UNL     1      47.536   2.932  14.560  0.00  0.00    +0.000 NA
ATOM     19  H   UNL     1      47.332   2.351  13.747  0.00  0.00    +0.000 HD
ATOM     20  H   UNL     1      47.212   2.366  15.347  0.00  0.00    +0.000 HD
ENDBRANCH   1  18
BRANCH   1  21
ATOM     21  C   UNL     1      47.488   5.387  14.970  0.00  0.00    +0.000 C 
BRANCH  21  22
ATOM     22  N   UNL     1      48.684   5.039  15.715  0.00  0.00    +0.000 N 
ATOM     23  C   UNL     1      48.716   4.902  17.076  0.00  0.00    +0.000 C 
ATOM     24  O   UNL     1      47.719   5.049  17.774  0.00  0.00    +0.000 OA
ATOM     25  H   UNL     1      49.557   5.087  15.200  0.00  0.00    +0.000 HD
BRANCH  23  26
ATOM     26  C   UNL     1      50.015   4.540  17.648  0.00  0.00    +0.000 A 
ATOM     27  C   UNL     1      50.734   5.479  18.374  0.00  0.00    +0.000 A 
ATOM     28  S   UNL     1      52.197   4.874  19.004  0.00  0.00    +0.000 S 
ATOM     29  C   UNL     1      51.944   3.352  18.284  0.00  0.00    +0.000 A 
ATOM     30  N   UNL     1      52.856   2.352  18.420  0.00  0.00    +0.000 NA
ATOM     31  C   UNL     1      52.557   1.266  17.788  0.00  0.00    +0.000 A 
ATOM     32  N   UNL     1      51.422   1.086  17.038  0.00  0.00    +0.000 N 
ATOM     33  C   UNL     1      50.446   2.046  16.918  0.00  0.00    +0.000 A 
ATOM     34  O   UNL     1      49.394   1.816  16.330  0.00  0.00    +0.000 OA
ATOM     35  C   UNL     1      50.750   3.300  17.588  0.00  0.00    +0.000 A 
ATOM     36  H   UNL     1      51.241   0.202  16.583  0.00  0.00    +0.000 HD
ENDBRANCH  23  26
ENDBRANCH  21  22
ENDBRANCH   1  21
TORSDOF 8
ENDMDL
MODEL 3
REMARK VINA RESULT:    -7.908      2.837      3.228
REMARK INTER + INTRA:         -12.626
REMARK INTER:                 -11.541
REMARK INTRA:                  -1.086
REMARK UNBOUND:                -1.251
REMARK  Name = 
REMARK  8 active torsions:
REMARK  status: ('A' for Active; 'I' for Inactive)
REMARK    1  A    between atoms: N_1  and  C_2
REMARK    2  A    between atoms: C_2  and  C_3
REMARK    3  A    between atoms: C_2  and  C_17
REMARK    4  A    between atoms: C_3  and  N_4
REMARK    5  A    between atoms: C_5  and  C_7
REMARK    6  A    between atoms: C_20  and  C_21
REMARK    7  A    between atoms: C_21  and  N_22
REMARK    8  A    between atoms: C_23  and  C_25
REMARK                            x       y       z     vdW  Elec       q    Type
REMARK                         _______ _______ _______ _____ _____    ______ ____
ROOT
ATOM      1  C   UNL     1      46.707   4.579  14.262  0.00  0.00    +0.000 C 
ENDROOT
BRANCH   1   2
ATOM      2  C   UNL     1      46.009   4.525  12.906  0.00  0.00    +0.000 A 
ATOM      3  C   UNL     1      46.058   5.631  12.038  0.00  0.00    +0.000 A 
ATOM      4  C   UNL     1      45.427   5.608  10.793  0.00  0.00    +0.000 A 
ATOM      5  C   UNL     1      44.738   4.467  10.369  0.00  0.00    +0.000 A 
ATOM      6  C   UNL     1      44.728   3.342  11.197  0.00  0.00    +0.000 A 
ATOM      7  C   UNL     1      45.356   3.369  12.444  0.00  0.00    +0.000 A 
BRANCH   5   8
ATOM      8  C   UNL     1      44.059   4.436   9.032  0.00  0.00    +0.000 C 
BRANCH   8   9
ATOM      9  N   UNL     1      44.541   3.338   8.229  0.00  0.00    +0.000 N 
ATOM     10  C   UNL     1      45.671   3.484   7.456  0.00  0.00    +0.000 C 
ATOM     11  O   UNL     1      46.325   4.522   7.431  0.00  0.00    +0.000 OA
ATOM     12  H   UNL     1      44.110   2.431   8.348  0.00  0.00    +0.000 HD
BRANCH  10  13
ATOM     13  C   UNL     1      46.042   2.242   6.661  0.00  0.00    +0.000 C 
ATOM     14  C   UNL     1      47.120   1.415   7.330  0.00  0.00    +0.000 C 
ATOM     15  C   UNL     1      48.392   2.085   6.854  0.00  0.00    +0.000 C 
ATOM     16  O   UNL     1      48.121   2.581   5.537  0.00  0.00    +0.000 OA
ATOM     17  C   UNL     1      46.698   2.617   5.344  0.00  0.00    +0.000 C 
ENDBRANCH  10  13
ENDBRANCH   8   9
ENDBRANCH   5   8
ENDBRANCH   1   2
BRANCH   1  18
ATOM     18  N   UNL     1      47.390   3.304  14.565  0.00  0.00    +0.000 NA
ATOM     19  H   UNL     1      48.367   3.506  14.772  0.00  0.00    +0.000 HD
ATOM     20  H   UNL     1      47.435   2.758  13.701  0.00  0.00    +0.000 HD
ENDBRANCH   1  18
BRANCH   1  21
ATOM     21  C   UNL     1      47.698   5.769  14.409  0.00  0.00    +0.000 C 
BRANCH  21  22
ATOM     22  N   UNL     1      48.103   6.002  15.783  0.00  0.00    +0.000 N 
ATOM     23  C   UNL     1      49.351   6.435  16.143  0.00  0.00    +0.000 C 
ATOM     24  O   UNL     1      50.225   6.675  15.317  0.00  0.00    +0.000 OA
ATOM     25  H   UNL     1      47.477   5.645  16.497  0.00  0.00    +0.000 HD
BRANCH  23  26
ATOM     26  C   UNL     1      49.570   6.619  17.579  0.00  0.00    +0.000 A 
ATOM     27  C   UNL     1      50.188   7.772  18.039  0.00  0.00    +0.000 A 
ATOM     28  S   UNL     1      50.320   7.840  19.737  0.00  0.00    +0.000 S 
ATOM     29  C   UNL     1      49.602   6.305  19.911  0.00  0.00    +0.000 A 
ATOM     30  N   UNL     1      49.430   5.746  21.139  0.00  0.00    +0.000 NA
ATOM     31  C   UNL     1      48.914   4.563  21.121  0.00  0.00    +0.000 A 
ATOM     32  N   UNL     1      48.543   3.890  19.983  0.00  0.00    +0.000 N 
ATOM     33  C   UNL     1      48.645   4.436  18.727  0.00  0.00    +0.000 A 
ATOM     34  O   UNL     1      48.206   3.851  17.741  0.00  0.00    +0.000 OA
ATOM     35  C   UNL     1      49.251   5.757  18.691  0.00  0.00    +0.000 A 
ATOM     36  H   UNL     1      48.127   2.972  20.042  0.00  0.00    +0.000 HD
ENDBRANCH  23  26
ENDBRANCH  21  22
ENDBRANCH   1  21
TORSDOF 8
ENDMDL
MODEL 4
REMARK VINA RESULT:    -7.456      3.071      4.385
REMARK INTER + INTRA:         -11.976
REMARK INTER:                 -10.821
REMARK INTRA:                  -1.155
REMARK UNBOUND:                -1.251
REMARK  Name = 
REMARK  8 active torsions:
REMARK  status: ('A' for Active; 'I' for Inactive)
REMARK    1  A    between atoms: N_1  and  C_2
REMARK    2  A    between atoms: C_2  and  C_3
REMARK    3  A    between atoms: C_2  and  C_17
REMARK    4  A    between atoms: C_3  and  N_4
REMARK    5  A    between atoms: C_5  and  C_7
REMARK    6  A    between atoms: C_20  and  C_21
REMARK    7  A    between atoms: C_21  and  N_22
REMARK    8  A    between atoms: C_23  and  C_25
REMARK                            x       y       z     vdW  Elec       q    Type
REMARK                         _______ _______ _______ _____ _____    ______ ____
ROOT
ATOM      1  C   UNL     1      46.828   4.332  14.418  0.00  0.00    +0.000 C 
ENDROOT
BRANCH   1   2
ATOM      2  C   UNL     1      46.121   4.385  13.067  0.00  0.00    +0.000 A 
ATOM      3  C   UNL     1      46.146   5.563  12.299  0.00  0.00    +0.000 A 
ATOM      4  C   UNL     1      45.505   5.639  11.060  0.00  0.00    +0.000 A 
ATOM      5  C   UNL     1      44.831   4.528  10.543  0.00  0.00    +0.000 A 
ATOM      6  C   UNL     1      44.845   3.335  11.270  0.00  0.00    +0.000 A 
ATOM      7  C   UNL     1      45.482   3.264  12.511  0.00  0.00    +0.000 A 
BRANCH   5   8
ATOM      8  C   UNL     1      44.142   4.603   9.213  0.00  0.00    +0.000 C 
BRANCH   8   9
ATOM      9  N   UNL     1      44.530   3.502   8.365  0.00  0.00    +0.000 N 
ATOM     10  C   UNL     1      45.635   3.605   7.550  0.00  0.00    +0.000 C 
ATOM     11  O   UNL     1      46.346   4.605   7.525  0.00  0.00    +0.000 OA
ATOM     12  H   UNL     1      44.052   2.618   8.478  0.00  0.00    +0.000 HD
BRANCH  10  13
ATOM     13  C   UNL     1      45.903   2.365   6.711  0.00  0.00    +0.000 C 
ATOM     14  C   UNL     1      46.826   1.380   7.395  0.00  0.00    +0.000 C 
ATOM     15  C   UNL     1      48.198   1.906   7.033  0.00  0.00    +0.000 C 
ATOM     16  O   UNL     1      48.076   2.495   5.731  0.00  0.00    +0.000 OA
ATOM     17  C   UNL     1      46.684   2.718   5.458  0.00  0.00    +0.000 C 
ENDBRANCH  10  13
ENDBRANCH   8   9
ENDBRANCH   5   8
ENDBRANCH   1   2
BRANCH   1  18
ATOM     18  N   UNL     1      47.576   3.068  14.583  0.00  0.00    +0.000 NA
ATOM     19  H   UNL     1      48.533   3.219  14.265  0.00  0.00    +0.000 HD
ATOM     20  H   UNL     1      47.204   2.393  13.912  0.00  0.00    +0.000 HD
ENDBRANCH   1  18
BRANCH   1  21
ATOM     21  C   UNL     1      47.760   5.548  14.686  0.00  0.00    +0.000 C 
BRANCH  21  22
ATOM     22  N   UNL     1      47.831   5.910  16.090  0.00  0.00    +0.000 N 
ATOM     23  C   UNL     1      48.742   5.382  16.964  0.00  0.00    +0.000 C 
ATOM     24  O   UNL     1      49.586   4.563  16.616  0.00  0.00    +0.000 OA
ATOM     25  H   UNL     1      47.045   6.440  16.452  0.00  0.00    +0.000 HD
BRANCH  23  26
ATOM     26  C   UNL     1      48.662   5.875  18.340  0.00  0.00    +0.000 A 
ATOM     27  C   UNL     1      48.678   4.975  19.396  0.00  0.00    +0.000 A 
ATOM     28  S   UNL     1      48.626   5.725  20.926  0.00  0.00    +0.000 S 
ATOM     29  C   UNL     1      48.526   7.275  20.227  0.00  0.00    +0.000 A 
ATOM     30  N   UNL     1      48.433   8.388  21.002  0.00  0.00    +0.000 NA
ATOM     31  C   UNL     1      48.322   9.492  20.340  0.00  0.00    +0.000 A 
ATOM     32  N   UNL     1      48.305   9.583  18.971  0.00  0.00    +0.000 N 
ATOM     33  C   UNL     1      48.453   8.494  18.148  0.00  0.00    +0.000 A 
ATOM     34  O   UNL     1      48.543   8.622  16.931  0.00  0.00    +0.000 OA
ATOM     35  C   UNL     1      48.552   7.222  18.846  0.00  0.00    +0.000 A 
ATOM     36  H   UNL     1      48.234  10.483  18.517  0.00  0.00    +0.000 HD
ENDBRANCH  23  26
ENDBRANCH  21  22
ENDBRANCH   1  21
TORSDOF 8
ENDMDL
MODEL 5
REMARK VINA RESULT:    -6.962      2.828      3.903
REMARK INTER + INTRA:         -11.265
REMARK INTER:                  -9.826
REMARK INTRA:                  -1.439
REMARK UNBOUND:                -1.251
REMARK  Name = 
REMARK  8 active torsions:
REMARK  status: ('A' for Active; 'I' for Inactive)
REMARK    1  A    between atoms: N_1  and  C_2
REMARK    2  A    between atoms: C_2  and  C_3
REMARK    3  A    between atoms: C_2  and  C_17
REMARK    4  A    between atoms: C_3  and  N_4
REMARK    5  A    between atoms: C_5  and  C_7
REMARK    6  A    between atoms: C_20  and  C_21
REMARK    7  A    between atoms: C_21  and  N_22
REMARK    8  A    between atoms: C_23  and  C_25
REMARK                            x       y       z     vdW  Elec       q    Type
REMARK                         _______ _______ _______ _____ _____    ______ ____
ROOT
ATOM      1  C   UNL     1      48.393   8.466  12.633  0.00  0.00    +0.000 C 
ENDROOT
BRANCH   1   2
ATOM      2  C   UNL     1      47.137   7.683  12.263  0.00  0.00    +0.000 A 
ATOM      3  C   UNL     1      47.202   6.640  11.321  0.00  0.00    +0.000 A 
ATOM      4  C   UNL     1      46.067   5.910  10.963  0.00  0.00    +0.000 A 
ATOM      5  C   UNL     1      44.830   6.191  11.552  0.00  0.00    +0.000 A 
ATOM      6  C   UNL     1      44.761   7.187  12.529  0.00  0.00    +0.000 A 
ATOM      7  C   UNL     1      45.897   7.919  12.881  0.00  0.00    +0.000 A 
BRANCH   5   8
ATOM      8  C   UNL     1      43.607   5.410  11.172  0.00  0.00    +0.000 C 
BRANCH   8   9
ATOM      9  N   UNL     1      43.836   4.633   9.978  0.00  0.00    +0.000 N 
ATOM     10  C   UNL     1      44.217   3.313  10.067  0.00  0.00    +0.000 C 
ATOM     11  O   UNL     1      44.351   2.735  11.141  0.00  0.00    +0.000 OA
ATOM     12  H   UNL     1      43.587   5.040   9.086  0.00  0.00    +0.000 HD
BRANCH  10  13
ATOM     13  C   UNL     1      44.430   2.639   8.721  0.00  0.00    +0.000 C 
ATOM     14  C   UNL     1      45.804   2.018   8.584  0.00  0.00    +0.000 C 
ATOM     15  C   UNL     1      46.649   3.185   8.121  0.00  0.00    +0.000 C 
ATOM     16  O   UNL     1      45.793   4.015   7.325  0.00  0.00    +0.000 OA
ATOM     17  C   UNL     1      44.428   3.660   7.598  0.00  0.00    +0.000 C 
ENDBRANCH  10  13
ENDBRANCH   8   9
ENDBRANCH   5   8
ENDBRANCH   1   2
BRANCH   1  18
ATOM     18  N   UNL     1      48.687   9.514  11.633  0.00  0.00    +0.000 NA
ATOM     19  H   UNL     1      48.870  10.386  12.128  0.00  0.00    +0.000 HD
ATOM     20  H   UNL     1      47.825   9.706  11.117  0.00  0.00    +0.000 HD
ENDBRANCH   1  18
BRANCH   1  21
ATOM     21  C   UNL     1      48.349   9.082  14.062  0.00  0.00    +0.000 C 
BRANCH  21  22
ATOM     22  N   UNL     1      48.418   8.082  15.112  0.00  0.00    +0.000 N 
ATOM     23  C   UNL     1      49.566   7.421  15.454  0.00  0.00    +0.000 C 
ATOM     24  O   UNL     1      50.639   7.638  14.901  0.00  0.00    +0.000 OA
ATOM     25  H   UNL     1      47.528   7.747  15.465  0.00  0.00    +0.000 HD
BRANCH  23  26
ATOM     26  C   UNL     1      49.440   6.452  16.544  0.00  0.00    +0.000 A 
ATOM     27  C   UNL     1      50.200   6.605  17.695  0.00  0.00    +0.000 A 
ATOM     28  S   UNL     1      49.891   5.415  18.876  0.00  0.00    +0.000 S 
ATOM     29  C   UNL     1      48.769   4.624  17.868  0.00  0.00    +0.000 A 
ATOM     30  N   UNL     1      48.136   3.492  18.276  0.00  0.00    +0.000 NA
ATOM     31  C   UNL     1      47.345   2.975  17.397  0.00  0.00    +0.000 A 
ATOM     32  N   UNL     1      47.122   3.493  16.146  0.00  0.00    +0.000 N 
ATOM     33  C   UNL     1      47.695   4.663  15.710  0.00  0.00    +0.000 A 
ATOM     34  O   UNL     1      47.391   5.156  14.628  0.00  0.00    +0.000 OA
ATOM     35  C   UNL     1      48.619   5.270  16.654  0.00  0.00    +0.000 A 
ATOM     36  H   UNL     1      46.475   3.046  15.512  0.00  0.00    +0.000 HD
ENDBRANCH  23  26
ENDBRANCH  21  22
ENDBRANCH   1  21
TORSDOF 8
ENDMDL
MODEL 6
REMARK VINA RESULT:    -6.800      4.411      5.277
REMARK INTER + INTRA:         -11.033
REMARK INTER:                  -9.943
REMARK INTRA:                  -1.090
REMARK UNBOUND:                -1.251
REMARK  Name = 
REMARK  8 active torsions:
REMARK  status: ('A' for Active; 'I' for Inactive)
REMARK    1  A    between atoms: N_1  and  C_2
REMARK    2  A    between atoms: C_2  and  C_3
REMARK    3  A    between atoms: C_2  and  C_17
REMARK    4  A    between atoms: C_3  and  N_4
REMARK    5  A    between atoms: C_5  and  C_7
REMARK    6  A    between atoms: C_20  and  C_21
REMARK    7  A    between atoms: C_21  and  N_22
REMARK    8  A    between atoms: C_23  and  C_25
REMARK                            x       y       z     vdW  Elec       q    Type
REMARK                         _______ _______ _______ _____ _____    ______ ____
ROOT
ATOM      1  C   UNL     1      47.997   6.887  13.884  0.00  0.00    +0.000 C 
ENDROOT
BRANCH   1   2
ATOM      2  C   UNL     1      47.042   6.157  12.944  0.00  0.00    +0.000 A 
ATOM      3  C   UNL     1      46.405   4.973  13.358  0.00  0.00    +0.000 A 
ATOM      4  C   UNL     1      45.528   4.285  12.518  0.00  0.00    +0.000 A 
ATOM      5  C   UNL     1      45.248   4.771  11.237  0.00  0.00    +0.000 A 
ATOM      6  C   UNL     1      45.831   5.974  10.832  0.00  0.00    +0.000 A 
ATOM      7  C   UNL     1      46.711   6.658  11.674  0.00  0.00    +0.000 A 
BRANCH   5   8
ATOM      8  C   UNL     1      44.306   4.036  10.329  0.00  0.00    +0.000 C 
BRANCH   8   9
ATOM      9  N   UNL     1      44.820   3.981   8.982  0.00  0.00    +0.000 N 
ATOM     10  C   UNL     1      45.212   2.780   8.434  0.00  0.00    +0.000 C 
ATOM     11  O   UNL     1      45.121   1.717   9.039  0.00  0.00    +0.000 OA
ATOM     12  H   UNL     1      44.763   4.815   8.413  0.00  0.00    +0.000 HD
BRANCH  10  13
ATOM     13  C   UNL     1      45.741   2.893   7.012  0.00  0.00    +0.000 C 
ATOM     14  C   UNL     1      46.413   1.624   6.532  0.00  0.00    +0.000 C 
ATOM     15  C   UNL     1      47.824   1.778   7.058  0.00  0.00    +0.000 C 
ATOM     16  O   UNL     1      48.111   3.183   7.044  0.00  0.00    +0.000 OA
ATOM     17  C   UNL     1      46.873   3.902   6.934  0.00  0.00    +0.000 C 
ENDBRANCH  10  13
ENDBRANCH   8   9
ENDBRANCH   5   8
ENDBRANCH   1   2
BRANCH   1  18
ATOM     18  N   UNL     1      49.403   6.712  13.462  0.00  0.00    +0.000 NA
ATOM     19  H   UNL     1      49.974   7.393  13.960  0.00  0.00    +0.000 HD
ATOM     20  H   UNL     1      49.477   7.004  12.485  0.00  0.00    +0.000 HD
ENDBRANCH   1  18
BRANCH   1  21
ATOM     21  C   UNL     1      47.671   8.398  14.058  0.00  0.00    +0.000 C 
BRANCH  21  22
ATOM     22  N   UNL     1      47.482   8.781  15.445  0.00  0.00    +0.000 N 
ATOM     23  C   UNL     1      48.369   9.551  16.146  0.00  0.00    +0.000 C 
ATOM     24  O   UNL     1      49.397   9.992  15.643  0.00  0.00    +0.000 OA
ATOM     25  H   UNL     1      46.746   8.292  15.944  0.00  0.00    +0.000 HD
BRANCH  23  26
ATOM     26  C   UNL     1      48.002   9.838  17.534  0.00  0.00    +0.000 A 
ATOM     27  C   UNL     1      47.761  11.147  17.927  0.00  0.00    +0.000 A 
ATOM     28  S   UNL     1      47.302  11.291  19.562  0.00  0.00    +0.000 S 
ATOM     29  C   UNL     1      47.461   9.614  19.814  0.00  0.00    +0.000 A 
ATOM     30  N   UNL     1      47.226   9.063  21.035  0.00  0.00    +0.000 NA
ATOM     31  C   UNL     1      47.426   7.789  21.093  0.00  0.00    +0.000 A 
ATOM     32  N   UNL     1      47.830   7.012  20.037  0.00  0.00    +0.000 N 
ATOM     33  C   UNL     1      48.024   7.513  18.773  0.00  0.00    +0.000 A 
ATOM     34  O   UNL     1      48.280   6.775  17.827  0.00  0.00    +0.000 OA
ATOM     35  C   UNL     1      47.841   8.951  18.661  0.00  0.00    +0.000 A 
ATOM     36  H   UNL     1      47.949   6.015  20.148  0.00  0.00    +0.000 HD
ENDBRANCH  23  26
ENDBRANCH  21  22
ENDBRANCH   1  21
TORSDOF 8
ENDMDL
MODEL 7
REMARK VINA RESULT:    -6.789      3.297      4.355
REMARK INTER + INTRA:         -11.016
REMARK INTER:                  -9.154
REMARK INTRA:                  -1.863
REMARK UNBOUND:                -1.251
REMARK  Name = 
REMARK  8 active torsions:
REMARK  status: ('A' for Active; 'I' for Inactive)
REMARK    1  A    between atoms: N_1  and  C_2
REMARK    2  A    between atoms: C_2  and  C_3
REMARK    3  A    between atoms: C_2  and  C_17
REMARK    4  A    between atoms: C_3  and  N_4
REMARK    5  A    between atoms: C_5  and  C_7
REMARK    6  A    between atoms: C_20  and  C_21
REMARK    7  A    between atoms: C_21  and  N_22
REMARK    8  A    between atoms: C_23  and  C_25
REMARK                            x       y       z     vdW  Elec       q    Type
REMARK                         _______ _______ _______ _____ _____    ______ ____
ROOT
ATOM      1  C   UNL     1      50.051   7.959  13.088  0.00  0.00    +0.000 C 
ENDROOT
BRANCH   1   2
ATOM      2  C   UNL     1      48.567   7.906  12.734  0.00  0.00    +0.000 A 
ATOM      3  C   UNL     1      48.039   6.796  12.051  0.00  0.00    +0.000 A 
ATOM      4  C   UNL     1      46.686   6.723  11.714  0.00  0.00    +0.000 A 
ATOM      5  C   UNL     1      45.813   7.757  12.066  0.00  0.00    +0.000 A 
ATOM      6  C   UNL     1      46.313   8.841  12.793  0.00  0.00    +0.000 A 
ATOM      7  C   UNL     1      47.668   8.913  13.124  0.00  0.00    +0.000 A 
BRANCH   5   8
ATOM      8  C   UNL     1      44.358   7.686  11.708  0.00  0.00    +0.000 C 
BRANCH   8   9
ATOM      9  N   UNL     1      44.003   6.368  11.238  0.00  0.00    +0.000 N 
ATOM     10  C   UNL     1      43.378   5.474  12.078  0.00  0.00    +0.000 C 
ATOM     11  O   UNL     1      43.074   5.754  13.233  0.00  0.00    +0.000 OA
ATOM     12  H   UNL     1      44.105   6.167  10.252  0.00  0.00    +0.000 HD
BRANCH  10  13
ATOM     13  C   UNL     1      43.082   4.127  11.437  0.00  0.00    +0.000 C 
ATOM     14  C   UNL     1      43.651   2.964  12.222  0.00  0.00    +0.000 C 
ATOM     15  C   UNL     1      45.072   2.882  11.709  0.00  0.00    +0.000 C 
ATOM     16  O   UNL     1      45.034   3.299  10.338  0.00  0.00    +0.000 OA
ATOM     17  C   UNL     1      43.798   3.993  10.105  0.00  0.00    +0.000 C 
ENDBRANCH  10  13
ENDBRANCH   8   9
ENDBRANCH   5   8
ENDBRANCH   1   2
BRANCH   1  18
ATOM     18  N   UNL     1      50.812   8.744  12.093  0.00  0.00    +0.000 NA
ATOM     19  H   UNL     1      51.288   9.502  12.581  0.00  0.00    +0.000 HD
ATOM     20  H   UNL     1      50.140   9.229  11.495  0.00  0.00    +0.000 HD
ENDBRANCH   1  18
BRANCH   1  21
ATOM     21  C   UNL     1      50.334   8.488  14.523  0.00  0.00    +0.000 C 
BRANCH  21  22
ATOM     22  N   UNL     1      50.016   7.521  15.557  0.00  0.00    +0.000 N 
ATOM     23  C   UNL     1      49.089   7.738  16.540  0.00  0.00    +0.000 C 
ATOM     24  O   UNL     1      48.440   8.776  16.611  0.00  0.00    +0.000 OA
ATOM     25  H   UNL     1      50.652   6.734  15.640  0.00  0.00    +0.000 HD
BRANCH  23  26
ATOM     26  C   UNL     1      48.901   6.641  17.490  0.00  0.00    +0.000 A 
ATOM     27  C   UNL     1      49.279   6.804  18.815  0.00  0.00    +0.000 A 
ATOM     28  S   UNL     1      48.946   5.445  19.789  0.00  0.00    +0.000 S 
ATOM     29  C   UNL     1      48.333   4.573  18.460  0.00  0.00    +0.000 A 
ATOM     30  N   UNL     1      47.884   3.298  18.606  0.00  0.00    +0.000 NA
ATOM     31  C   UNL     1      47.487   2.742  17.511  0.00  0.00    +0.000 A 
ATOM     32  N   UNL     1      47.489   3.351  16.281  0.00  0.00    +0.000 N 
ATOM     33  C   UNL     1      47.880   4.654  16.094  0.00  0.00    +0.000 A 
ATOM     34  O   UNL     1      47.769   5.203  15.001  0.00  0.00    +0.000 OA
ATOM     35  C   UNL     1      48.365   5.315  17.295  0.00  0.00    +0.000 A 
ATOM     36  H   UNL     1      47.147   2.863  15.465  0.00  0.00    +0.000 HD
ENDBRANCH  23  26
ENDBRANCH  21  22
ENDBRANCH   1  21
TORSDOF 8
ENDMDL
MODEL 8
REMARK VINA RESULT:    -6.568      3.555      9.967
REMARK INTER + INTRA:         -10.699
REMARK INTER:                  -9.585
REMARK INTRA:                  -1.114
REMARK UNBOUND:                -1.251
REMARK  Name = 
REMARK  8 active torsions:
REMARK  status: ('A' for Active; 'I' for Inactive)
REMARK    1  A    between atoms: N_1  and  C_2
REMARK    2  A    between atoms: C_2  and  C_3
REMARK    3  A    between atoms: C_2  and  C_17
REMARK    4  A    between atoms: C_3  and  N_4
REMARK    5  A    between atoms: C_5  and  C_7
REMARK    6  A    between atoms: C_20  and  C_21
REMARK    7  A    between atoms: C_21  and  N_22
REMARK    8  A    between atoms: C_23  and  C_25
REMARK                            x       y       z     vdW  Elec       q    Type
REMARK                         _______ _______ _______ _____ _____    ______ ____
ROOT
ATOM      1  C   UNL     1      48.382   4.723  16.907  0.00  0.00    +0.000 C 
ENDROOT
BRANCH   1   2
ATOM      2  C   UNL     1      49.645   4.498  17.735  0.00  0.00    +0.000 A 
ATOM      3  C   UNL     1      50.525   3.447  17.416  0.00  0.00    +0.000 A 
ATOM      4  C   UNL     1      51.685   3.219  18.158  0.00  0.00    +0.000 A 
ATOM      5  C   UNL     1      52.010   4.047  19.236  0.00  0.00    +0.000 A 
ATOM      6  C   UNL     1      51.174   5.128  19.530  0.00  0.00    +0.000 A 
ATOM      7  C   UNL     1      50.012   5.351  18.789  0.00  0.00    +0.000 A 
BRANCH   5   8
ATOM      8  C   UNL     1      53.256   3.808  20.037  0.00  0.00    +0.000 C 
BRANCH   8   9
ATOM      9  N   UNL     1      53.910   2.588  19.628  0.00  0.00    +0.000 N 
ATOM     10  C   UNL     1      55.016   2.631  18.808  0.00  0.00    +0.000 C 
ATOM     11  O   UNL     1      55.506   3.685  18.416  0.00  0.00    +0.000 OA
ATOM     12  H   UNL     1      53.619   1.720  20.058  0.00  0.00    +0.000 HD
BRANCH  10  13
ATOM     13  C   UNL     1      55.580   1.263  18.459  0.00  0.00    +0.000 C 
ATOM     14  C   UNL     1      55.211   0.813  17.062  0.00  0.00    +0.000 C 
ATOM     15  C   UNL     1      53.848   0.186  17.266  0.00  0.00    +0.000 C 
ATOM     16  O   UNL     1      53.858  -0.386  18.581  0.00  0.00    +0.000 OA
ATOM     17  C   UNL     1      54.950   0.182  19.319  0.00  0.00    +0.000 C 
ENDBRANCH  10  13
ENDBRANCH   8   9
ENDBRANCH   5   8
ENDBRANCH   1   2
BRANCH   1  18
ATOM     18  N   UNL     1      47.215   4.990  17.773  0.00  0.00    +0.000 NA
ATOM     19  H   UNL     1      46.505   4.284  17.579  0.00  0.00    +0.000 HD
ATOM     20  H   UNL     1      46.781   5.860  17.456  0.00  0.00    +0.000 HD
ENDBRANCH   1  18
BRANCH   1  21
ATOM     21  C   UNL     1      48.527   5.843  15.837  0.00  0.00    +0.000 C 
BRANCH  21  22
ATOM     22  N   UNL     1      47.427   5.866  14.890  0.00  0.00    +0.000 N 
ATOM     23  C   UNL     1      47.590   6.054  13.544  0.00  0.00    +0.000 C 
ATOM     24  O   UNL     1      48.694   6.204  13.031  0.00  0.00    +0.000 OA
ATOM     25  H   UNL     1      46.497   5.928  15.291  0.00  0.00    +0.000 HD
BRANCH  23  26
ATOM     26  C   UNL     1      46.362   6.040  12.748  0.00  0.00    +0.000 A 
ATOM     27  C   UNL     1      45.880   7.222  12.203  0.00  0.00    +0.000 A 
ATOM     28  S   UNL     1      44.470   7.013  11.268  0.00  0.00    +0.000 S 
ATOM     29  C   UNL     1      44.426   5.343  11.604  0.00  0.00    +0.000 A 
ATOM     30  N   UNL     1      43.434   4.555  11.110  0.00  0.00    +0.000 NA
ATOM     31  C   UNL     1      43.501   3.319  11.478  0.00  0.00    +0.000 A 
ATOM     32  N   UNL     1      44.477   2.797  12.288  0.00  0.00    +0.000 N 
ATOM     33  C   UNL     1      45.529   3.541  12.764  0.00  0.00    +0.000 A 
ATOM     34  O   UNL     1      46.444   3.020  13.397  0.00  0.00    +0.000 OA
ATOM     35  C   UNL     1      45.483   4.948  12.402  0.00  0.00    +0.000 A 
ATOM     36  H   UNL     1      44.480   1.814  12.522  0.00  0.00    +0.000 HD
ENDBRANCH  23  26
ENDBRANCH  21  22
ENDBRANCH   1  21
TORSDOF 8
ENDMDL
MODEL 9
REMARK VINA RESULT:    -5.824      3.934      6.133
REMARK INTER + INTRA:          -9.629
REMARK INTER:                  -8.166
REMARK INTRA:                  -1.463
REMARK UNBOUND:                -1.251
REMARK  Name = 
REMARK  8 active torsions:
REMARK  status: ('A' for Active; 'I' for Inactive)
REMARK    1  A    between atoms: N_1  and  C_2
REMARK    2  A    between atoms: C_2  and  C_3
REMARK    3  A    between atoms: C_2  and  C_17
REMARK    4  A    between atoms: C_3  and  N_4
REMARK    5  A    between atoms: C_5  and  C_7
REMARK    6  A    between atoms: C_20  and  C_21
REMARK    7  A    between atoms: C_21  and  N_22
REMARK    8  A    between atoms: C_23  and  C_25
REMARK                            x       y       z     vdW  Elec       q    Type
REMARK                         _______ _______ _______ _____ _____    ______ ____
ROOT
ATOM      1  C   UNL     1      44.890   5.538  11.877  0.00  0.00    +0.000 C 
ENDROOT
BRANCH   1   2
ATOM      2  C   UNL     1      45.705   6.822  11.997  0.00  0.00    +0.000 A 
ATOM      3  C   UNL     1      47.078   6.822  11.690  0.00  0.00    +0.000 A 
ATOM      4  C   UNL     1      47.847   7.983  11.793  0.00  0.00    +0.000 A 
ATOM      5  C   UNL     1      47.261   9.188  12.192  0.00  0.00    +0.000 A 
ATOM      6  C   UNL     1      45.887   9.215  12.447  0.00  0.00    +0.000 A 
ATOM      7  C   UNL     1      45.121   8.051  12.347  0.00  0.00    +0.000 A 
BRANCH   5   8
ATOM      8  C   UNL     1      48.081  10.439  12.304  0.00  0.00    +0.000 C 
BRANCH   8   9
ATOM      9  N   UNL     1      49.492  10.141  12.247  0.00  0.00    +0.000 N 
ATOM     10  C   UNL     1      50.288  10.717  11.282  0.00  0.00    +0.000 C 
ATOM     11  O   UNL     1      49.853  11.516  10.458  0.00  0.00    +0.000 OA
ATOM     12  H   UNL     1      49.901   9.608  13.003  0.00  0.00    +0.000 HD
BRANCH  10  13
ATOM     13  C   UNL     1      51.747  10.293  11.349  0.00  0.00    +0.000 C 
ATOM     14  C   UNL     1      52.172   9.457  10.161  0.00  0.00    +0.000 C 
ATOM     15  C   UNL     1      51.759   8.061  10.574  0.00  0.00    +0.000 C 
ATOM     16  O   UNL     1      51.901   8.001  11.999  0.00  0.00    +0.000 OA
ATOM     17  C   UNL     1      51.981   9.342  12.508  0.00  0.00    +0.000 C 
ENDBRANCH  10  13
ENDBRANCH   8   9
ENDBRANCH   5   8
ENDBRANCH   1   2
BRANCH   1  18
ATOM     18  N   UNL     1      45.235   4.796  10.646  0.00  0.00    +0.000 NA
ATOM     19  H   UNL     1      44.377   4.632  10.120  0.00  0.00    +0.000 HD
ATOM     20  H   UNL     1      45.533   3.857  10.918  0.00  0.00    +0.000 HD
ENDBRANCH   1  18
BRANCH   1  21
ATOM     21  C   UNL     1      45.003   4.606  13.118  0.00  0.00    +0.000 C 
BRANCH  21  22
ATOM     22  N   UNL     1      45.910   5.117  14.129  0.00  0.00    +0.000 N 
ATOM     23  C   UNL     1      47.009   4.435  14.575  0.00  0.00    +0.000 C 
ATOM     24  O   UNL     1      47.321   3.333  14.137  0.00  0.00    +0.000 OA
ATOM     25  H   UNL     1      45.590   5.933  14.641  0.00  0.00    +0.000 HD
BRANCH  23  26
ATOM     26  C   UNL     1      47.808   5.116  15.596  0.00  0.00    +0.000 A 
ATOM     27  C   UNL     1      48.542   6.244  15.257  0.00  0.00    +0.000 A 
ATOM     28  S   UNL     1      49.373   6.934  16.576  0.00  0.00    +0.000 S 
ATOM     29  C   UNL     1      48.823   5.717  17.633  0.00  0.00    +0.000 A 
ATOM     30  N   UNL     1      49.192   5.705  18.941  0.00  0.00    +0.000 NA
ATOM     31  C   UNL     1      48.736   4.704  19.617  0.00  0.00    +0.000 A 
ATOM     32  N   UNL     1      47.935   3.716  19.103  0.00  0.00    +0.000 N 
ATOM     33  C   UNL     1      47.490   3.715  17.804  0.00  0.00    +0.000 A 
ATOM     34  O   UNL     1      46.687   2.876  17.405  0.00  0.00    +0.000 OA
ATOM     35  C   UNL     1      48.001   4.808  16.992  0.00  0.00    +0.000 A 
ATOM     36  H   UNL     1      47.598   2.968  19.694  0.00  0.00    +0.000 HD
ENDBRANCH  23  26
ENDBRANCH  21  22
ENDBRANCH   1  21
TORSDOF 8
ENDMDL
