MODEL 1
REMARK VINA RESULT:    -7.953      0.000      0.000
REMARK INTER + INTRA:         -13.438
REMARK INTER:                 -12.370
REMARK INTRA:                  -1.068
REMARK UNBOUND:                -1.068
REMARK  Name = 
REMARK  10 active torsions:
REMARK  status: ('A' for Active; 'I' for Inactive)
REMARK    1  A    between atoms: N_1  and  C_2
REMARK    2  A    between atoms: C_2  and  C_3
REMARK    3  A    between atoms: C_3  and  N_4
REMARK    4  A    between atoms: N_4  and  C_5
REMARK    5  A    between atoms: C_5  and  C_6
REMARK    6  A    between atoms: C_8  and  C_9
REMARK    7  A    between atoms: C_9  and  N_10
REMARK    8  A    between atoms: C_11  and  C_13
REMARK    9  A    between atoms: C_25  and  C_26
REMARK   10  A    between atoms: C_26  and  N_27
REMARK                            x       y       z     vdW  Elec       q    Type
REMARK                         _______ _______ _______ _____ _____    ______ ____
ROOT
ATOM      1  C   UNL     1      44.962   5.874  11.769  0.00  0.00    +0.000 A 
ATOM      2  C   UNL     1      46.131   6.389  12.385  0.00  0.00    +0.000 A 
ATOM      3  C   UNL     1      46.943   5.613  13.224  0.00  0.00    +0.000 A 
ATOM      4  C   UNL     1      46.561   4.300  13.485  0.00  0.00    +0.000 A 
ATOM      5  C   UNL     1      45.450   3.753  12.847  0.00  0.00    +0.000 A 
ATOM      6  C   UNL     1      44.649   4.507  11.957  0.00  0.00    +0.000 A 
ENDROOT
BRANCH   1   7
ATOM      7  C   UNL     1      44.191   6.869  10.914  0.00  0.00    +0.000 C 
BRANCH   7   8
ATOM      8  N   UNL     1      43.768   8.129  11.533  0.00  0.00    +0.000 NA
ATOM      9  H   UNL     1      42.765   8.033  11.722  0.00  0.00    +0.000 HD
BRANCH   8  10
ATOM     10  C   UNL     1      43.910   9.306  10.667  0.00  0.00    +0.000 C 
BRANCH  10  11
ATOM     11  C   UNL     1      42.604  10.064  10.367  0.00  0.00    +0.000 C 
BRANCH  11  12
ATOM     12  N   UNL     1      41.457   9.484  11.072  0.00  0.00    +0.000 NA
ATOM     13  H   UNL     1      41.726   9.288  12.035  0.00  0.00    +0.000 HD
ATOM     14  H   UNL     1      41.233   8.580  10.653  0.00  0.00    +0.000 HD
ENDBRANCH  11  12
ENDBRANCH  10  11
ENDBRANCH   8  10
ENDBRANCH   7   8
ENDBRANCH   1   7
BRANCH   3  15
ATOM     15  C   UNL     1      48.183   6.178  13.857  0.00  0.00    +0.000 C 
BRANCH  15  16
ATOM     16  N   UNL     1      48.011   6.367  15.271  0.00  0.00    +0.000 N 
ATOM     17  C   UNL     1      49.065   6.442  16.151  0.00  0.00    +0.000 C 
ATOM     18  O   UNL     1      50.230   6.371  15.780  0.00  0.00    +0.000 OA
ATOM     19  H   UNL     1      47.079   6.213  15.638  0.00  0.00    +0.000 HD
BRANCH  17  20
ATOM     20  C   UNL     1      48.716   6.707  17.554  0.00  0.00    +0.000 A 
ATOM     21  C   UNL     1      48.397   7.997  17.940  0.00  0.00    +0.000 A 
ATOM     22  S   UNL     1      47.953   8.127  19.579  0.00  0.00    +0.000 S 
ATOM     23  C   UNL     1      48.223   6.470  19.838  0.00  0.00    +0.000 A 
ATOM     24  N   UNL     1      48.037   5.914  21.065  0.00  0.00    +0.000 NA
ATOM     25  C   UNL     1      48.311   4.653  21.130  0.00  0.00    +0.000 A 
ATOM     26  N   UNL     1      48.752   3.895  20.076  0.00  0.00    +0.000 N 
ATOM     27  C   UNL     1      48.899   4.398  18.809  0.00  0.00    +0.000 A 
ATOM     28  O   UNL     1      49.201   3.666  17.868  0.00  0.00    +0.000 OA
ATOM     29  C   UNL     1      48.629   5.821  18.686  0.00  0.00    +0.000 A 
ATOM     30  H   UNL     1      48.929   2.908  20.190  0.00  0.00    +0.000 HD
ENDBRANCH  17  20
ENDBRANCH  15  16
ENDBRANCH   3  15
BRANCH   6  31
ATOM     31  C   UNL     1      43.540   3.744  11.248  0.00  0.00    +0.000 C 
BRANCH  31  32
ATOM     32  N   UNL     1      44.093   2.560  10.624  0.00  0.00    +0.000 N 
ATOM     33  C   UNL     1      44.806   2.694   9.454  0.00  0.00    +0.000 A 
ATOM     34  N   UNL     1      44.650   3.772   8.666  0.00  0.00    +0.000 NA
ATOM     35  C   UNL     1      45.356   3.796   7.508  0.00  0.00    +0.000 A 
ATOM     36  C   UNL     1      46.198   2.788   7.105  0.00  0.00    +0.000 A 
ATOM     37 CL   UNL     1      47.075   2.850   5.640  0.00  0.00    +0.000 Cl
ATOM     38  C   UNL     1      46.283   1.729   7.972  0.00  0.00    +0.000 A 
ATOM     39  N   UNL     1      45.612   1.665   9.145  0.00  0.00    +0.000 NA
ATOM     40  H   UNL     1      44.529   1.878  11.230  0.00  0.00    +0.000 HD
ENDBRANCH  31  32
ENDBRANCH   6  31
TORSDOF 10
ENDMDL
MODEL 2
REMARK VINA RESULT:    -7.794      2.332      3.246
REMARK INTER + INTRA:         -13.190
REMARK INTER:                 -11.166
REMARK INTRA:                  -2.024
REMARK UNBOUND:                -1.068
REMARK  Name = 
REMARK  10 active torsions:
REMARK  status: ('A' for Active; 'I' for Inactive)
REMARK    1  A    between atoms: N_1  and  C_2
REMARK    2  A    between atoms: C_2  and  C_3
REMARK    3  A    between atoms: C_3  and  N_4
REMARK    4  A    between atoms: N_4  and  C_5
REMARK    5  A    between atoms: C_5  and  C_6
REMARK    6  A    between atoms: C_8  and  C_9
REMARK    7  A    between atoms: C_9  and  N_10
REMARK    8  A    between atoms: C_11  and  C_13
REMARK    9  A    between atoms: C_25  and  C_26
REMARK   10  A    between atoms: C_26  and  N_27
REMARK                            x       y       z     vdW  Elec       q    Type
REMARK                         _______ _______ _______ _____ _____    ______ ____
ROOT
ATOM      1  C   UNL     1      44.528   6.566  11.710  0.00  0.00    +0.000 A 
ATOM      2  C   UNL     1      45.204   7.320  12.703  0.00  0.00    +0.000 A 
ATOM      3  C   UNL     1      46.594   7.504  12.692  0.00  0.00    +0.000 A 
ATOM      4  C   UNL     1      47.334   6.889  11.686  0.00  0.00    +0.000 A 
ATOM      5  C   UNL     1      46.690   6.191  10.667  0.00  0.00    +0.000 A 
ATOM      6  C   UNL     1      45.284   6.040  10.634  0.00  0.00    +0.000 A 
ENDROOT
BRANCH   1   7
ATOM      7  C   UNL     1      43.023   6.452  11.898  0.00  0.00    +0.000 C 
BRANCH   7   8
ATOM      8  N   UNL     1      42.446   5.114  12.057  0.00  0.00    +0.000 NA
ATOM      9  H   UNL     1      41.527   5.247  12.490  0.00  0.00    +0.000 HD
BRANCH   8  10
ATOM     10  C   UNL     1      43.198   4.234  12.961  0.00  0.00    +0.000 C 
BRANCH  10  11
ATOM     11  C   UNL     1      43.694   2.916  12.338  0.00  0.00    +0.000 C 
BRANCH  11  12
ATOM     12  N   UNL     1      45.157   2.817  12.356  0.00  0.00    +0.000 NA
ATOM     13  H   UNL     1      45.479   2.870  13.321  0.00  0.00    +0.000 HD
ATOM     14  H   UNL     1      45.550   3.631  11.882  0.00  0.00    +0.000 HD
ENDBRANCH  11  12
ENDBRANCH  10  11
ENDBRANCH   8  10
ENDBRANCH   7   8
ENDBRANCH   1   7
BRANCH   3  15
ATOM     15  C   UNL     1      47.286   8.317  13.749  0.00  0.00    +0.000 C 
BRANCH  15  16
ATOM     16  N   UNL     1      47.674   7.503  14.867  0.00  0.00    +0.000 N 
ATOM     17  C   UNL     1      48.918   6.927  14.979  0.00  0.00    +0.000 C 
ATOM     18  O   UNL     1      49.789   7.088  14.133  0.00  0.00    +0.000 OA
ATOM     19  H   UNL     1      46.928   7.172  15.467  0.00  0.00    +0.000 HD
BRANCH  17  20
ATOM     20  C   UNL     1      49.175   6.181  16.219  0.00  0.00    +0.000 A 
ATOM     21  C   UNL     1      50.189   6.601  17.063  0.00  0.00    +0.000 A 
ATOM     22  S   UNL     1      50.316   5.675  18.487  0.00  0.00    +0.000 S 
ATOM     23  C   UNL     1      49.052   4.651  17.997  0.00  0.00    +0.000 A 
ATOM     24  N   UNL     1      48.655   3.608  18.774  0.00  0.00    +0.000 NA
ATOM     25  C   UNL     1      47.708   2.891  18.266  0.00  0.00    +0.000 A 
ATOM     26  N   UNL     1      47.119   3.123  17.050  0.00  0.00    +0.000 N 
ATOM     27  C   UNL     1      47.445   4.195  16.259  0.00  0.00    +0.000 A 
ATOM     28  O   UNL     1      46.828   4.427  15.221  0.00  0.00    +0.000 OA
ATOM     29  C   UNL     1      48.527   5.020  16.771  0.00  0.00    +0.000 A 
ATOM     30  H   UNL     1      46.368   2.535  16.721  0.00  0.00    +0.000 HD
ENDBRANCH  17  20
ENDBRANCH  15  16
ENDBRANCH   3  15
BRANCH   6  31
ATOM     31  C   UNL     1      44.714   5.353   9.402  0.00  0.00    +0.000 C 
BRANCH  31  32
ATOM     32  N   UNL     1      45.801   4.916   8.550  0.00  0.00    +0.000 N 
ATOM     33  C   UNL     1      45.940   3.572   8.286  0.00  0.00    +0.000 A 
ATOM     34  N   UNL     1      45.400   2.645   9.095  0.00  0.00    +0.000 NA
ATOM     35  C   UNL     1      45.630   1.345   8.783  0.00  0.00    +0.000 A 
ATOM     36  C   UNL     1      46.382   0.939   7.708  0.00  0.00    +0.000 A 
ATOM     37 CL   UNL     1      46.652  -0.708   7.341  0.00  0.00    +0.000 Cl
ATOM     38  C   UNL     1      46.897   1.958   6.948  0.00  0.00    +0.000 A 
ATOM     39  N   UNL     1      46.684   3.268   7.208  0.00  0.00    +0.000 NA
ATOM     40  H   UNL     1      45.990   5.463   7.722  0.00  0.00    +0.000 HD
ENDBRANCH  31  32
ENDBRANCH   6  31
TORSDOF 10
ENDMDL
MODEL 3
REMARK VINA RESULT:    -7.765      1.420      2.130
REMARK INTER + INTRA:         -13.146
REMARK INTER:                 -11.962
REMARK INTRA:                  -1.183
REMARK UNBOUND:                -1.068
REMARK  Name = 
REMARK  10 active torsions:
REMARK  status: ('A' for Active; 'I' for Inactive)
REMARK    1  A    between atoms: N_1  and  C_2
REMARK    2  A    between atoms: C_2  and  C_3
REMARK    3  A    between atoms: C_3  and  N_4
REMARK    4  A    between atoms: N_4  and  C_5
REMARK    5  A    between atoms: C_5  and  C_6
REMARK    6  A    between atoms: C_8  and  C_9
REMARK    7  A    between atoms: C_9  and  N_10
REMARK    8  A    between atoms: C_11  and  C_13
REMARK    9  A    between atoms: C_25  and  C_26
REMARK   10  A    between atoms: C_26  and  N_27
REMARK                            x       y       z     vdW  Elec       q    Type
REMARK                         _______ _______ _______ _____ _____    ______ ____
ROOT
ATOM      1  C   UNL     1      44.901   5.822  12.091  0.00  0.00    +0.000 A 
ATOM      2  C   UNL     1      46.046   6.301  12.779  0.00  0.00    +0.000 A 
ATOM      3  C   UNL     1      46.916   5.449  13.473  0.00  0.00    +0.000 A 
ATOM      4  C   UNL     1      46.619   4.090  13.515  0.00  0.00    +0.000 A 
ATOM      5  C   UNL     1      45.534   3.587  12.800  0.00  0.00    +0.000 A 
ATOM      6  C   UNL     1      44.676   4.425  12.051  0.00  0.00    +0.000 A 
ENDROOT
BRANCH   1   7
ATOM      7  C   UNL     1      44.058   6.894  11.417  0.00  0.00    +0.000 C 
BRANCH   7   8
ATOM      8  N   UNL     1      44.348   8.297  11.728  0.00  0.00    +0.000 NA
ATOM      9  H   UNL     1      43.884   8.495  12.620  0.00  0.00    +0.000 HD
BRANCH   8  10
ATOM     10  C   UNL     1      43.799   9.257  10.762  0.00  0.00    +0.000 C 
BRANCH  10  11
ATOM     11  C   UNL     1      43.686  10.708  11.265  0.00  0.00    +0.000 C 
BRANCH  11  12
ATOM     12  N   UNL     1      42.588  10.874  12.222  0.00  0.00    +0.000 NA
ATOM     13  H   UNL     1      42.478  11.866  12.429  0.00  0.00    +0.000 HD
ATOM     14  H   UNL     1      42.846  10.429  13.104  0.00  0.00    +0.000 HD
ENDBRANCH  11  12
ENDBRANCH  10  11
ENDBRANCH   8  10
ENDBRANCH   7   8
ENDBRANCH   1   7
BRANCH   3  15
ATOM     15  C   UNL     1      48.129   5.979  14.185  0.00  0.00    +0.000 C 
BRANCH  15  16
ATOM     16  N   UNL     1      47.870   6.178  15.585  0.00  0.00    +0.000 N 
ATOM     17  C   UNL     1      48.816   5.965  16.560  0.00  0.00    +0.000 C 
ATOM     18  O   UNL     1      49.957   5.606  16.294  0.00  0.00    +0.000 OA
ATOM     19  H   UNL     1      46.898   6.260  15.858  0.00  0.00    +0.000 HD
BRANCH  17  20
ATOM     20  C   UNL     1      48.408   6.284  17.936  0.00  0.00    +0.000 A 
ATOM     21  C   UNL     1      48.347   5.269  18.875  0.00  0.00    +0.000 A 
ATOM     22  S   UNL     1      47.923   5.809  20.433  0.00  0.00    +0.000 S 
ATOM     23  C   UNL     1      47.758   7.411  19.891  0.00  0.00    +0.000 A 
ATOM     24  N   UNL     1      47.389   8.404  20.743  0.00  0.00    +0.000 NA
ATOM     25  C   UNL     1      47.268   9.567  20.192  0.00  0.00    +0.000 A 
ATOM     26  N   UNL     1      47.486   9.827  18.864  0.00  0.00    +0.000 N 
ATOM     27  C   UNL     1      47.914   8.871  17.979  0.00  0.00    +0.000 A 
ATOM     28  O   UNL     1      48.193   9.162  16.818  0.00  0.00    +0.000 OA
ATOM     29  C   UNL     1      48.040   7.536  18.542  0.00  0.00    +0.000 A 
ATOM     30  H   UNL     1      47.393  10.764  18.502  0.00  0.00    +0.000 HD
ENDBRANCH  17  20
ENDBRANCH  15  16
ENDBRANCH   3  15
BRANCH   6  31
ATOM     31  C   UNL     1      43.604   3.723  11.231  0.00  0.00    +0.000 C 
BRANCH  31  32
ATOM     32  N   UNL     1      44.172   2.544  10.608  0.00  0.00    +0.000 N 
ATOM     33  C   UNL     1      44.856   2.683   9.421  0.00  0.00    +0.000 A 
ATOM     34  N   UNL     1      44.659   3.748   8.626  0.00  0.00    +0.000 NA
ATOM     35  C   UNL     1      45.339   3.776   7.453  0.00  0.00    +0.000 A 
ATOM     36  C   UNL     1      46.196   2.783   7.043  0.00  0.00    +0.000 A 
ATOM     37 CL   UNL     1      47.040   2.849   5.559  0.00  0.00    +0.000 Cl
ATOM     38  C   UNL     1      46.324   1.736   7.918  0.00  0.00    +0.000 A 
ATOM     39  N   UNL     1      45.679   1.669   9.106  0.00  0.00    +0.000 NA
ATOM     40  H   UNL     1      44.636   1.880  11.211  0.00  0.00    +0.000 HD
ENDBRANCH  31  32
ENDBRANCH   6  31
TORSDOF 10
ENDMDL
MODEL 4
REMARK VINA RESULT:    -7.514      2.048      3.207
REMARK INTER + INTRA:         -12.755
REMARK INTER:                 -11.158
REMARK INTRA:                  -1.598
REMARK UNBOUND:                -1.068
REMARK  Name = 
REMARK  10 active torsions:
REMARK  status: ('A' for Active; 'I' for Inactive)
REMARK    1  A    between atoms: N_1  and  C_2
REMARK    2  A    between atoms: C_2  and  C_3
REMARK    3  A    between atoms: C_3  and  N_4
REMARK    4  A    between atoms: N_4  and  C_5
REMARK    5  A    between atoms: C_5  and  C_6
REMARK    6  A    between atoms: C_8  and  C_9
REMARK    7  A    between atoms: C_9  and  N_10
REMARK    8  A    between atoms: C_11  and  C_13
REMARK    9  A    between atoms: C_25  and  C_26
REMARK   10  A    between atoms: C_26  and  N_27
REMARK                            x       y       z     vdW  Elec       q    Type
REMARK                         _______ _______ _______ _____ _____    ______ ____
ROOT
ATOM      1  C   UNL     1      46.483   6.006  12.755  0.00  0.00    +0.000 A 
ATOM      2  C   UNL     1      47.491   6.267  13.718  0.00  0.00    +0.000 A 
ATOM      3  C   UNL     1      48.664   6.969  13.407  0.00  0.00    +0.000 A 
ATOM      4  C   UNL     1      48.856   7.389  12.094  0.00  0.00    +0.000 A 
ATOM      5  C   UNL     1      47.857   7.195  11.142  0.00  0.00    +0.000 A 
ATOM      6  C   UNL     1      46.644   6.535  11.452  0.00  0.00    +0.000 A 
ENDROOT
BRANCH   1   7
ATOM      7  C   UNL     1      45.293   5.209  13.267  0.00  0.00    +0.000 C 
BRANCH   7   8
ATOM      8  N   UNL     1      43.961   5.811  13.159  0.00  0.00    +0.000 NA
ATOM      9  H   UNL     1      43.754   6.214  14.078  0.00  0.00    +0.000 HD
BRANCH   8  10
ATOM     10  C   UNL     1      42.884   4.852  12.882  0.00  0.00    +0.000 C 
BRANCH  10  11
ATOM     11  C   UNL     1      43.335   3.392  12.685  0.00  0.00    +0.000 C 
BRANCH  11  12
ATOM     12  N   UNL     1      42.937   2.867  11.375  0.00  0.00    +0.000 NA
ATOM     13  H   UNL     1      42.359   2.039  11.514  0.00  0.00    +0.000 HD
ATOM     14  H   UNL     1      43.771   2.548  10.879  0.00  0.00    +0.000 HD
ENDBRANCH  11  12
ENDBRANCH  10  11
ENDBRANCH   8  10
ENDBRANCH   7   8
ENDBRANCH   1   7
BRANCH   3  15
ATOM     15  C   UNL     1      49.713   7.244  14.448  0.00  0.00    +0.000 C 
BRANCH  15  16
ATOM     16  N   UNL     1      49.267   6.855  15.757  0.00  0.00    +0.000 N 
ATOM     17  C   UNL     1      50.071   6.198  16.659  0.00  0.00    +0.000 C 
ATOM     18  O   UNL     1      51.237   5.916  16.408  0.00  0.00    +0.000 OA
ATOM     19  H   UNL     1      48.267   6.873  15.919  0.00  0.00    +0.000 HD
BRANCH  17  20
ATOM     20  C   UNL     1      49.481   5.936  17.979  0.00  0.00    +0.000 A 
ATOM     21  C   UNL     1      49.532   4.655  18.501  0.00  0.00    +0.000 A 
ATOM     22  S   UNL     1      48.865   4.529  20.063  0.00  0.00    +0.000 S 
ATOM     23  C   UNL     1      48.440   6.174  20.071  0.00  0.00    +0.000 A 
ATOM     24  N   UNL     1      47.806   6.728  21.139  0.00  0.00    +0.000 NA
ATOM     25  C   UNL     1      47.511   7.978  20.999  0.00  0.00    +0.000 A 
ATOM     26  N   UNL     1      47.797   8.728  19.887  0.00  0.00    +0.000 N 
ATOM     27  C   UNL     1      48.486   8.229  18.811  0.00  0.00    +0.000 A 
ATOM     28  O   UNL     1      48.810   8.956  17.874  0.00  0.00    +0.000 OA
ATOM     29  C   UNL     1      48.818   6.817  18.905  0.00  0.00    +0.000 A 
ATOM     30  H   UNL     1      47.556   9.706  19.851  0.00  0.00    +0.000 HD
ENDBRANCH  17  20
ENDBRANCH  15  16
ENDBRANCH   3  15
BRANCH   6  31
ATOM     31  C   UNL     1      45.601   6.500  10.345  0.00  0.00    +0.000 C 
BRANCH  31  32
ATOM     32  N   UNL     1      45.055   5.162  10.242  0.00  0.00    +0.000 N 
ATOM     33  C   UNL     1      45.559   4.309   9.286  0.00  0.00    +0.000 A 
ATOM     34  N   UNL     1      46.205   4.780   8.205  0.00  0.00    +0.000 NA
ATOM     35  C   UNL     1      46.623   3.870   7.291  0.00  0.00    +0.000 A 
ATOM     36  C   UNL     1      46.415   2.517   7.410  0.00  0.00    +0.000 A 
ATOM     37 CL   UNL     1      46.957   1.395   6.241  0.00  0.00    +0.000 Cl
ATOM     38  C   UNL     1      45.741   2.136   8.541  0.00  0.00    +0.000 A 
ATOM     39  N   UNL     1      45.316   3.004   9.489  0.00  0.00    +0.000 NA
ATOM     40  H   UNL     1      44.880   4.666  11.104  0.00  0.00    +0.000 HD
ENDBRANCH  31  32
ENDBRANCH   6  31
TORSDOF 10
ENDMDL
MODEL 5
REMARK VINA RESULT:    -7.434      4.355      9.096
REMARK INTER + INTRA:         -12.631
REMARK INTER:                 -11.043
REMARK INTRA:                  -1.588
REMARK UNBOUND:                -1.068
REMARK  Name = 
REMARK  10 active torsions:
REMARK  status: ('A' for Active; 'I' for Inactive)
REMARK    1  A    between atoms: N_1  and  C_2
REMARK    2  A    between atoms: C_2  and  C_3
REMARK    3  A    between atoms: C_3  and  N_4
REMARK    4  A    between atoms: N_4  and  C_5
REMARK    5  A    between atoms: C_5  and  C_6
REMARK    6  A    between atoms: C_8  and  C_9
REMARK    7  A    between atoms: C_9  and  N_10
REMARK    8  A    between atoms: C_11  and  C_13
REMARK    9  A    between atoms: C_25  and  C_26
REMARK   10  A    between atoms: C_26  and  N_27
REMARK                            x       y       z     vdW  Elec       q    Type
REMARK                         _______ _______ _______ _____ _____    ______ ____
ROOT
ATOM      1  C   UNL     1      49.054   5.894  17.875  0.00  0.00    +0.000 A 
ATOM      2  C   UNL     1      48.661   6.845  16.899  0.00  0.00    +0.000 A 
ATOM      3  C   UNL     1      49.546   7.337  15.930  0.00  0.00    +0.000 A 
ATOM      4  C   UNL     1      50.868   6.898  15.957  0.00  0.00    +0.000 A 
ATOM      5  C   UNL     1      51.264   5.923  16.868  0.00  0.00    +0.000 A 
ATOM      6  C   UNL     1      50.371   5.377  17.819  0.00  0.00    +0.000 A 
ENDROOT
BRANCH   1   7
ATOM      7  C   UNL     1      47.967   5.495  18.862  0.00  0.00    +0.000 C 
BRANCH   7   8
ATOM      8  N   UNL     1      46.780   4.810  18.342  0.00  0.00    +0.000 NA
ATOM      9  H   UNL     1      46.510   4.124  19.054  0.00  0.00    +0.000 HD
BRANCH   8  10
ATOM     10  C   UNL     1      47.014   4.047  17.109  0.00  0.00    +0.000 C 
BRANCH  10  11
ATOM     11  C   UNL     1      47.839   2.758  17.276  0.00  0.00    +0.000 C 
BRANCH  11  12
ATOM     12  N   UNL     1      48.639   2.459  16.084  0.00  0.00    +0.000 NA
ATOM     13  H   UNL     1      48.970   1.497  16.142  0.00  0.00    +0.000 HD
ATOM     14  H   UNL     1      49.475   3.045  16.091  0.00  0.00    +0.000 HD
ENDBRANCH  11  12
ENDBRANCH  10  11
ENDBRANCH   8  10
ENDBRANCH   7   8
ENDBRANCH   1   7
BRANCH   3  15
ATOM     15  C   UNL     1      49.104   8.336  14.898  0.00  0.00    +0.000 C 
BRANCH  15  16
ATOM     16  N   UNL     1      47.936   7.881  14.195  0.00  0.00    +0.000 N 
ATOM     17  C   UNL     1      47.975   6.902  13.230  0.00  0.00    +0.000 C 
ATOM     18  O   UNL     1      49.016   6.336  12.918  0.00  0.00    +0.000 OA
ATOM     19  H   UNL     1      47.110   8.464  14.265  0.00  0.00    +0.000 HD
BRANCH  17  20
ATOM     20  C   UNL     1      46.680   6.506  12.659  0.00  0.00    +0.000 A 
ATOM     21  C   UNL     1      45.883   7.466  12.061  0.00  0.00    +0.000 A 
ATOM     22  S   UNL     1      44.448   6.839  11.391  0.00  0.00    +0.000 S 
ATOM     23  C   UNL     1      44.824   5.269  11.924  0.00  0.00    +0.000 A 
ATOM     24  N   UNL     1      43.981   4.229  11.685  0.00  0.00    +0.000 NA
ATOM     25  C   UNL     1      44.372   3.099  12.175  0.00  0.00    +0.000 A 
ATOM     26  N   UNL     1      45.533   2.913  12.880  0.00  0.00    +0.000 N 
ATOM     27  C   UNL     1      46.440   3.919  13.096  0.00  0.00    +0.000 A 
ATOM     28  O   UNL     1      47.516   3.694  13.647  0.00  0.00    +0.000 OA
ATOM     29  C   UNL     1      46.036   5.220  12.589  0.00  0.00    +0.000 A 
ATOM     30  H   UNL     1      45.790   1.998  13.218  0.00  0.00    +0.000 HD
ENDBRANCH  17  20
ENDBRANCH  15  16
ENDBRANCH   3  15
BRANCH   6  31
ATOM     31  C   UNL     1      50.914   4.240  18.671  0.00  0.00    +0.000 C 
BRANCH  31  32
ATOM     32  N   UNL     1      51.162   3.086  17.830  0.00  0.00    +0.000 N 
ATOM     33  C   UNL     1      52.260   2.297  18.089  0.00  0.00    +0.000 A 
ATOM     34  N   UNL     1      53.309   2.772  18.782  0.00  0.00    +0.000 NA
ATOM     35  C   UNL     1      54.368   1.941  18.946  0.00  0.00    +0.000 A 
ATOM     36  C   UNL     1      54.423   0.665  18.439  0.00  0.00    +0.000 A 
ATOM     37 CL   UNL     1      55.772  -0.359  18.665  0.00  0.00    +0.000 Cl
ATOM     38  C   UNL     1      53.309   0.275  17.741  0.00  0.00    +0.000 A 
ATOM     39  N   UNL     1      52.223   1.062  17.563  0.00  0.00    +0.000 NA
ATOM     40  H   UNL     1      50.366   2.516  17.580  0.00  0.00    +0.000 HD
ENDBRANCH  31  32
ENDBRANCH   6  31
TORSDOF 10
ENDMDL
MODEL 6
REMARK VINA RESULT:    -6.861      4.403      9.739
REMARK INTER + INTRA:         -11.740
REMARK INTER:                 -10.319
REMARK INTRA:                  -1.422
REMARK UNBOUND:                -1.068
REMARK  Name = 
REMARK  10 active torsions:
REMARK  status: ('A' for Active; 'I' for Inactive)
REMARK    1  A    between atoms: N_1  and  C_2
REMARK    2  A    between atoms: C_2  and  C_3
REMARK    3  A    between atoms: C_3  and  N_4
REMARK    4  A    between atoms: N_4  and  C_5
REMARK    5  A    between atoms: C_5  and  C_6
REMARK    6  A    between atoms: C_8  and  C_9
REMARK    7  A    between atoms: C_9  and  N_10
REMARK    8  A    between atoms: C_11  and  C_13
REMARK    9  A    between atoms: C_25  and  C_26
REMARK   10  A    between atoms: C_26  and  N_27
REMARK                            x       y       z     vdW  Elec       q    Type
REMARK                         _______ _______ _______ _____ _____    ______ ____
ROOT
ATOM      1  C   UNL     1      48.943   6.838  15.779  0.00  0.00    +0.000 A 
ATOM      2  C   UNL     1      48.375   6.773  14.480  0.00  0.00    +0.000 A 
ATOM      3  C   UNL     1      48.527   7.803  13.542  0.00  0.00    +0.000 A 
ATOM      4  C   UNL     1      49.230   8.944  13.919  0.00  0.00    +0.000 A 
ATOM      5  C   UNL     1      49.844   9.009  15.167  0.00  0.00    +0.000 A 
ATOM      6  C   UNL     1      49.746   7.956  16.107  0.00  0.00    +0.000 A 
ENDROOT
BRANCH   1   7
ATOM      7  C   UNL     1      48.652   5.640  16.670  0.00  0.00    +0.000 C 
BRANCH   7   8
ATOM      8  N   UNL     1      47.380   4.936  16.487  0.00  0.00    +0.000 NA
ATOM      9  H   UNL     1      46.824   5.126  17.327  0.00  0.00    +0.000 HD
BRANCH   8  10
ATOM     10  C   UNL     1      47.503   3.475  16.402  0.00  0.00    +0.000 C 
BRANCH  10  11
ATOM     11  C   UNL     1      48.793   2.886  17.003  0.00  0.00    +0.000 C 
BRANCH  11  12
ATOM     12  N   UNL     1      49.409   1.893  16.116  0.00  0.00    +0.000 NA
ATOM     13  H   UNL     1      50.227   2.308  15.674  0.00  0.00    +0.000 HD
ATOM     14  H   UNL     1      48.759   1.677  15.359  0.00  0.00    +0.000 HD
ENDBRANCH  11  12
ENDBRANCH  10  11
ENDBRANCH   8  10
ENDBRANCH   7   8
ENDBRANCH   1   7
BRANCH   3  15
ATOM     15  C   UNL     1      47.926   7.707  12.168  0.00  0.00    +0.000 C 
BRANCH  15  16
ATOM     16  N   UNL     1      47.122   6.524  12.028  0.00  0.00    +0.000 N 
ATOM     17  C   UNL     1      45.779   6.560  11.736  0.00  0.00    +0.000 C 
ATOM     18  O   UNL     1      45.179   7.613  11.556  0.00  0.00    +0.000 OA
ATOM     19  H   UNL     1      47.522   5.661  12.379  0.00  0.00    +0.000 HD
BRANCH  17  20
ATOM     20  C   UNL     1      45.121   5.257  11.560  0.00  0.00    +0.000 A 
ATOM     21  C   UNL     1      44.447   4.690  12.627  0.00  0.00    +0.000 A 
ATOM     22  S   UNL     1      43.685   3.216  12.244  0.00  0.00    +0.000 S 
ATOM     23  C   UNL     1      44.276   3.263  10.652  0.00  0.00    +0.000 A 
ATOM     24  N   UNL     1      43.997   2.265   9.772  0.00  0.00    +0.000 NA
ATOM     25  C   UNL     1      44.537   2.410   8.607  0.00  0.00    +0.000 A 
ATOM     26  N   UNL     1      45.330   3.466   8.240  0.00  0.00    +0.000 N 
ATOM     27  C   UNL     1      45.592   4.523   9.074  0.00  0.00    +0.000 A 
ATOM     28  O   UNL     1      46.226   5.499   8.678  0.00  0.00    +0.000 OA
ATOM     29  C   UNL     1      45.030   4.397  10.409  0.00  0.00    +0.000 A 
ATOM     30  H   UNL     1      45.705   3.528   7.306  0.00  0.00    +0.000 HD
ENDBRANCH  17  20
ENDBRANCH  15  16
ENDBRANCH   3  15
BRANCH   6  31
ATOM     31  C   UNL     1      50.564   8.118  17.379  0.00  0.00    +0.000 C 
BRANCH  31  32
ATOM     32  N   UNL     1      51.908   7.629  17.152  0.00  0.00    +0.000 N 
ATOM     33  C   UNL     1      52.253   6.383  17.627  0.00  0.00    +0.000 A 
ATOM     34  N   UNL     1      51.564   5.805  18.626  0.00  0.00    +0.000 NA
ATOM     35  C   UNL     1      52.005   4.600  19.062  0.00  0.00    +0.000 A 
ATOM     36  C   UNL     1      53.107   3.958  18.551  0.00  0.00    +0.000 A 
ATOM     37 CL   UNL     1      53.636   2.438  19.122  0.00  0.00    +0.000 Cl
ATOM     38  C   UNL     1      53.747   4.631  17.542  0.00  0.00    +0.000 A 
ATOM     39  N   UNL     1      53.338   5.828  17.061  0.00  0.00    +0.000 NA
ATOM     40  H   UNL     1      52.309   7.784  16.238  0.00  0.00    +0.000 HD
ENDBRANCH  31  32
ENDBRANCH   6  31
TORSDOF 10
ENDMDL
MODEL 7
REMARK VINA RESULT:    -6.716      4.670      9.419
REMARK INTER + INTRA:         -11.514
REMARK INTER:                 -10.526
REMARK INTRA:                  -0.988
REMARK UNBOUND:                -1.068
REMARK  Name = 
REMARK  10 active torsions:
REMARK  status: ('A' for Active; 'I' for Inactive)
REMARK    1  A    between atoms: N_1  and  C_2
REMARK    2  A    between atoms: C_2  and  C_3
REMARK    3  A    between atoms: C_3  and  N_4
REMARK    4  A    between atoms: N_4  and  C_5
REMARK    5  A    between atoms: C_5  and  C_6
REMARK    6  A    between atoms: C_8  and  C_9
REMARK    7  A    between atoms: C_9  and  N_10
REMARK    8  A    between atoms: C_11  and  C_13
REMARK    9  A    between atoms: C_25  and  C_26
REMARK   10  A    between atoms: C_26  and  N_27
REMARK                            x       y       z     vdW  Elec       q    Type
REMARK                         _______ _______ _______ _____ _____    ______ ____
ROOT
ATOM      1  C   UNL     1      45.708   7.102  12.459  0.00  0.00    +0.000 A 
ATOM      2  C   UNL     1      44.901   6.010  12.046  0.00  0.00    +0.000 A 
ATOM      3  C   UNL     1      45.185   4.686  12.409  0.00  0.00    +0.000 A 
ATOM      4  C   UNL     1      46.322   4.438  13.172  0.00  0.00    +0.000 A 
ATOM      5  C   UNL     1      47.099   5.497  13.638  0.00  0.00    +0.000 A 
ATOM      6  C   UNL     1      46.797   6.843  13.326  0.00  0.00    +0.000 A 
ENDROOT
BRANCH   1   7
ATOM      7  C   UNL     1      45.263   8.463  11.948  0.00  0.00    +0.000 C 
BRANCH   7   8
ATOM      8  N   UNL     1      44.001   8.543  11.206  0.00  0.00    +0.000 NA
ATOM      9  H   UNL     1      44.205   8.213  10.257  0.00  0.00    +0.000 HD
BRANCH   8  10
ATOM     10  C   UNL     1      43.471   9.905  11.059  0.00  0.00    +0.000 C 
BRANCH  10  11
ATOM     11  C   UNL     1      42.110  10.009  10.346  0.00  0.00    +0.000 C 
BRANCH  11  12
ATOM     12  N   UNL     1      40.996   9.661  11.234  0.00  0.00    +0.000 NA
ATOM     13  H   UNL     1      40.982   8.651  11.365  0.00  0.00    +0.000 HD
ATOM     14  H   UNL     1      40.117   9.897  10.771  0.00  0.00    +0.000 HD
ENDBRANCH  11  12
ENDBRANCH  10  11
ENDBRANCH   8  10
ENDBRANCH   7   8
ENDBRANCH   1   7
BRANCH   3  15
ATOM     15  C   UNL     1      44.308   3.548  11.969  0.00  0.00    +0.000 C 
BRANCH  15  16
ATOM     16  N   UNL     1      44.945   2.759  10.950  0.00  0.00    +0.000 N 
ATOM     17  C   UNL     1      44.768   2.986   9.605  0.00  0.00    +0.000 C 
ATOM     18  O   UNL     1      44.063   3.895   9.185  0.00  0.00    +0.000 OA
ATOM     19  H   UNL     1      45.353   1.880  11.247  0.00  0.00    +0.000 HD
BRANCH  17  20
ATOM     20  C   UNL     1      45.548   2.131   8.699  0.00  0.00    +0.000 A 
ATOM     21  C   UNL     1      45.416   0.757   8.784  0.00  0.00    +0.000 A 
ATOM     22  S   UNL     1      46.333  -0.088   7.624  0.00  0.00    +0.000 S 
ATOM     23  C   UNL     1      46.977   1.357   7.003  0.00  0.00    +0.000 A 
ATOM     24  N   UNL     1      47.867   1.342   5.976  0.00  0.00    +0.000 NA
ATOM     25  C   UNL     1      48.302   2.507   5.625  0.00  0.00    +0.000 A 
ATOM     26  N   UNL     1      47.924   3.689   6.209  0.00  0.00    +0.000 N 
ATOM     27  C   UNL     1      46.987   3.758   7.208  0.00  0.00    +0.000 A 
ATOM     28  O   UNL     1      46.601   4.843   7.639  0.00  0.00    +0.000 OA
ATOM     29  C   UNL     1      46.485   2.471   7.660  0.00  0.00    +0.000 A 
ATOM     30  H   UNL     1      48.287   4.568   5.873  0.00  0.00    +0.000 HD
ENDBRANCH  17  20
ENDBRANCH  15  16
ENDBRANCH   3  15
BRANCH   6  31
ATOM     31  C   UNL     1      47.665   7.895  13.999  0.00  0.00    +0.000 C 
BRANCH  31  32
ATOM     32  N   UNL     1      48.936   7.306  14.368  0.00  0.00    +0.000 N 
ATOM     33  C   UNL     1      49.252   7.186  15.703  0.00  0.00    +0.000 A 
ATOM     34  N   UNL     1      48.652   7.952  16.630  0.00  0.00    +0.000 NA
ATOM     35  C   UNL     1      49.062   7.800  17.914  0.00  0.00    +0.000 A 
ATOM     36  C   UNL     1      50.048   6.925  18.303  0.00  0.00    +0.000 A 
ATOM     37 CL   UNL     1      50.540   6.756  19.930  0.00  0.00    +0.000 Cl
ATOM     38  C   UNL     1      50.604   6.195  17.284  0.00  0.00    +0.000 A 
ATOM     39  N   UNL     1      50.220   6.300  15.991  0.00  0.00    +0.000 NA
ATOM     40  H   UNL     1      49.232   6.486  13.857  0.00  0.00    +0.000 HD
ENDBRANCH  31  32
ENDBRANCH   6  31
TORSDOF 10
ENDMDL
MODEL 8
REMARK VINA RESULT:    -6.622      4.790      7.493
REMARK INTER + INTRA:         -11.368
REMARK INTER:                 -10.578
REMARK INTRA:                  -0.790
REMARK UNBOUND:                -1.068
REMARK  Name = 
REMARK  10 active torsions:
REMARK  status: ('A' for Active; 'I' for Inactive)
REMARK    1  A    between atoms: N_1  and  C_2
REMARK    2  A    between atoms: C_2  and  C_3
REMARK    3  A    between atoms: C_3  and  N_4
REMARK    4  A    between atoms: N_4  and  C_5
REMARK    5  A    between atoms: C_5  and  C_6
REMARK    6  A    between atoms: C_8  and  C_9
REMARK    7  A    between atoms: C_9  and  N_10
REMARK    8  A    between atoms: C_11  and  C_13
REMARK    9  A    between atoms: C_25  and  C_26
REMARK   10  A    between atoms: C_26  and  N_27
REMARK                            x       y       z     vdW  Elec       q    Type
REMARK                         _______ _______ _______ _____ _____    ______ ____
ROOT
ATOM      1  C   UNL     1      44.891   6.109  12.436  0.00  0.00    +0.000 A 
ATOM      2  C   UNL     1      45.180   7.459  12.107  0.00  0.00    +0.000 A 
ATOM      3  C   UNL     1      46.369   8.090  12.498  0.00  0.00    +0.000 A 
ATOM      4  C   UNL     1      47.278   7.370  13.269  0.00  0.00    +0.000 A 
ATOM      5  C   UNL     1      47.044   6.027  13.557  0.00  0.00    +0.000 A 
ATOM      6  C   UNL     1      45.874   5.360  13.125  0.00  0.00    +0.000 A 
ENDROOT
BRANCH   1   7
ATOM      7  C   UNL     1      43.543   5.602  11.950  0.00  0.00    +0.000 C 
BRANCH   7   8
ATOM      8  N   UNL     1      43.385   5.321  10.520  0.00  0.00    +0.000 NA
ATOM      9  H   UNL     1      42.377   5.246  10.352  0.00  0.00    +0.000 HD
BRANCH   8  10
ATOM     10  C   UNL     1      43.967   4.045  10.085  0.00  0.00    +0.000 C 
BRANCH  10  11
ATOM     11  C   UNL     1      44.799   4.107   8.790  0.00  0.00    +0.000 C 
BRANCH  11  12
ATOM     12  N   UNL     1      45.701   5.264   8.771  0.00  0.00    +0.000 NA
ATOM     13  H   UNL     1      45.942   5.510   9.730  0.00  0.00    +0.000 HD
ATOM     14  H   UNL     1      45.200   6.068   8.392  0.00  0.00    +0.000 HD
ENDBRANCH  11  12
ENDBRANCH  10  11
ENDBRANCH   8  10
ENDBRANCH   7   8
ENDBRANCH   1   7
BRANCH   3  15
ATOM     15  C   UNL     1      46.658   9.517  12.128  0.00  0.00    +0.000 C 
BRANCH  15  16
ATOM     16  N   UNL     1      47.965   9.654  11.546  0.00  0.00    +0.000 N 
ATOM     17  C   UNL     1      48.994  10.329  12.161  0.00  0.00    +0.000 C 
ATOM     18  O   UNL     1      48.865  10.846  13.264  0.00  0.00    +0.000 OA
ATOM     19  H   UNL     1      48.046   9.435  10.559  0.00  0.00    +0.000 HD
BRANCH  17  20
ATOM     20  C   UNL     1      50.285  10.314  11.460  0.00  0.00    +0.000 A 
ATOM     21  C   UNL     1      50.881  11.515  11.115  0.00  0.00    +0.000 A 
ATOM     22  S   UNL     1      52.402  11.330  10.370  0.00  0.00    +0.000 S 
ATOM     23  C   UNL     1      52.288   9.636  10.438  0.00  0.00    +0.000 A 
ATOM     24  N   UNL     1      53.279   8.848   9.942  0.00  0.00    +0.000 NA
ATOM     25  C   UNL     1      53.049   7.579  10.027  0.00  0.00    +0.000 A 
ATOM     26  N   UNL     1      51.917   7.026  10.567  0.00  0.00    +0.000 N 
ATOM     27  C   UNL     1      50.918   7.778  11.132  0.00  0.00    +0.000 A 
ATOM     28  O   UNL     1      49.965   7.244  11.695  0.00  0.00    +0.000 OA
ATOM     29  C   UNL     1      51.115   9.215  11.038  0.00  0.00    +0.000 A 
ATOM     30  H   UNL     1      51.809   6.025  10.622  0.00  0.00    +0.000 HD
ENDBRANCH  17  20
ENDBRANCH  15  16
ENDBRANCH   3  15
BRANCH   6  31
ATOM     31  C   UNL     1      45.811   3.867  13.414  0.00  0.00    +0.000 C 
BRANCH  31  32
ATOM     32  N   UNL     1      47.112   3.408  13.855  0.00  0.00    +0.000 N 
ATOM     33  C   UNL     1      47.384   3.372  15.204  0.00  0.00    +0.000 A 
ATOM     34  N   UNL     1      46.685   4.121  16.074  0.00  0.00    +0.000 NA
ATOM     35  C   UNL     1      47.055   4.059  17.377  0.00  0.00    +0.000 A 
ATOM     36  C   UNL     1      48.096   3.291  17.840  0.00  0.00    +0.000 A 
ATOM     37 CL   UNL     1      48.535   3.234  19.490  0.00  0.00    +0.000 Cl
ATOM     38  C   UNL     1      48.752   2.571  16.876  0.00  0.00    +0.000 A 
ATOM     39  N   UNL     1      48.412   2.587  15.566  0.00  0.00    +0.000 NA
ATOM     40  H   UNL     1      47.497   2.596  13.392  0.00  0.00    +0.000 HD
ENDBRANCH  31  32
ENDBRANCH   6  31
TORSDOF 10
ENDMDL
MODEL 9
REMARK VINA RESULT:    -6.168      5.032      7.899
REMARK INTER + INTRA:         -10.662
REMARK INTER:                  -9.519
REMARK INTRA:                  -1.143
REMARK UNBOUND:                -1.068
REMARK  Name = 
REMARK  10 active torsions:
REMARK  status: ('A' for Active; 'I' for Inactive)
REMARK    1  A    between atoms: N_1  and  C_2
REMARK    2  A    between atoms: C_2  and  C_3
REMARK    3  A    between atoms: C_3  and  N_4
REMARK    4  A    between atoms: N_4  and  C_5
REMARK    5  A    between atoms: C_5  and  C_6
REMARK    6  A    between atoms: C_8  and  C_9
REMARK    7  A    between atoms: C_9  and  N_10
REMARK    8  A    between atoms: C_11  and  C_13
REMARK    9  A    between atoms: C_25  and  C_26
REMARK   10  A    between atoms: C_26  and  N_27
REMARK                            x       y       z     vdW  Elec       q    Type
REMARK                         _______ _______ _______ _____ _____    ______ ____
ROOT
ATOM      1  C   UNL     1      46.492   5.169  13.703  0.00  0.00    +0.000 A 
ATOM      2  C   UNL     1      46.876   6.037  12.649  0.00  0.00    +0.000 A 
ATOM      3  C   UNL     1      47.933   6.949  12.774  0.00  0.00    +0.000 A 
ATOM      4  C   UNL     1      48.602   7.024  13.993  0.00  0.00    +0.000 A 
ATOM      5  C   UNL     1      48.282   6.144  15.024  0.00  0.00    +0.000 A 
ATOM      6  C   UNL     1      47.253   5.182  14.897  0.00  0.00    +0.000 A 
ENDROOT
BRANCH   1   7
ATOM      7  C   UNL     1      45.306   4.267  13.396  0.00  0.00    +0.000 C 
BRANCH   7   8
ATOM      8  N   UNL     1      45.546   3.057  12.603  0.00  0.00    +0.000 NA
ATOM      9  H   UNL     1      46.558   2.896  12.624  0.00  0.00    +0.000 HD
BRANCH   8  10
ATOM     10  C   UNL     1      45.182   3.181  11.186  0.00  0.00    +0.000 C 
BRANCH  10  11
ATOM     11  C   UNL     1      43.680   3.045  10.877  0.00  0.00    +0.000 C 
BRANCH  11  12
ATOM     12  N   UNL     1      43.023   2.074  11.757  0.00  0.00    +0.000 NA
ATOM     13  H   UNL     1      42.146   1.781  11.329  0.00  0.00    +0.000 HD
ATOM     14  H   UNL     1      42.768   2.537  12.631  0.00  0.00    +0.000 HD
ENDBRANCH  11  12
ENDBRANCH  10  11
ENDBRANCH   8  10
ENDBRANCH   7   8
ENDBRANCH   1   7
BRANCH   3  15
ATOM     15  C   UNL     1      48.329   7.851  11.639  0.00  0.00    +0.000 C 
BRANCH  15  16
ATOM     16  N   UNL     1      49.743   7.790  11.389  0.00  0.00    +0.000 N 
ATOM     17  C   UNL     1      50.556   8.899  11.404  0.00  0.00    +0.000 C 
ATOM     18  O   UNL     1      50.126  10.018  11.652  0.00  0.00    +0.000 OA
ATOM     19  H   UNL     1      50.092   6.934  10.972  0.00  0.00    +0.000 HD
BRANCH  17  20
ATOM     20  C   UNL     1      51.990   8.650  11.196  0.00  0.00    +0.000 A 
ATOM     21  C   UNL     1      52.496   8.646   9.908  0.00  0.00    +0.000 A 
ATOM     22  S   UNL     1      54.182   8.411   9.841  0.00  0.00    +0.000 S 
ATOM     23  C   UNL     1      54.281   8.255  11.530  0.00  0.00    +0.000 A 
ATOM     24  N   UNL     1      55.472   8.020  12.142  0.00  0.00    +0.000 NA
ATOM     25  C   UNL     1      55.399   7.889  13.426  0.00  0.00    +0.000 A 
ATOM     26  N   UNL     1      54.241   7.976  14.154  0.00  0.00    +0.000 N 
ATOM     27  C   UNL     1      53.026   8.270  13.588  0.00  0.00    +0.000 A 
ATOM     28  O   UNL     1      52.027   8.437  14.285  0.00  0.00    +0.000 OA
ATOM     29  C   UNL     1      53.048   8.399  12.140  0.00  0.00    +0.000 A 
ATOM     30  H   UNL     1      54.256   7.885  15.159  0.00  0.00    +0.000 HD
ENDBRANCH  17  20
ENDBRANCH  15  16
ENDBRANCH   3  15
BRANCH   6  31
ATOM     31  C   UNL     1      47.095   4.214  16.060  0.00  0.00    +0.000 C 
BRANCH  31  32
ATOM     32  N   UNL     1      47.915   3.044  15.826  0.00  0.00    +0.000 N 
ATOM     33  C   UNL     1      49.113   2.926  16.494  0.00  0.00    +0.000 A 
ATOM     34  N   UNL     1      49.735   4.004  17.001  0.00  0.00    +0.000 NA
ATOM     35  C   UNL     1      50.935   3.800  17.600  0.00  0.00    +0.000 A 
ATOM     36  C   UNL     1      51.538   2.569  17.701  0.00  0.00    +0.000 A 
ATOM     37 CL   UNL     1      53.050   2.345  18.464  0.00  0.00    +0.000 Cl
ATOM     38  C   UNL     1      50.830   1.534  17.147  0.00  0.00    +0.000 A 
ATOM     39  N   UNL     1      49.624   1.684  16.553  0.00  0.00    +0.000 NA
ATOM     40  H   UNL     1      47.445   2.151  15.779  0.00  0.00    +0.000 HD
ENDBRANCH  31  32
ENDBRANCH   6  31
TORSDOF 10
ENDMDL
