MODEL 1
REMARK VINA RESULT:    -7.986      0.000      0.000
REMARK INTER + INTRA:         -13.120
REMARK INTER:                 -11.721
REMARK INTRA:                  -1.399
REMARK UNBOUND:                -1.399
REMARK  Name = 
REMARK  10 active torsions:
REMARK  status: ('A' for Active; 'I' for Inactive)
REMARK    1  A    between atoms: C_1  and  O_2
REMARK    2  A    between atoms: O_2  and  C_3
REMARK    3  A    between atoms: C_10  and  C_11
REMARK    4  A    between atoms: N_13  and  C_14
REMARK    5  A    between atoms: C_14  and  C_15
REMARK    6  A    between atoms: C_18  and  C_19
REMARK    7  A    between atoms: C_19  and  C_20
REMARK    8  A    between atoms: C_20  and  C_21
REMARK    9  A    between atoms: C_21  and  C_22
REMARK   10  A    between atoms: C_25  and  C_26
REMARK                            x       y       z     vdW  Elec       q    Type
REMARK                         _______ _______ _______ _____ _____    ______ ____
ROOT
ATOM      1  C   UNL     1      48.288   6.613  14.025  0.00  0.00    +0.000 C 
ENDROOT
BRANCH   1   2
ATOM      2  C   UNL     1      47.115   5.965  13.348  0.00  0.00    +0.000 A 
ATOM      3  C   UNL     1      46.657   6.391  12.099  0.00  0.00    +0.000 A 
ATOM      4  C   UNL     1      45.533   5.791  11.529  0.00  0.00    +0.000 A 
ATOM      5  C   UNL     1      44.878   4.779  12.225  0.00  0.00    +0.000 A 
ATOM      6  N   UNL     1      45.290   4.365  13.447  0.00  0.00    +0.000 NA
ATOM      7  C   UNL     1      46.387   4.961  13.976  0.00  0.00    +0.000 A 
BRANCH   5   8
ATOM      8  C   UNL     1      43.640   4.123  11.658  0.00  0.00    +0.000 C 
BRANCH   8   9
ATOM      9  C   UNL     1      43.821   3.779  10.178  0.00  0.00    +0.000 C 
BRANCH   9  10
ATOM     10  C   UNL     1      44.468   2.405   9.973  0.00  0.00    +0.000 C 
BRANCH  10  11
ATOM     11  C   UNL     1      45.362   2.407   8.756  0.00  0.00    +0.000 A 
ATOM     12  C   UNL     1      45.511   3.559   7.988  0.00  0.00    +0.000 A 
ATOM     13  C   UNL     1      46.380   3.537   6.897  0.00  0.00    +0.000 A 
ATOM     14  C   UNL     1      47.081   2.372   6.594  0.00  0.00    +0.000 A 
ATOM     15  C   UNL     1      48.026   2.293   5.438  0.00  0.00    +0.000 C 
ATOM     16  C   UNL     1      46.868   1.271   7.416  0.00  0.00    +0.000 A 
ATOM     17  N   UNL     1      46.036   1.264   8.484  0.00  0.00    +0.000 NA
ENDBRANCH  10  11
ENDBRANCH   9  10
ENDBRANCH   8   9
ENDBRANCH   5   8
ENDBRANCH   1   2
BRANCH   1  20
ATOM     18  C   UNL     1      49.153   6.386  16.329  0.00  0.00    +0.000 C 
ATOM     19  O   UNL     1      50.296   6.181  15.928  0.00  0.00    +0.000 OA
ATOM     20  N   UNL     1      48.122   6.604  15.458  0.00  0.00    +0.000 N 
ATOM     21  H   UNL     1      47.185   6.733  15.816  0.00  0.00    +0.000 HD
BRANCH  18  29
ATOM     22  C   UNL     1      47.785   8.759  18.417  0.00  0.00    +0.000 A 
ATOM     23  N   UNL     1      47.271   9.482  19.432  0.00  0.00    +0.000 NA
ATOM     24  C   UNL     1      47.220   8.917  20.641  0.00  0.00    +0.000 A 
ATOM     25  N   UNL     1      47.629   7.695  20.972  0.00  0.00    +0.000 NA
ATOM     26  C   UNL     1      48.128   7.007  19.932  0.00  0.00    +0.000 A 
ATOM     27  S   UNL     1      48.703   5.428  20.170  0.00  0.00    +0.000 S 
ATOM     28  C   UNL     1      49.118   5.276  18.528  0.00  0.00    +0.000 A 
ATOM     29  C   UNL     1      48.831   6.405  17.768  0.00  0.00    +0.000 A 
ATOM     30  C   UNL     1      48.242   7.444  18.614  0.00  0.00    +0.000 A 
BRANCH  22  32
ATOM     31  C   UNL     1      48.876  10.259  16.984  0.00  0.00    +0.000 C 
ATOM     32  O   UNL     1      47.808   9.332  17.162  0.00  0.00    +0.000 OA
ENDBRANCH  22  32
ENDBRANCH  18  29
ENDBRANCH   1  20
TORSDOF 8
ENDMDL
MODEL 2
REMARK VINA RESULT:    -7.963      1.636      2.523
REMARK INTER + INTRA:         -13.086
REMARK INTER:                 -11.545
REMARK INTRA:                  -1.541
REMARK UNBOUND:                -1.399
REMARK  Name = 
REMARK  10 active torsions:
REMARK  status: ('A' for Active; 'I' for Inactive)
REMARK    1  A    between atoms: C_1  and  O_2
REMARK    2  A    between atoms: O_2  and  C_3
REMARK    3  A    between atoms: C_10  and  C_11
REMARK    4  A    between atoms: N_13  and  C_14
REMARK    5  A    between atoms: C_14  and  C_15
REMARK    6  A    between atoms: C_18  and  C_19
REMARK    7  A    between atoms: C_19  and  C_20
REMARK    8  A    between atoms: C_20  and  C_21
REMARK    9  A    between atoms: C_21  and  C_22
REMARK   10  A    between atoms: C_25  and  C_26
REMARK                            x       y       z     vdW  Elec       q    Type
REMARK                         _______ _______ _______ _____ _____    ______ ____
ROOT
ATOM      1  C   UNL     1      48.684   6.641  13.443  0.00  0.00    +0.000 C 
ENDROOT
BRANCH   1   2
ATOM      2  C   UNL     1      47.368   6.150  12.910  0.00  0.00    +0.000 A 
ATOM      3  C   UNL     1      46.812   6.661  11.736  0.00  0.00    +0.000 A 
ATOM      4  C   UNL     1      45.564   6.209  11.302  0.00  0.00    +0.000 A 
ATOM      5  C   UNL     1      44.888   5.257  12.061  0.00  0.00    +0.000 A 
ATOM      6  N   UNL     1      45.397   4.765  13.216  0.00  0.00    +0.000 NA
ATOM      7  C   UNL     1      46.613   5.217  13.610  0.00  0.00    +0.000 A 
BRANCH   5   8
ATOM      8  C   UNL     1      43.521   4.763  11.645  0.00  0.00    +0.000 C 
BRANCH   8   9
ATOM      9  C   UNL     1      43.563   4.111  10.262  0.00  0.00    +0.000 C 
BRANCH   9  10
ATOM     10  C   UNL     1      44.332   2.786  10.263  0.00  0.00    +0.000 C 
BRANCH  10  11
ATOM     11  C   UNL     1      45.239   2.689   9.059  0.00  0.00    +0.000 A 
ATOM     12  C   UNL     1      45.570   3.827   8.327  0.00  0.00    +0.000 A 
ATOM     13  C   UNL     1      46.446   3.706   7.249  0.00  0.00    +0.000 A 
ATOM     14  C   UNL     1      46.975   2.458   6.923  0.00  0.00    +0.000 A 
ATOM     15  C   UNL     1      47.921   2.273   5.779  0.00  0.00    +0.000 C 
ATOM     16  C   UNL     1      46.588   1.380   7.710  0.00  0.00    +0.000 A 
ATOM     17  N   UNL     1      45.744   1.467   8.765  0.00  0.00    +0.000 NA
ENDBRANCH  10  11
ENDBRANCH   9  10
ENDBRANCH   8   9
ENDBRANCH   5   8
ENDBRANCH   1   2
BRANCH   1  20
ATOM     18  C   UNL     1      49.715   7.148  15.631  0.00  0.00    +0.000 C 
ATOM     19  O   UNL     1      50.737   7.575  15.100  0.00  0.00    +0.000 OA
ATOM     20  N   UNL     1      48.671   6.674  14.885  0.00  0.00    +0.000 N 
ATOM     21  H   UNL     1      47.857   6.294  15.350  0.00  0.00    +0.000 HD
BRANCH  18  29
ATOM     22  C   UNL     1      48.916   4.660  17.875  0.00  0.00    +0.000 A 
ATOM     23  N   UNL     1      48.644   3.892  18.949  0.00  0.00    +0.000 NA
ATOM     24  C   UNL     1      48.658   4.470  20.153  0.00  0.00    +0.000 A 
ATOM     25  N   UNL     1      48.911   5.747  20.425  0.00  0.00    +0.000 NA
ATOM     26  C   UNL     1      49.183   6.476  19.330  0.00  0.00    +0.000 A 
ATOM     27  S   UNL     1      49.526   8.131  19.487  0.00  0.00    +0.000 S 
ATOM     28  C   UNL     1      49.738   8.299  17.809  0.00  0.00    +0.000 A 
ATOM     29  C   UNL     1      49.559   7.118  17.097  0.00  0.00    +0.000 A 
ATOM     30  C   UNL     1      49.220   6.027  18.012  0.00  0.00    +0.000 A 
BRANCH  22  32
ATOM     31  C   UNL     1      48.050   2.941  16.538  0.00  0.00    +0.000 C 
ATOM     32  O   UNL     1      48.933   4.056  16.635  0.00  0.00    +0.000 OA
ENDBRANCH  22  32
ENDBRANCH  18  29
ENDBRANCH   1  20
TORSDOF 8
ENDMDL
MODEL 3
REMARK VINA RESULT:    -7.886      2.769      4.178
REMARK INTER + INTRA:         -12.974
REMARK INTER:                 -11.872
REMARK INTRA:                  -1.101
REMARK UNBOUND:                -1.399
REMARK  Name = 
REMARK  10 active torsions:
REMARK  status: ('A' for Active; 'I' for Inactive)
REMARK    1  A    between atoms: C_1  and  O_2
REMARK    2  A    between atoms: O_2  and  C_3
REMARK    3  A    between atoms: C_10  and  C_11
REMARK    4  A    between atoms: N_13  and  C_14
REMARK    5  A    between atoms: C_14  and  C_15
REMARK    6  A    between atoms: C_18  and  C_19
REMARK    7  A    between atoms: C_19  and  C_20
REMARK    8  A    between atoms: C_20  and  C_21
REMARK    9  A    between atoms: C_21  and  C_22
REMARK   10  A    between atoms: C_25  and  C_26
REMARK                            x       y       z     vdW  Elec       q    Type
REMARK                         _______ _______ _______ _____ _____    ______ ____
ROOT
ATOM      1  C   UNL     1      48.848   7.400  15.142  0.00  0.00    +0.000 C 
ENDROOT
BRANCH   1   2
ATOM      2  C   UNL     1      47.943   6.614  14.239  0.00  0.00    +0.000 A 
ATOM      3  C   UNL     1      47.490   7.126  13.021  0.00  0.00    +0.000 A 
ATOM      4  C   UNL     1      46.611   6.379  12.235  0.00  0.00    +0.000 A 
ATOM      5  C   UNL     1      46.192   5.130  12.687  0.00  0.00    +0.000 A 
ATOM      6  N   UNL     1      46.600   4.623  13.875  0.00  0.00    +0.000 NA
ATOM      7  C   UNL     1      47.457   5.368  14.616  0.00  0.00    +0.000 A 
BRANCH   5   8
ATOM      8  C   UNL     1      45.218   4.301  11.882  0.00  0.00    +0.000 C 
BRANCH   8   9
ATOM      9  C   UNL     1      44.479   5.156  10.850  0.00  0.00    +0.000 C 
BRANCH   9  10
ATOM     10  C   UNL     1      43.861   4.313   9.729  0.00  0.00    +0.000 C 
BRANCH  10  11
ATOM     11  C   UNL     1      44.935   3.645   8.904  0.00  0.00    +0.000 A 
ATOM     12  C   UNL     1      45.154   2.273   9.003  0.00  0.00    +0.000 A 
ATOM     13  C   UNL     1      46.124   1.683   8.193  0.00  0.00    +0.000 A 
ATOM     14  C   UNL     1      46.854   2.468   7.303  0.00  0.00    +0.000 A 
ATOM     15  C   UNL     1      47.903   1.888   6.409  0.00  0.00    +0.000 C 
ATOM     16  C   UNL     1      46.567   3.828   7.273  0.00  0.00    +0.000 A 
ATOM     17  N   UNL     1      45.628   4.428   8.044  0.00  0.00    +0.000 NA
ENDBRANCH  10  11
ENDBRANCH   9  10
ENDBRANCH   8   9
ENDBRANCH   5   8
ENDBRANCH   1   2
BRANCH   1  20
ATOM     18  C   UNL     1      49.779   6.052  16.992  0.00  0.00    +0.000 C 
ATOM     19  O   UNL     1      48.826   6.313  17.722  0.00  0.00    +0.000 OA
ATOM     20  N   UNL     1      49.859   6.549  15.721  0.00  0.00    +0.000 N 
ATOM     21  H   UNL     1      50.673   6.347  15.156  0.00  0.00    +0.000 HD
BRANCH  18  29
ATOM     22  C   UNL     1      50.267   2.643  17.049  0.00  0.00    +0.000 A 
ATOM     23  N   UNL     1      50.716   1.378  17.175  0.00  0.00    +0.000 NA
ATOM     24  C   UNL     1      51.928   1.193  17.706  0.00  0.00    +0.000 A 
ATOM     25  N   UNL     1      52.765   2.131  18.137  0.00  0.00    +0.000 NA
ATOM     26  C   UNL     1      52.283   3.377  17.987  0.00  0.00    +0.000 A 
ATOM     27  S   UNL     1      53.216   4.703  18.489  0.00  0.00    +0.000 S 
ATOM     28  C   UNL     1      52.013   5.800  18.000  0.00  0.00    +0.000 A 
ATOM     29  C   UNL     1      50.889   5.195  17.448  0.00  0.00    +0.000 A 
ATOM     30  C   UNL     1      51.052   3.740  17.447  0.00  0.00    +0.000 A 
BRANCH  22  32
ATOM     31  C   UNL     1      47.960   2.832  17.416  0.00  0.00    +0.000 C 
ATOM     32  O   UNL     1      49.029   2.835  16.472  0.00  0.00    +0.000 OA
ENDBRANCH  22  32
ENDBRANCH  18  29
ENDBRANCH   1  20
TORSDOF 8
ENDMDL
MODEL 4
REMARK VINA RESULT:    -7.484      2.572      3.225
REMARK INTER + INTRA:         -12.383
REMARK INTER:                 -10.735
REMARK INTRA:                  -1.649
REMARK UNBOUND:                -1.399
REMARK  Name = 
REMARK  10 active torsions:
REMARK  status: ('A' for Active; 'I' for Inactive)
REMARK    1  A    between atoms: C_1  and  O_2
REMARK    2  A    between atoms: O_2  and  C_3
REMARK    3  A    between atoms: C_10  and  C_11
REMARK    4  A    between atoms: N_13  and  C_14
REMARK    5  A    between atoms: C_14  and  C_15
REMARK    6  A    between atoms: C_18  and  C_19
REMARK    7  A    between atoms: C_19  and  C_20
REMARK    8  A    between atoms: C_20  and  C_21
REMARK    9  A    between atoms: C_21  and  C_22
REMARK   10  A    between atoms: C_25  and  C_26
REMARK                            x       y       z     vdW  Elec       q    Type
REMARK                         _______ _______ _______ _____ _____    ______ ____
ROOT
ATOM      1  C   UNL     1      48.736   7.245  12.731  0.00  0.00    +0.000 C 
ENDROOT
BRANCH   1   2
ATOM      2  C   UNL     1      47.358   6.660  12.849  0.00  0.00    +0.000 A 
ATOM      3  C   UNL     1      47.153   5.317  13.175  0.00  0.00    +0.000 A 
ATOM      4  C   UNL     1      45.856   4.804  13.228  0.00  0.00    +0.000 A 
ATOM      5  C   UNL     1      44.783   5.644  12.942  0.00  0.00    +0.000 A 
ATOM      6  N   UNL     1      44.959   6.943  12.601  0.00  0.00    +0.000 NA
ATOM      7  C   UNL     1      46.229   7.417  12.562  0.00  0.00    +0.000 A 
BRANCH   5   8
ATOM      8  C   UNL     1      43.365   5.122  12.958  0.00  0.00    +0.000 C 
BRANCH   8   9
ATOM      9  C   UNL     1      42.931   4.647  11.569  0.00  0.00    +0.000 C 
BRANCH   9  10
ATOM     10  C   UNL     1      43.410   3.225  11.263  0.00  0.00    +0.000 C 
BRANCH  10  11
ATOM     11  C   UNL     1      44.297   3.207  10.040  0.00  0.00    +0.000 A 
ATOM     12  C   UNL     1      44.738   4.397   9.467  0.00  0.00    +0.000 A 
ATOM     13  C   UNL     1      45.592   4.341   8.366  0.00  0.00    +0.000 A 
ATOM     14  C   UNL     1      45.989   3.105   7.859  0.00  0.00    +0.000 A 
ATOM     15  C   UNL     1      46.904   2.988   6.682  0.00  0.00    +0.000 C 
ATOM     16  C   UNL     1      45.498   1.971   8.496  0.00  0.00    +0.000 A 
ATOM     17  N   UNL     1      44.672   1.994   9.569  0.00  0.00    +0.000 NA
ENDBRANCH  10  11
ENDBRANCH   9  10
ENDBRANCH   8   9
ENDBRANCH   5   8
ENDBRANCH   1   2
BRANCH   1  20
ATOM     18  C   UNL     1      49.491   7.907  14.990  0.00  0.00    +0.000 C 
ATOM     19  O   UNL     1      48.840   8.948  14.950  0.00  0.00    +0.000 OA
ATOM     20  N   UNL     1      49.489   7.028  13.942  0.00  0.00    +0.000 N 
ATOM     21  H   UNL     1      50.064   6.197  13.987  0.00  0.00    +0.000 HD
BRANCH  18  29
ATOM     22  C   UNL     1      49.566   5.172  17.082  0.00  0.00    +0.000 A 
ATOM     23  N   UNL     1      49.815   4.239  18.022  0.00  0.00    +0.000 NA
ATOM     24  C   UNL     1      50.782   4.487  18.910  0.00  0.00    +0.000 A 
ATOM     25  N   UNL     1      51.545   5.574  18.981  0.00  0.00    +0.000 NA
ATOM     26  C   UNL     1      51.269   6.475  18.023  0.00  0.00    +0.000 A 
ATOM     27  S   UNL     1      52.144   7.928  17.962  0.00  0.00    +0.000 S 
ATOM     28  C   UNL     1      51.272   8.455  16.600  0.00  0.00    +0.000 A 
ATOM     29  C   UNL     1      50.310   7.551  16.162  0.00  0.00    +0.000 A 
ATOM     30  C   UNL     1      50.307   6.366  17.022  0.00  0.00    +0.000 A 
BRANCH  22  32
ATOM     31  C   UNL     1      47.514   4.121  16.660  0.00  0.00    +0.000 C 
ATOM     32  O   UNL     1      48.590   4.901  16.145  0.00  0.00    +0.000 OA
ENDBRANCH  22  32
ENDBRANCH  18  29
ENDBRANCH   1  20
TORSDOF 8
ENDMDL
MODEL 5
REMARK VINA RESULT:    -7.380      1.667      2.535
REMARK INTER + INTRA:         -12.231
REMARK INTER:                 -11.033
REMARK INTRA:                  -1.198
REMARK UNBOUND:                -1.399
REMARK  Name = 
REMARK  10 active torsions:
REMARK  status: ('A' for Active; 'I' for Inactive)
REMARK    1  A    between atoms: C_1  and  O_2
REMARK    2  A    between atoms: O_2  and  C_3
REMARK    3  A    between atoms: C_10  and  C_11
REMARK    4  A    between atoms: N_13  and  C_14
REMARK    5  A    between atoms: C_14  and  C_15
REMARK    6  A    between atoms: C_18  and  C_19
REMARK    7  A    between atoms: C_19  and  C_20
REMARK    8  A    between atoms: C_20  and  C_21
REMARK    9  A    between atoms: C_21  and  C_22
REMARK   10  A    between atoms: C_25  and  C_26
REMARK                            x       y       z     vdW  Elec       q    Type
REMARK                         _______ _______ _______ _____ _____    ______ ____
ROOT
ATOM      1  C   UNL     1      47.770   8.909  14.003  0.00  0.00    +0.000 C 
ENDROOT
BRANCH   1   2
ATOM      2  C   UNL     1      46.905   7.900  13.303  0.00  0.00    +0.000 A 
ATOM      3  C   UNL     1      47.300   6.569  13.152  0.00  0.00    +0.000 A 
ATOM      4  C   UNL     1      46.486   5.676  12.453  0.00  0.00    +0.000 A 
ATOM      5  C   UNL     1      45.290   6.135  11.907  0.00  0.00    +0.000 A 
ATOM      6  N   UNL     1      44.898   7.427  12.020  0.00  0.00    +0.000 NA
ATOM      7  C   UNL     1      45.705   8.271  12.709  0.00  0.00    +0.000 A 
BRANCH   5   8
ATOM      8  C   UNL     1      44.393   5.211  11.117  0.00  0.00    +0.000 C 
BRANCH   8   9
ATOM      9  C   UNL     1      44.894   3.766  11.174  0.00  0.00    +0.000 C 
BRANCH   9  10
ATOM     10  C   UNL     1      44.262   2.885  10.091  0.00  0.00    +0.000 C 
BRANCH  10  11
ATOM     11  C   UNL     1      45.190   2.738   8.909  0.00  0.00    +0.000 A 
ATOM     12  C   UNL     1      45.477   3.829   8.093  0.00  0.00    +0.000 A 
ATOM     13  C   UNL     1      46.374   3.666   7.037  0.00  0.00    +0.000 A 
ATOM     14  C   UNL     1      46.965   2.424   6.816  0.00  0.00    +0.000 A 
ATOM     15  C   UNL     1      47.934   2.194   5.700  0.00  0.00    +0.000 C 
ATOM     16  C   UNL     1      46.618   1.392   7.681  0.00  0.00    +0.000 A 
ATOM     17  N   UNL     1      45.756   1.522   8.717  0.00  0.00    +0.000 NA
ENDBRANCH  10  11
ENDBRANCH   9  10
ENDBRANCH   8   9
ENDBRANCH   5   8
ENDBRANCH   1   2
BRANCH   1  20
ATOM     18  C   UNL     1      48.271   9.621  16.316  0.00  0.00    +0.000 C 
ATOM     19  O   UNL     1      49.124  10.419  15.932  0.00  0.00    +0.000 OA
ATOM     20  N   UNL     1      47.572   8.849  15.431  0.00  0.00    +0.000 N 
ATOM     21  H   UNL     1      46.903   8.174  15.777  0.00  0.00    +0.000 HD
BRANCH  18  29
ATOM     22  C   UNL     1      48.104   6.875  18.388  0.00  0.00    +0.000 A 
ATOM     23  N   UNL     1      47.984   5.995  19.401  0.00  0.00    +0.000 NA
ATOM     24  C   UNL     1      47.655   6.468  20.607  0.00  0.00    +0.000 A 
ATOM     25  N   UNL     1      47.425   7.737  20.934  0.00  0.00    +0.000 NA
ATOM     26  C   UNL     1      47.562   8.581  19.898  0.00  0.00    +0.000 A 
ATOM     27  S   UNL     1      47.300  10.242  20.129  0.00  0.00    +0.000 S 
ATOM     28  C   UNL     1      47.641  10.576  18.498  0.00  0.00    +0.000 A 
ATOM     29  C   UNL     1      47.961   9.450  17.747  0.00  0.00    +0.000 A 
ATOM     30  C   UNL     1      47.906   8.253  18.589  0.00  0.00    +0.000 A 
BRANCH  22  32
ATOM     31  C   UNL     1      49.874   6.145  17.036  0.00  0.00    +0.000 C 
ATOM     32  O   UNL     1      48.474   6.390  17.151  0.00  0.00    +0.000 OA
ENDBRANCH  22  32
ENDBRANCH  18  29
ENDBRANCH   1  20
TORSDOF 8
ENDMDL
MODEL 6
REMARK VINA RESULT:    -6.810      3.687      5.290
REMARK INTER + INTRA:         -11.394
REMARK INTER:                 -10.115
REMARK INTRA:                  -1.279
REMARK UNBOUND:                -1.399
REMARK  Name = 
REMARK  10 active torsions:
REMARK  status: ('A' for Active; 'I' for Inactive)
REMARK    1  A    between atoms: C_1  and  O_2
REMARK    2  A    between atoms: O_2  and  C_3
REMARK    3  A    between atoms: C_10  and  C_11
REMARK    4  A    between atoms: N_13  and  C_14
REMARK    5  A    between atoms: C_14  and  C_15
REMARK    6  A    between atoms: C_18  and  C_19
REMARK    7  A    between atoms: C_19  and  C_20
REMARK    8  A    between atoms: C_20  and  C_21
REMARK    9  A    between atoms: C_21  and  C_22
REMARK   10  A    between atoms: C_25  and  C_26
REMARK                            x       y       z     vdW  Elec       q    Type
REMARK                         _______ _______ _______ _____ _____    ______ ____
ROOT
ATOM      1  C   UNL     1      48.116   3.277  17.720  0.00  0.00    +0.000 C 
ENDROOT
BRANCH   1   2
ATOM      2  C   UNL     1      47.905   4.081  16.469  0.00  0.00    +0.000 A 
ATOM      3  C   UNL     1      48.396   5.382  16.338  0.00  0.00    +0.000 A 
ATOM      4  C   UNL     1      48.136   6.110  15.176  0.00  0.00    +0.000 A 
ATOM      5  C   UNL     1      47.378   5.525  14.166  0.00  0.00    +0.000 A 
ATOM      6  N   UNL     1      46.872   4.274  14.280  0.00  0.00    +0.000 NA
ATOM      7  C   UNL     1      47.144   3.587  15.417  0.00  0.00    +0.000 A 
BRANCH   5   8
ATOM      8  C   UNL     1      47.047   6.289  12.904  0.00  0.00    +0.000 C 
BRANCH   8   9
ATOM      9  C   UNL     1      45.573   6.700  12.873  0.00  0.00    +0.000 C 
BRANCH   9  10
ATOM     10  C   UNL     1      45.047   6.881  11.445  0.00  0.00    +0.000 C 
BRANCH  10  11
ATOM     11  C   UNL     1      44.956   5.551  10.733  0.00  0.00    +0.000 A 
ATOM     12  C   UNL     1      45.571   5.365   9.497  0.00  0.00    +0.000 A 
ATOM     13  C   UNL     1      45.504   4.111   8.891  0.00  0.00    +0.000 A 
ATOM     14  C   UNL     1      44.828   3.070   9.526  0.00  0.00    +0.000 A 
ATOM     15  C   UNL     1      44.728   1.706   8.922  0.00  0.00    +0.000 C 
ATOM     16  C   UNL     1      44.246   3.349  10.757  0.00  0.00    +0.000 A 
ATOM     17  N   UNL     1      44.299   4.554  11.372  0.00  0.00    +0.000 NA
ENDBRANCH  10  11
ENDBRANCH   9  10
ENDBRANCH   8   9
ENDBRANCH   5   8
ENDBRANCH   1   2
BRANCH   1  20
ATOM     18  C   UNL     1      50.291   2.234  17.180  0.00  0.00    +0.000 C 
ATOM     19  O   UNL     1      49.812   1.624  16.226  0.00  0.00    +0.000 OA
ATOM     20  N   UNL     1      49.522   3.057  17.955  0.00  0.00    +0.000 N 
ATOM     21  H   UNL     1      49.935   3.517  18.756  0.00  0.00    +0.000 HD
BRANCH  18  29
ATOM     22  C   UNL     1      52.798   4.523  17.757  0.00  0.00    +0.000 A 
ATOM     23  N   UNL     1      53.936   5.187  18.041  0.00  0.00    +0.000 NA
ATOM     24  C   UNL     1      55.024   4.469  18.337  0.00  0.00    +0.000 A 
ATOM     25  N   UNL     1      55.120   3.144  18.382  0.00  0.00    +0.000 NA
ATOM     26  C   UNL     1      53.963   2.521  18.099  0.00  0.00    +0.000 A 
ATOM     27  S   UNL     1      53.901   0.825  18.104  0.00  0.00    +0.000 S 
ATOM     28  C   UNL     1      52.252   0.833  17.690  0.00  0.00    +0.000 A 
ATOM     29  C   UNL     1      51.714   2.107  17.543  0.00  0.00    +0.000 A 
ATOM     30  C   UNL     1      52.746   3.118  17.782  0.00  0.00    +0.000 A 
BRANCH  22  32
ATOM     31  C   UNL     1      51.882   6.282  16.507  0.00  0.00    +0.000 C 
ATOM     32  O   UNL     1      51.668   5.265  17.483  0.00  0.00    +0.000 OA
ENDBRANCH  22  32
ENDBRANCH  18  29
ENDBRANCH   1  20
TORSDOF 8
ENDMDL
MODEL 7
REMARK VINA RESULT:    -6.720      5.304      9.751
REMARK INTER + INTRA:         -11.262
REMARK INTER:                 -10.157
REMARK INTRA:                  -1.106
REMARK UNBOUND:                -1.399
REMARK  Name = 
REMARK  10 active torsions:
REMARK  status: ('A' for Active; 'I' for Inactive)
REMARK    1  A    between atoms: C_1  and  O_2
REMARK    2  A    between atoms: O_2  and  C_3
REMARK    3  A    between atoms: C_10  and  C_11
REMARK    4  A    between atoms: N_13  and  C_14
REMARK    5  A    between atoms: C_14  and  C_15
REMARK    6  A    between atoms: C_18  and  C_19
REMARK    7  A    between atoms: C_19  and  C_20
REMARK    8  A    between atoms: C_20  and  C_21
REMARK    9  A    between atoms: C_21  and  C_22
REMARK   10  A    between atoms: C_25  and  C_26
REMARK                            x       y       z     vdW  Elec       q    Type
REMARK                         _______ _______ _______ _____ _____    ______ ____
ROOT
ATOM      1  C   UNL     1      47.235   3.357  16.668  0.00  0.00    +0.000 C 
ENDROOT
BRANCH   1   2
ATOM      2  C   UNL     1      48.679   3.532  17.043  0.00  0.00    +0.000 A 
ATOM      3  C   UNL     1      49.573   2.460  17.055  0.00  0.00    +0.000 A 
ATOM      4  C   UNL     1      50.895   2.660  17.456  0.00  0.00    +0.000 A 
ATOM      5  C   UNL     1      51.299   3.934  17.847  0.00  0.00    +0.000 A 
ATOM      6  N   UNL     1      50.444   4.985  17.864  0.00  0.00    +0.000 NA
ATOM      7  C   UNL     1      49.166   4.763  17.466  0.00  0.00    +0.000 A 
BRANCH   5   8
ATOM      8  C   UNL     1      52.712   4.190  18.316  0.00  0.00    +0.000 C 
BRANCH   8   9
ATOM      9  C   UNL     1      53.663   3.086  17.846  0.00  0.00    +0.000 C 
BRANCH   9  10
ATOM     10  C   UNL     1      54.106   2.171  18.993  0.00  0.00    +0.000 C 
BRANCH  10  11
ATOM     11  C   UNL     1      54.345   0.764  18.497  0.00  0.00    +0.000 A 
ATOM     12  C   UNL     1      54.402   0.494  17.132  0.00  0.00    +0.000 A 
ATOM     13  C   UNL     1      54.670  -0.809  16.711  0.00  0.00    +0.000 A 
ATOM     14  C   UNL     1      54.875  -1.813  17.656  0.00  0.00    +0.000 A 
ATOM     15  C   UNL     1      55.167  -3.226  17.260  0.00  0.00    +0.000 C 
ATOM     16  C   UNL     1      54.798  -1.450  18.995  0.00  0.00    +0.000 A 
ATOM     17  N   UNL     1      54.546  -0.194  19.433  0.00  0.00    +0.000 NA
ENDBRANCH  10  11
ENDBRANCH   9  10
ENDBRANCH   8   9
ENDBRANCH   5   8
ENDBRANCH   1   2
BRANCH   1  20
ATOM     18  C   UNL     1      46.877   4.239  14.387  0.00  0.00    +0.000 C 
ATOM     19  O   UNL     1      47.301   3.206  13.873  0.00  0.00    +0.000 OA
ATOM     20  N   UNL     1      46.818   4.384  15.746  0.00  0.00    +0.000 N 
ATOM     21  H   UNL     1      46.499   5.259  16.140  0.00  0.00    +0.000 HD
BRANCH  18  29
ATOM     22  C   UNL     1      44.049   4.808  12.506  0.00  0.00    +0.000 A 
ATOM     23  N   UNL     1      43.059   5.288  11.728  0.00  0.00    +0.000 NA
ATOM     24  C   UNL     1      43.204   6.513  11.214  0.00  0.00    +0.000 A 
ATOM     25  N   UNL     1      44.236   7.335  11.382  0.00  0.00    +0.000 NA
ATOM     26  C   UNL     1      45.196   6.821  12.170  0.00  0.00    +0.000 A 
ATOM     27  S   UNL     1      46.593   7.731  12.491  0.00  0.00    +0.000 S 
ATOM     28  C   UNL     1      47.236   6.494  13.464  0.00  0.00    +0.000 A 
ATOM     29  C   UNL     1      46.416   5.376  13.570  0.00  0.00    +0.000 A 
ATOM     30  C   UNL     1      45.195   5.573  12.787  0.00  0.00    +0.000 A 
BRANCH  22  32
ATOM     31  C   UNL     1      43.486   2.566  12.117  0.00  0.00    +0.000 C 
ATOM     32  O   UNL     1      43.884   3.556  13.062  0.00  0.00    +0.000 OA
ENDBRANCH  22  32
ENDBRANCH  18  29
ENDBRANCH   1  20
TORSDOF 8
ENDMDL
MODEL 8
REMARK VINA RESULT:    -6.309      2.527      3.164
REMARK INTER + INTRA:         -10.658
REMARK INTER:                  -9.002
REMARK INTRA:                  -1.656
REMARK UNBOUND:                -1.399
REMARK  Name = 
REMARK  10 active torsions:
REMARK  status: ('A' for Active; 'I' for Inactive)
REMARK    1  A    between atoms: C_1  and  O_2
REMARK    2  A    between atoms: O_2  and  C_3
REMARK    3  A    between atoms: C_10  and  C_11
REMARK    4  A    between atoms: N_13  and  C_14
REMARK    5  A    between atoms: C_14  and  C_15
REMARK    6  A    between atoms: C_18  and  C_19
REMARK    7  A    between atoms: C_19  and  C_20
REMARK    8  A    between atoms: C_20  and  C_21
REMARK    9  A    between atoms: C_21  and  C_22
REMARK   10  A    between atoms: C_25  and  C_26
REMARK                            x       y       z     vdW  Elec       q    Type
REMARK                         _______ _______ _______ _____ _____    ______ ____
ROOT
ATOM      1  C   UNL     1      48.891   9.437  12.256  0.00  0.00    +0.000 C 
ENDROOT
BRANCH   1   2
ATOM      2  C   UNL     1      47.711   8.517  12.138  0.00  0.00    +0.000 A 
ATOM      3  C   UNL     1      47.856   7.173  11.786  0.00  0.00    +0.000 A 
ATOM      4  C   UNL     1      46.727   6.365  11.642  0.00  0.00    +0.000 A 
ATOM      5  C   UNL     1      45.467   6.920  11.844  0.00  0.00    +0.000 A 
ATOM      6  N   UNL     1      45.300   8.226  12.164  0.00  0.00    +0.000 NA
ATOM      7  C   UNL     1      46.414   8.987  12.302  0.00  0.00    +0.000 A 
BRANCH   5   8
ATOM      8  C   UNL     1      44.216   6.090  11.669  0.00  0.00    +0.000 C 
BRANCH   8   9
ATOM      9  C   UNL     1      44.546   4.598  11.585  0.00  0.00    +0.000 C 
BRANCH   9  10
ATOM     10  C   UNL     1      43.812   3.901  10.435  0.00  0.00    +0.000 C 
BRANCH  10  11
ATOM     11  C   UNL     1      44.785   3.439   9.376  0.00  0.00    +0.000 A 
ATOM     12  C   UNL     1      45.434   4.361   8.560  0.00  0.00    +0.000 A 
ATOM     13  C   UNL     1      46.360   3.900   7.624  0.00  0.00    +0.000 A 
ATOM     14  C   UNL     1      46.620   2.535   7.521  0.00  0.00    +0.000 A 
ATOM     15  C   UNL     1      47.605   1.988   6.537  0.00  0.00    +0.000 C 
ATOM     16  C   UNL     1      45.924   1.690   8.377  0.00  0.00    +0.000 A 
ATOM     17  N   UNL     1      45.025   2.108   9.299  0.00  0.00    +0.000 NA
ENDBRANCH  10  11
ENDBRANCH   9  10
ENDBRANCH   8   9
ENDBRANCH   5   8
ENDBRANCH   1   2
BRANCH   1  20
ATOM     18  C   UNL     1      50.624   9.102  13.986  0.00  0.00    +0.000 C 
ATOM     19  O   UNL     1      51.430   8.680  13.160  0.00  0.00    +0.000 OA
ATOM     20  N   UNL     1      49.365   9.489  13.618  0.00  0.00    +0.000 N 
ATOM     21  H   UNL     1      48.711   9.797  14.324  0.00  0.00    +0.000 HD
BRANCH  18  29
ATOM     22  C   UNL     1      49.094   8.016  16.874  0.00  0.00    +0.000 A 
ATOM     23  N   UNL     1      48.726   7.702  18.132  0.00  0.00    +0.000 NA
ATOM     24  C   UNL     1      49.517   8.098  19.134  0.00  0.00    +0.000 A 
ATOM     25  N   UNL     1      50.652   8.784  19.035  0.00  0.00    +0.000 NA
ATOM     26  C   UNL     1      50.986   9.070  17.765  0.00  0.00    +0.000 A 
ATOM     27  S   UNL     1      52.405   9.946  17.449  0.00  0.00    +0.000 S 
ATOM     28  C   UNL     1      52.127   9.889  15.773  0.00  0.00    +0.000 A 
ATOM     29  C   UNL     1      50.967   9.210  15.416  0.00  0.00    +0.000 A 
ATOM     30  C   UNL     1      50.281   8.725  16.615  0.00  0.00    +0.000 A 
BRANCH  22  32
ATOM     31  C   UNL     1      48.611   6.262  15.396  0.00  0.00    +0.000 C 
ATOM     32  O   UNL     1      48.294   7.580  15.839  0.00  0.00    +0.000 OA
ENDBRANCH  22  32
ENDBRANCH  18  29
ENDBRANCH   1  20
TORSDOF 8
ENDMDL
MODEL 9
REMARK VINA RESULT:    -6.281      3.516      4.804
REMARK INTER + INTRA:         -10.618
REMARK INTER:                  -9.305
REMARK INTRA:                  -1.313
REMARK UNBOUND:                -1.399
REMARK  Name = 
REMARK  10 active torsions:
REMARK  status: ('A' for Active; 'I' for Inactive)
REMARK    1  A    between atoms: C_1  and  O_2
REMARK    2  A    between atoms: O_2  and  C_3
REMARK    3  A    between atoms: C_10  and  C_11
REMARK    4  A    between atoms: N_13  and  C_14
REMARK    5  A    between atoms: C_14  and  C_15
REMARK    6  A    between atoms: C_18  and  C_19
REMARK    7  A    between atoms: C_19  and  C_20
REMARK    8  A    between atoms: C_20  and  C_21
REMARK    9  A    between atoms: C_21  and  C_22
REMARK   10  A    between atoms: C_25  and  C_26
REMARK                            x       y       z     vdW  Elec       q    Type
REMARK                         _______ _______ _______ _____ _____    ______ ____
ROOT
ATOM      1  C   UNL     1      48.420   9.129  12.128  0.00  0.00    +0.000 C 
ENDROOT
BRANCH   1   2
ATOM      2  C   UNL     1      47.281   8.150  12.129  0.00  0.00    +0.000 A 
ATOM      3  C   UNL     1      45.949   8.569  12.161  0.00  0.00    +0.000 A 
ATOM      4  C   UNL     1      44.923   7.624  12.208  0.00  0.00    +0.000 A 
ATOM      5  C   UNL     1      45.250   6.271  12.231  0.00  0.00    +0.000 A 
ATOM      6  N   UNL     1      46.534   5.841  12.223  0.00  0.00    +0.000 NA
ATOM      7  C   UNL     1      47.511   6.780  12.172  0.00  0.00    +0.000 A 
BRANCH   5   8
ATOM      8  C   UNL     1      44.171   5.214  12.312  0.00  0.00    +0.000 C 
BRANCH   8   9
ATOM      9  C   UNL     1      44.519   3.997  11.451  0.00  0.00    +0.000 C 
BRANCH   9  10
ATOM     10  C   UNL     1      44.060   4.160   9.998  0.00  0.00    +0.000 C 
BRANCH  10  11
ATOM     11  C   UNL     1      45.078   3.579   9.045  0.00  0.00    +0.000 A 
ATOM     12  C   UNL     1      45.302   2.206   8.997  0.00  0.00    +0.000 A 
ATOM     13  C   UNL     1      46.217   1.702   8.073  0.00  0.00    +0.000 A 
ATOM     14  C   UNL     1      46.887   2.574   7.216  0.00  0.00    +0.000 A 
ATOM     15  C   UNL     1      47.876   2.087   6.205  0.00  0.00    +0.000 C 
ATOM     16  C   UNL     1      46.599   3.928   7.336  0.00  0.00    +0.000 A 
ATOM     17  N   UNL     1      45.713   4.446   8.220  0.00  0.00    +0.000 NA
ENDBRANCH  10  11
ENDBRANCH   9  10
ENDBRANCH   8   9
ENDBRANCH   5   8
ENDBRANCH   1   2
BRANCH   1  20
ATOM     18  C   UNL     1      49.848   8.854  14.127  0.00  0.00    +0.000 C 
ATOM     19  O   UNL     1      49.131   9.595  14.796  0.00  0.00    +0.000 OA
ATOM     20  N   UNL     1      49.564   8.582  12.817  0.00  0.00    +0.000 N 
ATOM     21  H   UNL     1      50.192   7.999  12.281  0.00  0.00    +0.000 HD
BRANCH  18  29
ATOM     22  C   UNL     1      53.104   8.564  13.041  0.00  0.00    +0.000 A 
ATOM     23  N   UNL     1      54.417   8.319  12.868  0.00  0.00    +0.000 NA
ATOM     24  C   UNL     1      55.060   7.638  13.821  0.00  0.00    +0.000 A 
ATOM     25  N   UNL     1      54.543   7.157  14.947  0.00  0.00    +0.000 NA
ATOM     26  C   UNL     1      53.234   7.427  15.085  0.00  0.00    +0.000 A 
ATOM     27  S   UNL     1      52.405   6.885  16.463  0.00  0.00    +0.000 S 
ATOM     28  C   UNL     1      50.947   7.572  15.920  0.00  0.00    +0.000 A 
ATOM     29  C   UNL     1      51.053   8.224  14.696  0.00  0.00    +0.000 A 
ATOM     30  C   UNL     1      52.425   8.130  14.194  0.00  0.00    +0.000 A 
BRANCH  22  32
ATOM     31  C   UNL     1      52.845   8.957  10.745  0.00  0.00    +0.000 C 
ATOM     32  O   UNL     1      52.449   9.295  12.072  0.00  0.00    +0.000 OA
ENDBRANCH  22  32
ENDBRANCH  18  29
ENDBRANCH   1  20
TORSDOF 8
ENDMDL
