MODEL 1
REMARK VINA RESULT:    -8.588      0.000      0.000
REMARK INTER + INTRA:         -10.980
REMARK INTER:                 -10.596
REMARK INTRA:                  -0.384
REMARK UNBOUND:                -0.384
REMARK  Name = 
REMARK  4 active torsions:
REMARK  status: ('A' for Active; 'I' for Inactive)
REMARK    1  A    between atoms: C_2  and  C_5
REMARK    2  A    between atoms: N_10  and  C_11
REMARK    3  A    between atoms: C_11  and  C_12
REMARK    4  A    between atoms: C_16  and  C_17
REMARK                            x       y       z     vdW  Elec       q    Type
REMARK                         _______ _______ _______ _____ _____    ______ ____
ROOT
ATOM      1  C   UNL     1      43.473   3.100  11.745  0.00  0.00    +0.000 C 
ENDROOT
BRANCH   1   7
ATOM      2  C   UNL     1      46.056   2.177   7.967  0.00  0.00    +0.000 A 
ATOM      3  C   UNL     1      45.737   3.387   7.380  0.00  0.00    +0.000 A 
ATOM      4  C   UNL     1      44.796   4.141   8.033  0.00  0.00    +0.000 A 
ATOM      5  N   UNL     1      44.195   3.753   9.170  0.00  0.00    +0.000 NA
ATOM      6  C   UNL     1      44.545   2.565   9.678  0.00  0.00    +0.000 A 
ATOM      7  N   UNL     1      43.922   2.080  10.814  0.00  0.00    +0.000 N 
ATOM      8  N   UNL     1      45.466   1.767   9.123  0.00  0.00    +0.000 NA
ATOM      9  H   UNL     1      44.529   1.379  11.226  0.00  0.00    +0.000 HD
BRANCH   2  11
ATOM     10  F   UNL     1      46.806   1.032   5.984  0.00  0.00    +0.000 F 
ATOM     11  C   UNL     1      47.077   1.267   7.303  0.00  0.00    +0.000 C 
ATOM     12  F   UNL     1      47.153   0.034   7.879  0.00  0.00    +0.000 F 
ATOM     13  F   UNL     1      48.342   1.776   7.323  0.00  0.00    +0.000 F 
ENDBRANCH   2  11
ENDBRANCH   1   7
BRANCH   1  14
ATOM     14  C   UNL     1      44.664   3.888  12.268  0.00  0.00    +0.000 A 
ATOM     15  C   UNL     1      45.714   3.216  12.888  0.00  0.00    +0.000 A 
ATOM     16  C   UNL     1      46.789   3.954  13.366  0.00  0.00    +0.000 A 
ATOM     17  C   UNL     1      46.798   5.333  13.193  0.00  0.00    +0.000 A 
ATOM     18  C   UNL     1      45.734   5.950  12.534  0.00  0.00    +0.000 A 
ATOM     19  N   UNL     1      44.669   5.237  12.082  0.00  0.00    +0.000 NA
BRANCH  18  20
ATOM     20  C   UNL     1      45.688   7.403  12.296  0.00  0.00    +0.000 A 
ATOM     21  C   UNL     1      46.667   8.259  12.808  0.00  0.00    +0.000 A 
ATOM     22  N   UNL     1      46.712   9.604  12.610  0.00  0.00    +0.000 NA
ATOM     23  C   UNL     1      45.716  10.139  11.869  0.00  0.00    +0.000 A 
ATOM     24  C   UNL     1      44.685   9.392  11.326  0.00  0.00    +0.000 A 
ATOM     25 CL   UNL     1      43.449  10.140  10.398  0.00  0.00    +0.000 Cl
ATOM     26  C   UNL     1      44.671   8.018  11.544  0.00  0.00    +0.000 A 
ENDBRANCH  18  20
ENDBRANCH   1  14
TORSDOF 4
ENDMDL
MODEL 2
REMARK VINA RESULT:    -8.143      3.108      4.473
REMARK INTER + INTRA:         -10.431
REMARK INTER:                 -10.020
REMARK INTRA:                  -0.411
REMARK UNBOUND:                -0.384
REMARK  Name = 
REMARK  4 active torsions:
REMARK  status: ('A' for Active; 'I' for Inactive)
REMARK    1  A    between atoms: C_2  and  C_5
REMARK    2  A    between atoms: N_10  and  C_11
REMARK    3  A    between atoms: C_11  and  C_12
REMARK    4  A    between atoms: C_16  and  C_17
REMARK                            x       y       z     vdW  Elec       q    Type
REMARK                         _______ _______ _______ _____ _____    ______ ____
ROOT
ATOM      1  C   UNL     1      43.994   3.652  11.977  0.00  0.00    +0.000 C 
ENDROOT
BRANCH   1   7
ATOM      2  C   UNL     1      46.019   2.204   8.028  0.00  0.00    +0.000 A 
ATOM      3  C   UNL     1      45.454   3.228   7.292  0.00  0.00    +0.000 A 
ATOM      4  C   UNL     1      44.542   4.010   7.954  0.00  0.00    +0.000 A 
ATOM      5  N   UNL     1      44.192   3.814   9.236  0.00  0.00    +0.000 NA
ATOM      6  C   UNL     1      44.772   2.798   9.887  0.00  0.00    +0.000 A 
ATOM      7  N   UNL     1      44.412   2.506  11.190  0.00  0.00    +0.000 N 
ATOM      8  N   UNL     1      45.685   1.993   9.331  0.00  0.00    +0.000 NA
ATOM      9  H   UNL     1      45.165   1.968  11.607  0.00  0.00    +0.000 HD
BRANCH   2  11
ATOM     10  F   UNL     1      47.153   0.078   8.017  0.00  0.00    +0.000 F 
ATOM     11  C   UNL     1      47.027   1.276   7.370  0.00  0.00    +0.000 C 
ATOM     12  F   UNL     1      48.287   1.795   7.328  0.00  0.00    +0.000 F 
ATOM     13  F   UNL     1      46.703   0.956   6.084  0.00  0.00    +0.000 F 
ENDBRANCH   2  11
ENDBRANCH   1   7
BRANCH   1  14
ATOM     14  C   UNL     1      45.210   4.408  12.486  0.00  0.00    +0.000 A 
ATOM     15  C   UNL     1      45.701   5.490  11.760  0.00  0.00    +0.000 A 
ATOM     16  C   UNL     1      46.818   6.163  12.237  0.00  0.00    +0.000 A 
ATOM     17  C   UNL     1      47.399   5.754  13.431  0.00  0.00    +0.000 A 
ATOM     18  C   UNL     1      46.847   4.683  14.134  0.00  0.00    +0.000 A 
ATOM     19  N   UNL     1      45.766   4.007  13.663  0.00  0.00    +0.000 NA
BRANCH  18  20
ATOM     20  C   UNL     1      47.397   4.211  15.416  0.00  0.00    +0.000 A 
ATOM     21  C   UNL     1      47.867   2.904  15.572  0.00  0.00    +0.000 A 
ATOM     22  N   UNL     1      48.414   2.400  16.711  0.00  0.00    +0.000 NA
ATOM     23  C   UNL     1      48.488   3.238  17.768  0.00  0.00    +0.000 A 
ATOM     24  C   UNL     1      48.039   4.547  17.735  0.00  0.00    +0.000 A 
ATOM     25 CL   UNL     1      48.160   5.556  19.119  0.00  0.00    +0.000 Cl
ATOM     26  C   UNL     1      47.489   5.033  16.553  0.00  0.00    +0.000 A 
ENDBRANCH  18  20
ENDBRANCH   1  14
TORSDOF 4
ENDMDL
MODEL 3
REMARK VINA RESULT:    -7.935      5.191      7.862
REMARK INTER + INTRA:         -10.174
REMARK INTER:                  -9.709
REMARK INTRA:                  -0.465
REMARK UNBOUND:                -0.384
REMARK  Name = 
REMARK  4 active torsions:
REMARK  status: ('A' for Active; 'I' for Inactive)
REMARK    1  A    between atoms: C_2  and  C_5
REMARK    2  A    between atoms: N_10  and  C_11
REMARK    3  A    between atoms: C_11  and  C_12
REMARK    4  A    between atoms: C_16  and  C_17
REMARK                            x       y       z     vdW  Elec       q    Type
REMARK                         _______ _______ _______ _____ _____    ______ ____
ROOT
ATOM      1  C   UNL     1      45.957   5.713  13.450  0.00  0.00    +0.000 C 
ENDROOT
BRANCH   1   7
ATOM      2  C   UNL     1      48.644   4.387  17.029  0.00  0.00    +0.000 A 
ATOM      3  C   UNL     1      49.375   5.560  16.993  0.00  0.00    +0.000 A 
ATOM      4  C   UNL     1      49.105   6.403  15.945  0.00  0.00    +0.000 A 
ATOM      5  N   UNL     1      48.199   6.130  14.991  0.00  0.00    +0.000 NA
ATOM      6  C   UNL     1      47.534   4.972  15.084  0.00  0.00    +0.000 A 
ATOM      7  N   UNL     1      46.631   4.605  14.102  0.00  0.00    +0.000 N 
ATOM      8  N   UNL     1      47.715   4.095  16.078  0.00  0.00    +0.000 NA
ATOM      9  H   UNL     1      46.004   3.914  14.500  0.00  0.00    +0.000 HD
BRANCH   2  11
ATOM     10  F   UNL     1      47.798   2.604  18.412  0.00  0.00    +0.000 F 
ATOM     11  C   UNL     1      48.889   3.386  18.147  0.00  0.00    +0.000 C 
ATOM     12  F   UNL     1      49.207   3.974  19.335  0.00  0.00    +0.000 F 
ATOM     13  F   UNL     1      49.898   2.511  17.872  0.00  0.00    +0.000 F 
ENDBRANCH   2  11
ENDBRANCH   1   7
BRANCH   1  14
ATOM     14  C   UNL     1      45.031   5.194  12.362  0.00  0.00    +0.000 A 
ATOM     15  C   UNL     1      43.653   5.324  12.512  0.00  0.00    +0.000 A 
ATOM     16  C   UNL     1      42.823   4.837  11.511  0.00  0.00    +0.000 A 
ATOM     17  C   UNL     1      43.389   4.255  10.382  0.00  0.00    +0.000 A 
ATOM     18  C   UNL     1      44.777   4.180  10.269  0.00  0.00    +0.000 A 
ATOM     19  N   UNL     1      45.595   4.637  11.254  0.00  0.00    +0.000 NA
BRANCH  18  20
ATOM     20  C   UNL     1      45.445   3.598   9.092  0.00  0.00    +0.000 A 
ATOM     21  C   UNL     1      45.873   4.395   8.027  0.00  0.00    +0.000 A 
ATOM     22  N   UNL     1      46.520   3.939   6.921  0.00  0.00    +0.000 NA
ATOM     23  C   UNL     1      46.746   2.609   6.857  0.00  0.00    +0.000 A 
ATOM     24  C   UNL     1      46.352   1.721   7.844  0.00  0.00    +0.000 A 
ATOM     25 CL   UNL     1      46.667   0.040   7.695  0.00  0.00    +0.000 Cl
ATOM     26  C   UNL     1      45.696   2.220   8.965  0.00  0.00    +0.000 A 
ENDBRANCH  18  20
ENDBRANCH   1  14
TORSDOF 4
ENDMDL
MODEL 4
REMARK VINA RESULT:    -7.658      4.832      7.458
REMARK INTER + INTRA:          -9.833
REMARK INTER:                  -9.197
REMARK INTRA:                  -0.636
REMARK UNBOUND:                -0.384
REMARK  Name = 
REMARK  4 active torsions:
REMARK  status: ('A' for Active; 'I' for Inactive)
REMARK    1  A    between atoms: C_2  and  C_5
REMARK    2  A    between atoms: N_10  and  C_11
REMARK    3  A    between atoms: C_11  and  C_12
REMARK    4  A    between atoms: C_16  and  C_17
REMARK                            x       y       z     vdW  Elec       q    Type
REMARK                         _______ _______ _______ _____ _____    ______ ____
ROOT
ATOM      1  C   UNL     1      45.280   6.487  12.914  0.00  0.00    +0.000 C 
ENDROOT
BRANCH   1   7
ATOM      2  C   UNL     1      49.716   7.440  14.011  0.00  0.00    +0.000 A 
ATOM      3  C   UNL     1      50.009   7.850  12.724  0.00  0.00    +0.000 A 
ATOM      4  C   UNL     1      49.019   7.660  11.794  0.00  0.00    +0.000 A 
ATOM      5  N   UNL     1      47.830   7.105  12.082  0.00  0.00    +0.000 NA
ATOM      6  C   UNL     1      47.617   6.724  13.348  0.00  0.00    +0.000 A 
ATOM      7  N   UNL     1      46.436   6.092  13.698  0.00  0.00    +0.000 N 
ATOM      8  N   UNL     1      48.514   6.884  14.327  0.00  0.00    +0.000 NA
ATOM      9  H   UNL     1      46.315   6.196  14.699  0.00  0.00    +0.000 HD
BRANCH   2  11
ATOM     10  F   UNL     1      50.863   6.495  15.908  0.00  0.00    +0.000 F 
ATOM     11  C   UNL     1      50.761   7.596  15.104  0.00  0.00    +0.000 C 
ATOM     12  F   UNL     1      50.504   8.635  15.949  0.00  0.00    +0.000 F 
ATOM     13  F   UNL     1      52.019   7.803  14.618  0.00  0.00    +0.000 F 
ENDBRANCH   2  11
ENDBRANCH   1   7
BRANCH   1  14
ATOM     14  C   UNL     1      44.680   5.274  12.221  0.00  0.00    +0.000 A 
ATOM     15  C   UNL     1      43.551   4.663  12.760  0.00  0.00    +0.000 A 
ATOM     16  C   UNL     1      43.023   3.551  12.117  0.00  0.00    +0.000 A 
ATOM     17  C   UNL     1      43.619   3.095  10.946  0.00  0.00    +0.000 A 
ATOM     18  C   UNL     1      44.729   3.767  10.434  0.00  0.00    +0.000 A 
ATOM     19  N   UNL     1      45.264   4.843  11.069  0.00  0.00    +0.000 NA
BRANCH  18  20
ATOM     20  C   UNL     1      45.397   3.353   9.187  0.00  0.00    +0.000 A 
ATOM     21  C   UNL     1      45.731   4.279   8.196  0.00  0.00    +0.000 A 
ATOM     22  N   UNL     1      46.371   3.983   7.033  0.00  0.00    +0.000 NA
ATOM     23  C   UNL     1      46.689   2.685   6.831  0.00  0.00    +0.000 A 
ATOM     24  C   UNL     1      46.393   1.680   7.735  0.00  0.00    +0.000 A 
ATOM     25 CL   UNL     1      46.823   0.049   7.412  0.00  0.00    +0.000 Cl
ATOM     26  C   UNL     1      45.741   2.016   8.917  0.00  0.00    +0.000 A 
ENDBRANCH  18  20
ENDBRANCH   1  14
TORSDOF 4
ENDMDL
MODEL 5
REMARK VINA RESULT:    -7.592      4.651      7.332
REMARK INTER + INTRA:          -9.751
REMARK INTER:                  -8.994
REMARK INTRA:                  -0.756
REMARK UNBOUND:                -0.384
REMARK  Name = 
REMARK  4 active torsions:
REMARK  status: ('A' for Active; 'I' for Inactive)
REMARK    1  A    between atoms: C_2  and  C_5
REMARK    2  A    between atoms: N_10  and  C_11
REMARK    3  A    between atoms: C_11  and  C_12
REMARK    4  A    between atoms: C_16  and  C_17
REMARK                            x       y       z     vdW  Elec       q    Type
REMARK                         _______ _______ _______ _____ _____    ______ ____
ROOT
ATOM      1  C   UNL     1      46.046   5.287  13.617  0.00  0.00    +0.000 C 
ENDROOT
BRANCH   1   7
ATOM      2  C   UNL     1      48.308   9.033  11.992  0.00  0.00    +0.000 A 
ATOM      3  C   UNL     1      49.486   8.328  11.834  0.00  0.00    +0.000 A 
ATOM      4  C   UNL     1      49.487   7.045  12.319  0.00  0.00    +0.000 A 
ATOM      5  N   UNL     1      48.427   6.482  12.923  0.00  0.00    +0.000 NA
ATOM      6  C   UNL     1      47.321   7.226  13.050  0.00  0.00    +0.000 A 
ATOM      7  N   UNL     1      46.215   6.726  13.714  0.00  0.00    +0.000 N 
ATOM      8  N   UNL     1      47.219   8.479  12.593  0.00  0.00    +0.000 NA
ATOM      9  H   UNL     1      45.406   7.260  13.415  0.00  0.00    +0.000 HD
BRANCH   2  11
ATOM     10  F   UNL     1      46.995  10.785  10.986  0.00  0.00    +0.000 F 
ATOM     11  C   UNL     1      48.222  10.469  11.499  0.00  0.00    +0.000 C 
ATOM     12  F   UNL     1      49.110  10.749  10.504  0.00  0.00    +0.000 F 
ATOM     13  F   UNL     1      48.447  11.388  12.482  0.00  0.00    +0.000 F 
ENDBRANCH   2  11
ENDBRANCH   1   7
BRANCH   1  14
ATOM     14  C   UNL     1      45.105   4.948  12.473  0.00  0.00    +0.000 A 
ATOM     15  C   UNL     1      43.745   5.219  12.597  0.00  0.00    +0.000 A 
ATOM     16  C   UNL     1      42.900   4.895  11.544  0.00  0.00    +0.000 A 
ATOM     17  C   UNL     1      43.436   4.333  10.391  0.00  0.00    +0.000 A 
ATOM     18  C   UNL     1      44.811   4.113  10.308  0.00  0.00    +0.000 A 
ATOM     19  N   UNL     1      45.641   4.409  11.343  0.00  0.00    +0.000 NA
BRANCH  18  20
ATOM     20  C   UNL     1      45.449   3.542   9.109  0.00  0.00    +0.000 A 
ATOM     21  C   UNL     1      45.834   4.346   8.033  0.00  0.00    +0.000 A 
ATOM     22  N   UNL     1      46.452   3.902   6.906  0.00  0.00    +0.000 NA
ATOM     23  C   UNL     1      46.693   2.574   6.832  0.00  0.00    +0.000 A 
ATOM     24  C   UNL     1      46.341   1.680   7.829  0.00  0.00    +0.000 A 
ATOM     25 CL   UNL     1      46.673   0.003   7.667  0.00  0.00    +0.000 Cl
ATOM     26  C   UNL     1      45.714   2.168   8.971  0.00  0.00    +0.000 A 
ENDBRANCH  18  20
ENDBRANCH   1  14
TORSDOF 4
ENDMDL
MODEL 6
REMARK VINA RESULT:    -7.525      4.658      7.578
REMARK INTER + INTRA:          -9.668
REMARK INTER:                  -8.988
REMARK INTRA:                  -0.680
REMARK UNBOUND:                -0.384
REMARK  Name = 
REMARK  4 active torsions:
REMARK  status: ('A' for Active; 'I' for Inactive)
REMARK    1  A    between atoms: C_2  and  C_5
REMARK    2  A    between atoms: N_10  and  C_11
REMARK    3  A    between atoms: C_11  and  C_12
REMARK    4  A    between atoms: C_16  and  C_17
REMARK                            x       y       z     vdW  Elec       q    Type
REMARK                         _______ _______ _______ _____ _____    ______ ____
ROOT
ATOM      1  C   UNL     1      48.177   7.901  13.626  0.00  0.00    +0.000 C 
ENDROOT
BRANCH   1   7
ATOM      2  C   UNL     1      48.291   4.636  16.960  0.00  0.00    +0.000 A 
ATOM      3  C   UNL     1      48.530   5.570  17.951  0.00  0.00    +0.000 A 
ATOM      4  C   UNL     1      48.753   6.854  17.523  0.00  0.00    +0.000 A 
ATOM      5  N   UNL     1      48.755   7.212  16.228  0.00  0.00    +0.000 NA
ATOM      6  C   UNL     1      48.524   6.254  15.322  0.00  0.00    +0.000 A 
ATOM      7  N   UNL     1      48.570   6.546  13.970  0.00  0.00    +0.000 N 
ATOM      8  N   UNL     1      48.279   4.979  15.643  0.00  0.00    +0.000 NA
ATOM      9  H   UNL     1      48.051   5.826  13.480  0.00  0.00    +0.000 HD
BRANCH   2  11
ATOM     10  F   UNL     1      46.723   2.871  17.443  0.00  0.00    +0.000 F 
ATOM     11  C   UNL     1      48.050   3.184  17.342  0.00  0.00    +0.000 C 
ATOM     12  F   UNL     1      48.591   2.848  18.547  0.00  0.00    +0.000 F 
ATOM     13  F   UNL     1      48.558   2.299  16.436  0.00  0.00    +0.000 F 
ENDBRANCH   2  11
ENDBRANCH   1   7
BRANCH   1  14
ATOM     14  C   UNL     1      46.895   7.881  12.810  0.00  0.00    +0.000 A 
ATOM     15  C   UNL     1      46.112   9.030  12.732  0.00  0.00    +0.000 A 
ATOM     16  C   UNL     1      44.941   8.990  11.988  0.00  0.00    +0.000 A 
ATOM     17  C   UNL     1      44.594   7.817  11.327  0.00  0.00    +0.000 A 
ATOM     18  C   UNL     1      45.433   6.706  11.413  0.00  0.00    +0.000 A 
ATOM     19  N   UNL     1      46.571   6.731  12.156  0.00  0.00    +0.000 NA
BRANCH  18  20
ATOM     20  C   UNL     1      45.141   5.439  10.721  0.00  0.00    +0.000 A 
ATOM     21  C   UNL     1      44.347   4.451  11.311  0.00  0.00    +0.000 A 
ATOM     22  N   UNL     1      44.008   3.269  10.729  0.00  0.00    +0.000 NA
ATOM     23  C   UNL     1      44.497   3.044   9.489  0.00  0.00    +0.000 A 
ATOM     24  C   UNL     1      45.306   3.942   8.815  0.00  0.00    +0.000 A 
ATOM     25 CL   UNL     1      45.897   3.588   7.241  0.00  0.00    +0.000 Cl
ATOM     26  C   UNL     1      45.631   5.144   9.436  0.00  0.00    +0.000 A 
ENDBRANCH  18  20
ENDBRANCH   1  14
TORSDOF 4
ENDMDL
MODEL 7
REMARK VINA RESULT:    -7.523      5.124      7.884
REMARK INTER + INTRA:          -9.667
REMARK INTER:                  -9.199
REMARK INTRA:                  -0.468
REMARK UNBOUND:                -0.384
REMARK  Name = 
REMARK  4 active torsions:
REMARK  status: ('A' for Active; 'I' for Inactive)
REMARK    1  A    between atoms: C_2  and  C_5
REMARK    2  A    between atoms: N_10  and  C_11
REMARK    3  A    between atoms: C_11  and  C_12
REMARK    4  A    between atoms: C_16  and  C_17
REMARK                            x       y       z     vdW  Elec       q    Type
REMARK                         _______ _______ _______ _____ _____    ______ ____
ROOT
ATOM      1  C   UNL     1      45.549   3.951  13.938  0.00  0.00    +0.000 C 
ENDROOT
BRANCH   1   7
ATOM      2  C   UNL     1      49.141   5.335  16.577  0.00  0.00    +0.000 A 
ATOM      3  C   UNL     1      48.816   4.451  17.589  0.00  0.00    +0.000 A 
ATOM      4  C   UNL     1      47.637   3.769  17.433  0.00  0.00    +0.000 A 
ATOM      5  N   UNL     1      46.821   3.933  16.379  0.00  0.00    +0.000 NA
ATOM      6  C   UNL     1      47.194   4.812  15.440  0.00  0.00    +0.000 A 
ATOM      7  N   UNL     1      46.370   5.071  14.359  0.00  0.00    +0.000 N 
ATOM      8  N   UNL     1      48.334   5.510  15.496  0.00  0.00    +0.000 NA
ATOM      9  H   UNL     1      46.943   5.467  13.621  0.00  0.00    +0.000 HD
BRANCH   2  11
ATOM     10  F   UNL     1      51.523   5.379  16.939  0.00  0.00    +0.000 F 
ATOM     11  C   UNL     1      50.423   6.147  16.675  0.00  0.00    +0.000 C 
ATOM     12  F   UNL     1      50.392   7.083  17.664  0.00  0.00    +0.000 F 
ATOM     13  F   UNL     1      50.722   6.817  15.525  0.00  0.00    +0.000 F 
ENDBRANCH   2  11
ENDBRANCH   1   7
BRANCH   1  14
ATOM     14  C   UNL     1      44.856   4.277  12.625  0.00  0.00    +0.000 A 
ATOM     15  C   UNL     1      43.710   5.068  12.629  0.00  0.00    +0.000 A 
ATOM     16  C   UNL     1      43.087   5.349  11.421  0.00  0.00    +0.000 A 
ATOM     17  C   UNL     1      43.634   4.853  10.243  0.00  0.00    +0.000 A 
ATOM     18  C   UNL     1      44.802   4.093  10.294  0.00  0.00    +0.000 A 
ATOM     19  N   UNL     1      45.406   3.797  11.475  0.00  0.00    +0.000 NA
BRANCH  18  20
ATOM     20  C   UNL     1      45.449   3.555   9.084  0.00  0.00    +0.000 A 
ATOM     21  C   UNL     1      45.815   4.386   8.021  0.00  0.00    +0.000 A 
ATOM     22  N   UNL     1      46.440   3.973   6.885  0.00  0.00    +0.000 NA
ATOM     23  C   UNL     1      46.706   2.652   6.788  0.00  0.00    +0.000 A 
ATOM     24  C   UNL     1      46.374   1.734   7.770  0.00  0.00    +0.000 A 
ATOM     25 CL   UNL     1      46.738   0.066   7.577  0.00  0.00    +0.000 Cl
ATOM     26  C   UNL     1      45.740   2.189   8.921  0.00  0.00    +0.000 A 
ENDBRANCH  18  20
ENDBRANCH   1  14
TORSDOF 4
ENDMDL
MODEL 8
REMARK VINA RESULT:    -7.324      5.708      8.288
REMARK INTER + INTRA:          -9.421
REMARK INTER:                  -8.861
REMARK INTRA:                  -0.560
REMARK UNBOUND:                -0.384
REMARK  Name = 
REMARK  4 active torsions:
REMARK  status: ('A' for Active; 'I' for Inactive)
REMARK    1  A    between atoms: C_2  and  C_5
REMARK    2  A    between atoms: N_10  and  C_11
REMARK    3  A    between atoms: C_11  and  C_12
REMARK    4  A    between atoms: C_16  and  C_17
REMARK                            x       y       z     vdW  Elec       q    Type
REMARK                         _______ _______ _______ _____ _____    ______ ____
ROOT
ATOM      1  C   UNL     1      48.504   6.640  14.090  0.00  0.00    +0.000 C 
ENDROOT
BRANCH   1   7
ATOM      2  C   UNL     1      48.531   4.530  18.254  0.00  0.00    +0.000 A 
ATOM      3  C   UNL     1      48.192   3.308  17.704  0.00  0.00    +0.000 A 
ATOM      4  C   UNL     1      47.887   3.316  16.367  0.00  0.00    +0.000 A 
ATOM      5  N   UNL     1      47.900   4.427  15.612  0.00  0.00    +0.000 NA
ATOM      6  C   UNL     1      48.229   5.578  16.212  0.00  0.00    +0.000 A 
ATOM      7  N   UNL     1      48.203   6.767  15.504  0.00  0.00    +0.000 N 
ATOM      8  N   UNL     1      48.559   5.667  17.505  0.00  0.00    +0.000 NA
ATOM      9  H   UNL     1      48.790   7.432  15.996  0.00  0.00    +0.000 HD
BRANCH   2  11
ATOM     10  F   UNL     1      50.212   4.689  19.973  0.00  0.00    +0.000 F 
ATOM     11  C   UNL     1      48.867   4.619  19.734  0.00  0.00    +0.000 C 
ATOM     12  F   UNL     1      48.431   3.544  20.449  0.00  0.00    +0.000 F 
ATOM     13  F   UNL     1      48.338   5.720  20.340  0.00  0.00    +0.000 F 
ENDBRANCH   2  11
ENDBRANCH   1   7
BRANCH   1  14
ATOM     14  C   UNL     1      47.260   6.924  13.264  0.00  0.00    +0.000 A 
ATOM     15  C   UNL     1      46.667   8.182  13.324  0.00  0.00    +0.000 A 
ATOM     16  C   UNL     1      45.527   8.420  12.569  0.00  0.00    +0.000 A 
ATOM     17  C   UNL     1      45.024   7.408  11.760  0.00  0.00    +0.000 A 
ATOM     18  C   UNL     1      45.677   6.177  11.713  0.00  0.00    +0.000 A 
ATOM     19  N   UNL     1      46.782   5.930  12.465  0.00  0.00    +0.000 NA
BRANCH  18  20
ATOM     20  C   UNL     1      45.213   5.067  10.862  0.00  0.00    +0.000 A 
ATOM     21  C   UNL     1      44.268   4.143  11.316  0.00  0.00    +0.000 A 
ATOM     22  N   UNL     1      43.769   3.111  10.585  0.00  0.00    +0.000 NA
ATOM     23  C   UNL     1      44.245   2.975   9.328  0.00  0.00    +0.000 A 
ATOM     24  C   UNL     1      45.194   3.820   8.777  0.00  0.00    +0.000 A 
ATOM     25 CL   UNL     1      45.758   3.585   7.172  0.00  0.00    +0.000 Cl
ATOM     26  C   UNL     1      45.681   4.869   9.551  0.00  0.00    +0.000 A 
ENDBRANCH  18  20
ENDBRANCH   1  14
TORSDOF 4
ENDMDL
MODEL 9
REMARK VINA RESULT:    -6.936      5.055      6.125
REMARK INTER + INTRA:          -8.941
REMARK INTER:                  -8.454
REMARK INTRA:                  -0.487
REMARK UNBOUND:                -0.384
REMARK  Name = 
REMARK  4 active torsions:
REMARK  status: ('A' for Active; 'I' for Inactive)
REMARK    1  A    between atoms: C_2  and  C_5
REMARK    2  A    between atoms: N_10  and  C_11
REMARK    3  A    between atoms: C_11  and  C_12
REMARK    4  A    between atoms: C_16  and  C_17
REMARK                            x       y       z     vdW  Elec       q    Type
REMARK                         _______ _______ _______ _____ _____    ______ ____
ROOT
ATOM      1  C   UNL     1      46.715   4.731  14.639  0.00  0.00    +0.000 C 
ENDROOT
BRANCH   1   7
ATOM      2  C   UNL     1      44.561   3.167  10.804  0.00  0.00    +0.000 A 
ATOM      3  C   UNL     1      43.344   3.685  11.203  0.00  0.00    +0.000 A 
ATOM      4  C   UNL     1      43.304   4.219  12.466  0.00  0.00    +0.000 A 
ATOM      5  N   UNL     1      44.364   4.244  13.292  0.00  0.00    +0.000 NA
ATOM      6  C   UNL     1      45.510   3.717  12.843  0.00  0.00    +0.000 A 
ATOM      7  N   UNL     1      46.622   3.658  13.665  0.00  0.00    +0.000 N 
ATOM      8  N   UNL     1      45.650   3.190  11.621  0.00  0.00    +0.000 NA
ATOM      9  H   UNL     1      47.440   3.562  13.073  0.00  0.00    +0.000 HD
BRANCH   2  11
ATOM     10  F   UNL     1      45.993   2.349   9.047  0.00  0.00    +0.000 F 
ATOM     11  C   UNL     1      44.693   2.539   9.425  0.00  0.00    +0.000 C 
ATOM     12  F   UNL     1      44.137   3.294   8.436  0.00  0.00    +0.000 F 
ATOM     13  F   UNL     1      44.111   1.308   9.338  0.00  0.00    +0.000 F 
ENDBRANCH   2  11
ENDBRANCH   1   7
BRANCH   1  14
ATOM     14  C   UNL     1      47.538   4.280  15.834  0.00  0.00    +0.000 A 
ATOM     15  C   UNL     1      47.952   2.954  15.923  0.00  0.00    +0.000 A 
ATOM     16  C   UNL     1      48.698   2.559  17.026  0.00  0.00    +0.000 A 
ATOM     17  C   UNL     1      49.028   3.499  17.995  0.00  0.00    +0.000 A 
ATOM     18  C   UNL     1      48.614   4.822  17.839  0.00  0.00    +0.000 A 
ATOM     19  N   UNL     1      47.867   5.211  16.772  0.00  0.00    +0.000 NA
BRANCH  18  20
ATOM     20  C   UNL     1      48.947   5.875  18.814  0.00  0.00    +0.000 A 
ATOM     21  C   UNL     1      50.253   6.058  19.275  0.00  0.00    +0.000 A 
ATOM     22  N   UNL     1      50.646   7.021  20.151  0.00  0.00    +0.000 NA
ATOM     23  C   UNL     1      49.682   7.849  20.612  0.00  0.00    +0.000 A 
ATOM     24  C   UNL     1      48.353   7.751  20.239  0.00  0.00    +0.000 A 
ATOM     25 CL   UNL     1      47.178   8.835  20.868  0.00  0.00    +0.000 Cl
ATOM     26  C   UNL     1      47.984   6.757  19.337  0.00  0.00    +0.000 A 
ENDBRANCH  18  20
ENDBRANCH   1  14
TORSDOF 4
ENDMDL
