MODEL 1
REMARK VINA RESULT:    -7.866      0.000      0.000
REMARK INTER + INTRA:         -11.823
REMARK INTER:                 -10.625
REMARK INTRA:                  -1.198
REMARK UNBOUND:                -1.198
REMARK  Name = 
REMARK  7 active torsions:
REMARK  status: ('A' for Active; 'I' for Inactive)
REMARK    1  A    between atoms: C_1  and  C_2
REMARK    2  A    between atoms: C_2  and  N_3
REMARK    3  A    between atoms: C_2  and  C_16
REMARK    4  A    between atoms: C_4  and  C_6
REMARK    5  A    between atoms: C_19  and  C_20
REMARK    6  A    between atoms: C_20  and  N_21
REMARK    7  A    between atoms: C_22  and  C_24
REMARK                            x       y       z     vdW  Elec       q    Type
REMARK                         _______ _______ _______ _____ _____    ______ ____
ROOT
ATOM      1  C   UNL     1      47.880   8.111  13.641  0.00  0.00    +0.000 C 
ATOM      2  C   UNL     1      48.060   6.652  14.086  0.00  0.00    +0.000 C 
ENDROOT
BRANCH   2   3
ATOM      3  C   UNL     1      47.021   5.767  13.406  0.00  0.00    +0.000 A 
ATOM      4  C   UNL     1      46.883   4.418  13.761  0.00  0.00    +0.000 A 
ATOM      5  C   UNL     1      45.983   3.585  13.079  0.00  0.00    +0.000 A 
ATOM      6  C   UNL     1      45.206   4.081  12.024  0.00  0.00    +0.000 A 
ATOM      7  C   UNL     1      45.304   5.440  11.706  0.00  0.00    +0.000 A 
ATOM      8  C   UNL     1      46.197   6.271  12.388  0.00  0.00    +0.000 A 
BRANCH   6   9
ATOM      9  C   UNL     1      44.321   3.180  11.202  0.00  0.00    +0.000 C 
BRANCH   9  10
ATOM     10  N   UNL     1      44.972   2.638  10.037  0.00  0.00    +0.000 N 
ATOM     11  C   UNL     1      44.888   3.279   8.820  0.00  0.00    +0.000 C 
ATOM     12  O   UNL     1      44.201   4.283   8.635  0.00  0.00    +0.000 OA
ATOM     13  H   UNL     1      45.617   1.855  10.101  0.00  0.00    +0.000 HD
BRANCH  11  14
ATOM     14  C   UNL     1      45.661   2.605   7.680  0.00  0.00    +0.000 C 
ATOM     15  C   UNL     1      46.306   1.302   8.108  0.00  0.00    +0.000 C 
ATOM     16  C   UNL     1      47.355   1.085   7.034  0.00  0.00    +0.000 C 
ATOM     17  C   UNL     1      47.760   2.488   6.603  0.00  0.00    +0.000 C 
ATOM     18  N   UNL     1      46.830   3.416   7.255  0.00  0.00    +0.000 NA
ATOM     19  H   UNL     1      46.520   4.131   6.596  0.00  0.00    +0.000 HD
ENDBRANCH  11  14
ENDBRANCH   9  10
ENDBRANCH   6   9
ENDBRANCH   2   3
BRANCH   2  20
ATOM     20  N   UNL     1      47.975   6.500  15.530  0.00  0.00    +0.000 N 
ATOM     21  C   UNL     1      49.086   6.319  16.317  0.00  0.00    +0.000 C 
ATOM     22  O   UNL     1      50.227   6.311  15.866  0.00  0.00    +0.000 OA
ATOM     23  H   UNL     1      47.082   6.178  15.891  0.00  0.00    +0.000 HD
BRANCH  21  24
ATOM     24  C   UNL     1      48.854   6.200  17.759  0.00  0.00    +0.000 A 
ATOM     25  C   UNL     1      49.142   5.005  18.406  0.00  0.00    +0.000 A 
ATOM     26  S   UNL     1      48.793   5.032  20.075  0.00  0.00    +0.000 S 
ATOM     27  C   UNL     1      48.210   6.628  19.981  0.00  0.00    +0.000 A 
ATOM     28  N   UNL     1      47.697   7.253  21.075  0.00  0.00    +0.000 NA
ATOM     29  C   UNL     1      47.262   8.448  20.849  0.00  0.00    +0.000 A 
ATOM     30  N   UNL     1      47.311   9.083  19.633  0.00  0.00    +0.000 N 
ATOM     31  C   UNL     1      47.860   8.507  18.514  0.00  0.00    +0.000 A 
ATOM     32  O   UNL     1      47.961   9.125  17.458  0.00  0.00    +0.000 OA
ATOM     33  C   UNL     1      48.322   7.147  18.704  0.00  0.00    +0.000 A 
ATOM     34  H   UNL     1      46.980  10.029  19.530  0.00  0.00    +0.000 HD
ENDBRANCH  21  24
ENDBRANCH   2  20
TORSDOF 6
ENDMDL
MODEL 2
REMARK VINA RESULT:    -7.832      1.428      2.025
REMARK INTER + INTRA:         -11.777
REMARK INTER:                 -10.765
REMARK INTRA:                  -1.012
REMARK UNBOUND:                -1.198
REMARK  Name = 
REMARK  7 active torsions:
REMARK  status: ('A' for Active; 'I' for Inactive)
REMARK    1  A    between atoms: C_1  and  C_2
REMARK    2  A    between atoms: C_2  and  N_3
REMARK    3  A    between atoms: C_2  and  C_16
REMARK    4  A    between atoms: C_4  and  C_6
REMARK    5  A    between atoms: C_19  and  C_20
REMARK    6  A    between atoms: C_20  and  N_21
REMARK    7  A    between atoms: C_22  and  C_24
REMARK                            x       y       z     vdW  Elec       q    Type
REMARK                         _______ _______ _______ _____ _____    ______ ____
ROOT
ATOM      1  C   UNL     1      48.236   8.323  13.308  0.00  0.00    +0.000 C 
ATOM      2  C   UNL     1      48.363   6.941  13.969  0.00  0.00    +0.000 C 
ENDROOT
BRANCH   2   3
ATOM      3  C   UNL     1      47.285   6.005  13.433  0.00  0.00    +0.000 A 
ATOM      4  C   UNL     1      47.207   4.675  13.868  0.00  0.00    +0.000 A 
ATOM      5  C   UNL     1      46.266   3.793  13.315  0.00  0.00    +0.000 A 
ATOM      6  C   UNL     1      45.386   4.221  12.312  0.00  0.00    +0.000 A 
ATOM      7  C   UNL     1      45.427   5.563  11.917  0.00  0.00    +0.000 A 
ATOM      8  C   UNL     1      46.361   6.443  12.471  0.00  0.00    +0.000 A 
BRANCH   6   9
ATOM      9  C   UNL     1      44.448   3.264  11.623  0.00  0.00    +0.000 C 
BRANCH   9  10
ATOM     10  N   UNL     1      44.948   2.772  10.364  0.00  0.00    +0.000 N 
ATOM     11  C   UNL     1      44.660   3.427   9.187  0.00  0.00    +0.000 C 
ATOM     12  O   UNL     1      43.908   4.400   9.125  0.00  0.00    +0.000 OA
ATOM     13  H   UNL     1      45.631   2.021  10.318  0.00  0.00    +0.000 HD
BRANCH  11  14
ATOM     14  C   UNL     1      45.290   2.809   7.933  0.00  0.00    +0.000 C 
ATOM     15  C   UNL     1      46.202   1.643   8.258  0.00  0.00    +0.000 C 
ATOM     16  C   UNL     1      47.041   1.520   7.000  0.00  0.00    +0.000 C 
ATOM     17  C   UNL     1      47.129   2.940   6.457  0.00  0.00    +0.000 C 
ATOM     18  N   UNL     1      46.212   3.757   7.257  0.00  0.00    +0.000 NA
ATOM     19  H   UNL     1      45.671   4.379   6.655  0.00  0.00    +0.000 HD
ENDBRANCH  11  14
ENDBRANCH   9  10
ENDBRANCH   6   9
ENDBRANCH   2   3
BRANCH   2  20
ATOM     20  N   UNL     1      48.285   7.013  15.419  0.00  0.00    +0.000 N 
ATOM     21  C   UNL     1      49.364   6.750  16.228  0.00  0.00    +0.000 C 
ATOM     22  O   UNL     1      50.476   6.474  15.786  0.00  0.00    +0.000 OA
ATOM     23  H   UNL     1      47.358   6.909  15.820  0.00  0.00    +0.000 HD
BRANCH  21  24
ATOM     24  C   UNL     1      49.147   6.879  17.672  0.00  0.00    +0.000 A 
ATOM     25  C   UNL     1      49.221   8.129  18.270  0.00  0.00    +0.000 A 
ATOM     26  S   UNL     1      48.964   8.095  19.955  0.00  0.00    +0.000 S 
ATOM     27  C   UNL     1      48.783   6.403  19.947  0.00  0.00    +0.000 A 
ATOM     28  N   UNL     1      48.587   5.712  21.102  0.00  0.00    +0.000 NA
ATOM     29  C   UNL     1      48.500   4.433  20.948  0.00  0.00    +0.000 A 
ATOM     30  N   UNL     1      48.572   3.782  19.742  0.00  0.00    +0.000 N 
ATOM     31  C   UNL     1      48.725   4.442  18.547  0.00  0.00    +0.000 A 
ATOM     32  O   UNL     1      48.710   3.843  17.476  0.00  0.00    +0.000 OA
ATOM     33  C   UNL     1      48.873   5.878  18.670  0.00  0.00    +0.000 A 
ATOM     34  H   UNL     1      48.468   2.781  19.687  0.00  0.00    +0.000 HD
ENDBRANCH  21  24
ENDBRANCH   2  20
TORSDOF 6
ENDMDL
MODEL 3
REMARK VINA RESULT:    -7.750      3.039      4.353
REMARK INTER + INTRA:         -11.667
REMARK INTER:                 -10.498
REMARK INTRA:                  -1.169
REMARK UNBOUND:                -1.198
REMARK  Name = 
REMARK  7 active torsions:
REMARK  status: ('A' for Active; 'I' for Inactive)
REMARK    1  A    between atoms: C_1  and  C_2
REMARK    2  A    between atoms: C_2  and  N_3
REMARK    3  A    between atoms: C_2  and  C_16
REMARK    4  A    between atoms: C_4  and  C_6
REMARK    5  A    between atoms: C_19  and  C_20
REMARK    6  A    between atoms: C_20  and  N_21
REMARK    7  A    between atoms: C_22  and  C_24
REMARK                            x       y       z     vdW  Elec       q    Type
REMARK                         _______ _______ _______ _____ _____    ______ ____
ROOT
ATOM      1  C   UNL     1      47.384   3.747  15.402  0.00  0.00    +0.000 C 
ATOM      2  C   UNL     1      47.015   5.115  14.807  0.00  0.00    +0.000 C 
ENDROOT
BRANCH   2   3
ATOM      3  C   UNL     1      46.075   4.931  13.620  0.00  0.00    +0.000 A 
ATOM      4  C   UNL     1      45.871   3.665  13.055  0.00  0.00    +0.000 A 
ATOM      5  C   UNL     1      45.069   3.509  11.914  0.00  0.00    +0.000 A 
ATOM      6  C   UNL     1      44.458   4.616  11.311  0.00  0.00    +0.000 A 
ATOM      7  C   UNL     1      44.617   5.872  11.907  0.00  0.00    +0.000 A 
ATOM      8  C   UNL     1      45.412   6.027  13.046  0.00  0.00    +0.000 A 
BRANCH   6   9
ATOM      9  C   UNL     1      43.691   4.490  10.020  0.00  0.00    +0.000 C 
BRANCH   9  10
ATOM     10  N   UNL     1      44.330   3.640   9.049  0.00  0.00    +0.000 N 
ATOM     11  C   UNL     1      45.448   4.065   8.366  0.00  0.00    +0.000 C 
ATOM     12  O   UNL     1      45.912   5.200   8.476  0.00  0.00    +0.000 OA
ATOM     13  H   UNL     1      44.066   2.664   8.937  0.00  0.00    +0.000 HD
BRANCH  11  14
ATOM     14  C   UNL     1      46.040   3.040   7.392  0.00  0.00    +0.000 C 
ATOM     15  C   UNL     1      46.282   1.694   8.046  0.00  0.00    +0.000 C 
ATOM     16  C   UNL     1      47.263   1.036   7.094  0.00  0.00    +0.000 C 
ATOM     17  C   UNL     1      48.058   2.193   6.502  0.00  0.00    +0.000 C 
ATOM     18  N   UNL     1      47.402   3.427   6.946  0.00  0.00    +0.000 NA
ATOM     19  H   UNL     1      47.326   4.088   6.172  0.00  0.00    +0.000 HD
ENDBRANCH  11  14
ENDBRANCH   9  10
ENDBRANCH   6   9
ENDBRANCH   2   3
BRANCH   2  20
ATOM     20  N   UNL     1      48.187   5.875  14.401  0.00  0.00    +0.000 N 
ATOM     21  C   UNL     1      48.872   6.690  15.270  0.00  0.00    +0.000 C 
ATOM     22  O   UNL     1      48.570   6.804  16.454  0.00  0.00    +0.000 OA
ATOM     23  H   UNL     1      48.269   6.069  13.408  0.00  0.00    +0.000 HD
BRANCH  21  24
ATOM     24  C   UNL     1      50.046   7.382  14.730  0.00  0.00    +0.000 A 
ATOM     25  C   UNL     1      51.230   7.397  15.455  0.00  0.00    +0.000 A 
ATOM     26  S   UNL     1      52.485   8.262  14.692  0.00  0.00    +0.000 S 
ATOM     27  C   UNL     1      51.477   8.678  13.386  0.00  0.00    +0.000 A 
ATOM     28  N   UNL     1      51.925   9.474  12.378  0.00  0.00    +0.000 NA
ATOM     29  C   UNL     1      51.041   9.733  11.472  0.00  0.00    +0.000 A 
ATOM     30  N   UNL     1      49.756   9.253  11.471  0.00  0.00    +0.000 N 
ATOM     31  C   UNL     1      49.275   8.412  12.444  0.00  0.00    +0.000 A 
ATOM     32  O   UNL     1      48.145   7.935  12.379  0.00  0.00    +0.000 OA
ATOM     33  C   UNL     1      50.214   8.126  13.509  0.00  0.00    +0.000 A 
ATOM     34  H   UNL     1      49.123   9.471  10.718  0.00  0.00    +0.000 HD
ENDBRANCH  21  24
ENDBRANCH   2  20
TORSDOF 6
ENDMDL
MODEL 4
REMARK VINA RESULT:    -7.381      3.882      5.588
REMARK INTER + INTRA:         -11.168
REMARK INTER:                  -9.971
REMARK INTRA:                  -1.197
REMARK UNBOUND:                -1.198
REMARK  Name = 
REMARK  7 active torsions:
REMARK  status: ('A' for Active; 'I' for Inactive)
REMARK    1  A    between atoms: C_1  and  C_2
REMARK    2  A    between atoms: C_2  and  N_3
REMARK    3  A    between atoms: C_2  and  C_16
REMARK    4  A    between atoms: C_4  and  C_6
REMARK    5  A    between atoms: C_19  and  C_20
REMARK    6  A    between atoms: C_20  and  N_21
REMARK    7  A    between atoms: C_22  and  C_24
REMARK                            x       y       z     vdW  Elec       q    Type
REMARK                         _______ _______ _______ _____ _____    ______ ____
ROOT
ATOM      1  C   UNL     1      47.626   2.923  17.758  0.00  0.00    +0.000 C 
ATOM      2  C   UNL     1      48.490   4.143  17.403  0.00  0.00    +0.000 C 
ENDROOT
BRANCH   2   3
ATOM      3  C   UNL     1      48.054   4.716  16.058  0.00  0.00    +0.000 A 
ATOM      4  C   UNL     1      48.542   5.952  15.611  0.00  0.00    +0.000 A 
ATOM      5  C   UNL     1      48.079   6.516  14.413  0.00  0.00    +0.000 A 
ATOM      6  C   UNL     1      47.114   5.859  13.638  0.00  0.00    +0.000 A 
ATOM      7  C   UNL     1      46.668   4.599  14.055  0.00  0.00    +0.000 A 
ATOM      8  C   UNL     1      47.132   4.036  15.247  0.00  0.00    +0.000 A 
BRANCH   6   9
ATOM      9  C   UNL     1      46.517   6.497  12.410  0.00  0.00    +0.000 C 
BRANCH   9  10
ATOM     10  N   UNL     1      45.993   5.548  11.463  0.00  0.00    +0.000 N 
ATOM     11  C   UNL     1      44.654   5.544  11.136  0.00  0.00    +0.000 C 
ATOM     12  O   UNL     1      43.827   6.275  11.679  0.00  0.00    +0.000 OA
ATOM     13  H   UNL     1      46.603   4.952  10.910  0.00  0.00    +0.000 HD
BRANCH  11  14
ATOM     14  C   UNL     1      44.249   4.502  10.086  0.00  0.00    +0.000 C 
ATOM     15  C   UNL     1      44.738   3.110  10.432  0.00  0.00    +0.000 C 
ATOM     16  C   UNL     1      44.655   2.391   9.099  0.00  0.00    +0.000 C 
ATOM     17  C   UNL     1      44.899   3.477   8.060  0.00  0.00    +0.000 C 
ATOM     18  N   UNL     1      44.903   4.756   8.778  0.00  0.00    +0.000 NA
ATOM     19  H   UNL     1      44.366   5.454   8.264  0.00  0.00    +0.000 HD
ENDBRANCH  11  14
ENDBRANCH   9  10
ENDBRANCH   6   9
ENDBRANCH   2   3
BRANCH   2  20
ATOM     20  N   UNL     1      49.909   3.826  17.373  0.00  0.00    +0.000 N 
ATOM     21  C   UNL     1      50.754   4.138  18.410  0.00  0.00    +0.000 C 
ATOM     22  O   UNL     1      50.367   4.669  19.447  0.00  0.00    +0.000 OA
ATOM     23  H   UNL     1      50.317   3.703  16.451  0.00  0.00    +0.000 HD
BRANCH  21  24
ATOM     24  C   UNL     1      52.156   3.742  18.252  0.00  0.00    +0.000 A 
ATOM     25  C   UNL     1      53.163   4.669  18.488  0.00  0.00    +0.000 A 
ATOM     26  S   UNL     1      54.732   4.049  18.239  0.00  0.00    +0.000 S 
ATOM     27  C   UNL     1      54.116   2.534  17.771  0.00  0.00    +0.000 A 
ATOM     28  N   UNL     1      54.946   1.533  17.369  0.00  0.00    +0.000 NA
ATOM     29  C   UNL     1      54.338   0.451  17.011  0.00  0.00    +0.000 A 
ATOM     30  N   UNL     1      52.978   0.270  17.037  0.00  0.00    +0.000 N 
ATOM     31  C   UNL     1      52.107   1.237  17.477  0.00  0.00    +0.000 A 
ATOM     32  O   UNL     1      50.900   1.023  17.562  0.00  0.00    +0.000 OA
ATOM     33  C   UNL     1      52.736   2.488  17.847  0.00  0.00    +0.000 A 
ATOM     34  H   UNL     1      52.567  -0.611  16.771  0.00  0.00    +0.000 HD
ENDBRANCH  21  24
ENDBRANCH   2  20
TORSDOF 6
ENDMDL
MODEL 5
REMARK VINA RESULT:    -7.246      4.054      9.058
REMARK INTER + INTRA:         -10.986
REMARK INTER:                  -9.835
REMARK INTRA:                  -1.151
REMARK UNBOUND:                -1.198
REMARK  Name = 
REMARK  7 active torsions:
REMARK  status: ('A' for Active; 'I' for Inactive)
REMARK    1  A    between atoms: C_1  and  C_2
REMARK    2  A    between atoms: C_2  and  N_3
REMARK    3  A    between atoms: C_2  and  C_16
REMARK    4  A    between atoms: C_4  and  C_6
REMARK    5  A    between atoms: C_19  and  C_20
REMARK    6  A    between atoms: C_20  and  N_21
REMARK    7  A    between atoms: C_22  and  C_24
REMARK                            x       y       z     vdW  Elec       q    Type
REMARK                         _______ _______ _______ _____ _____    ______ ____
ROOT
ATOM      1  C   UNL     1      49.304   7.484  13.023  0.00  0.00    +0.000 C 
ATOM      2  C   UNL     1      48.006   6.936  13.636  0.00  0.00    +0.000 C 
ENDROOT
BRANCH   2   3
ATOM      3  C   UNL     1      48.308   6.232  14.954  0.00  0.00    +0.000 A 
ATOM      4  C   UNL     1      49.355   6.668  15.778  0.00  0.00    +0.000 A 
ATOM      5  C   UNL     1      49.684   5.971  16.951  0.00  0.00    +0.000 A 
ATOM      6  C   UNL     1      48.976   4.820  17.322  0.00  0.00    +0.000 A 
ATOM      7  C   UNL     1      47.896   4.417  16.529  0.00  0.00    +0.000 A 
ATOM      8  C   UNL     1      47.566   5.113  15.363  0.00  0.00    +0.000 A 
BRANCH   6   9
ATOM      9  C   UNL     1      49.385   3.990  18.511  0.00  0.00    +0.000 C 
BRANCH   9  10
ATOM     10  N   UNL     1      50.754   3.542  18.460  0.00  0.00    +0.000 N 
ATOM     11  C   UNL     1      51.119   2.480  17.663  0.00  0.00    +0.000 C 
ATOM     12  O   UNL     1      50.309   1.808  17.025  0.00  0.00    +0.000 OA
ATOM     13  H   UNL     1      51.505   4.072  18.893  0.00  0.00    +0.000 HD
BRANCH  11  14
ATOM     14  C   UNL     1      52.614   2.142  17.682  0.00  0.00    +0.000 C 
ATOM     15  C   UNL     1      52.877   0.663  17.477  0.00  0.00    +0.000 C 
ATOM     16  C   UNL     1      54.294   0.505  17.995  0.00  0.00    +0.000 C 
ATOM     17  C   UNL     1      54.426   1.562  19.083  0.00  0.00    +0.000 C 
ATOM     18  N   UNL     1      53.218   2.392  19.015  0.00  0.00    +0.000 NA
ATOM     19  H   UNL     1      53.461   3.380  19.093  0.00  0.00    +0.000 HD
ENDBRANCH  11  14
ENDBRANCH   9  10
ENDBRANCH   6   9
ENDBRANCH   2   3
BRANCH   2  20
ATOM     20  N   UNL     1      47.309   6.031  12.736  0.00  0.00    +0.000 N 
ATOM     21  C   UNL     1      46.317   6.458  11.886  0.00  0.00    +0.000 C 
ATOM     22  O   UNL     1      45.975   7.633  11.799  0.00  0.00    +0.000 OA
ATOM     23  H   UNL     1      47.317   5.050  12.998  0.00  0.00    +0.000 HD
BRANCH  21  24
ATOM     24  C   UNL     1      45.714   5.440  11.021  0.00  0.00    +0.000 A 
ATOM     25  C   UNL     1      45.818   5.560   9.642  0.00  0.00    +0.000 A 
ATOM     26  S   UNL     1      45.043   4.304   8.788  0.00  0.00    +0.000 S 
ATOM     27  C   UNL     1      44.511   3.579  10.233  0.00  0.00    +0.000 A 
ATOM     28  N   UNL     1      43.731   2.464  10.213  0.00  0.00    +0.000 NA
ATOM     29  C   UNL     1      43.375   2.044  11.381  0.00  0.00    +0.000 A 
ATOM     30  N   UNL     1      43.744   2.624  12.568  0.00  0.00    +0.000 N 
ATOM     31  C   UNL     1      44.565   3.723  12.637  0.00  0.00    +0.000 A 
ATOM     32  O   UNL     1      44.942   4.176  13.715  0.00  0.00    +0.000 OA
ATOM     33  C   UNL     1      44.956   4.261  11.351  0.00  0.00    +0.000 A 
ATOM     34  H   UNL     1      43.454   2.229  13.450  0.00  0.00    +0.000 HD
ENDBRANCH  21  24
ENDBRANCH   2  20
TORSDOF 6
ENDMDL
MODEL 6
REMARK VINA RESULT:    -6.848      3.986      5.821
REMARK INTER + INTRA:         -10.448
REMARK INTER:                  -9.118
REMARK INTRA:                  -1.330
REMARK UNBOUND:                -1.198
REMARK  Name = 
REMARK  7 active torsions:
REMARK  status: ('A' for Active; 'I' for Inactive)
REMARK    1  A    between atoms: C_1  and  C_2
REMARK    2  A    between atoms: C_2  and  N_3
REMARK    3  A    between atoms: C_2  and  C_16
REMARK    4  A    between atoms: C_4  and  C_6
REMARK    5  A    between atoms: C_19  and  C_20
REMARK    6  A    between atoms: C_20  and  N_21
REMARK    7  A    between atoms: C_22  and  C_24
REMARK                            x       y       z     vdW  Elec       q    Type
REMARK                         _______ _______ _______ _____ _____    ______ ____
ROOT
ATOM      1  C   UNL     1      48.830   6.227  15.929  0.00  0.00    +0.000 C 
ATOM      2  C   UNL     1      48.814   7.243  14.776  0.00  0.00    +0.000 C 
ENDROOT
BRANCH   2   3
ATOM      3  C   UNL     1      47.791   6.825  13.726  0.00  0.00    +0.000 A 
ATOM      4  C   UNL     1      47.308   7.745  12.785  0.00  0.00    +0.000 A 
ATOM      5  C   UNL     1      46.308   7.380  11.871  0.00  0.00    +0.000 A 
ATOM      6  C   UNL     1      45.765   6.090  11.881  0.00  0.00    +0.000 A 
ATOM      7  C   UNL     1      46.285   5.154  12.784  0.00  0.00    +0.000 A 
ATOM      8  C   UNL     1      47.284   5.516  13.691  0.00  0.00    +0.000 A 
BRANCH   6   9
ATOM      9  C   UNL     1      44.610   5.711  10.990  0.00  0.00    +0.000 C 
BRANCH   9  10
ATOM     10  N   UNL     1      45.012   5.043   9.779  0.00  0.00    +0.000 N 
ATOM     11  C   UNL     1      44.655   3.733   9.544  0.00  0.00    +0.000 C 
ATOM     12  O   UNL     1      44.058   3.040  10.368  0.00  0.00    +0.000 OA
ATOM     13  H   UNL     1      45.444   5.547   9.009  0.00  0.00    +0.000 HD
BRANCH  11  14
ATOM     14  C   UNL     1      45.121   3.167   8.197  0.00  0.00    +0.000 C 
ATOM     15  C   UNL     1      46.016   1.955   8.356  0.00  0.00    +0.000 C 
ATOM     16  C   UNL     1      46.707   1.876   7.008  0.00  0.00    +0.000 C 
ATOM     17  C   UNL     1      46.792   3.321   6.535  0.00  0.00    +0.000 C 
ATOM     18  N   UNL     1      46.000   4.121   7.475  0.00  0.00    +0.000 NA
ATOM     19  H   UNL     1      45.422   4.794   6.970  0.00  0.00    +0.000 HD
ENDBRANCH  11  14
ENDBRANCH   9  10
ENDBRANCH   6   9
ENDBRANCH   2   3
BRANCH   2  20
ATOM     20  N   UNL     1      50.122   7.402  14.162  0.00  0.00    +0.000 N 
ATOM     21  C   UNL     1      50.763   8.616  14.099  0.00  0.00    +0.000 C 
ATOM     22  O   UNL     1      50.296   9.641  14.587  0.00  0.00    +0.000 OA
ATOM     23  H   UNL     1      50.383   6.695  13.481  0.00  0.00    +0.000 HD
BRANCH  21  24
ATOM     24  C   UNL     1      52.085   8.626  13.467  0.00  0.00    +0.000 A 
ATOM     25  C   UNL     1      53.197   9.007  14.206  0.00  0.00    +0.000 A 
ATOM     26  S   UNL     1      54.650   8.982  13.313  0.00  0.00    +0.000 S 
ATOM     27  C   UNL     1      53.835   8.499  11.900  0.00  0.00    +0.000 A 
ATOM     28  N   UNL     1      54.501   8.341  10.724  0.00  0.00    +0.000 NA
ATOM     29  C   UNL     1      53.750   8.005   9.729  0.00  0.00    +0.000 A 
ATOM     30  N   UNL     1      52.397   7.791   9.805  0.00  0.00    +0.000 N 
ATOM     31  C   UNL     1      51.691   7.895  10.979  0.00  0.00    +0.000 A 
ATOM     32  O   UNL     1      50.495   7.624  11.035  0.00  0.00    +0.000 OA
ATOM     33  C   UNL     1      52.481   8.315  12.118  0.00  0.00    +0.000 A 
ATOM     34  H   UNL     1      51.872   7.501   8.995  0.00  0.00    +0.000 HD
ENDBRANCH  21  24
ENDBRANCH   2  20
TORSDOF 6
ENDMDL
MODEL 7
REMARK VINA RESULT:    -6.686      4.515      6.684
REMARK INTER + INTRA:         -10.230
REMARK INTER:                  -9.279
REMARK INTRA:                  -0.951
REMARK UNBOUND:                -1.198
REMARK  Name = 
REMARK  7 active torsions:
REMARK  status: ('A' for Active; 'I' for Inactive)
REMARK    1  A    between atoms: C_1  and  C_2
REMARK    2  A    between atoms: C_2  and  N_3
REMARK    3  A    between atoms: C_2  and  C_16
REMARK    4  A    between atoms: C_4  and  C_6
REMARK    5  A    between atoms: C_19  and  C_20
REMARK    6  A    between atoms: C_20  and  N_21
REMARK    7  A    between atoms: C_22  and  C_24
REMARK                            x       y       z     vdW  Elec       q    Type
REMARK                         _______ _______ _______ _____ _____    ______ ____
ROOT
ATOM      1  C   UNL     1      46.175   3.543  13.139  0.00  0.00    +0.000 C 
ATOM      2  C   UNL     1      46.089   4.771  14.059  0.00  0.00    +0.000 C 
ENDROOT
BRANCH   2   3
ATOM      3  C   UNL     1      45.908   6.035  13.226  0.00  0.00    +0.000 A 
ATOM      4  C   UNL     1      46.822   7.094  13.319  0.00  0.00    +0.000 A 
ATOM      5  C   UNL     1      46.612   8.288  12.613  0.00  0.00    +0.000 A 
ATOM      6  C   UNL     1      45.481   8.452  11.803  0.00  0.00    +0.000 A 
ATOM      7  C   UNL     1      44.598   7.374  11.666  0.00  0.00    +0.000 A 
ATOM      8  C   UNL     1      44.809   6.184  12.366  0.00  0.00    +0.000 A 
BRANCH   6   9
ATOM      9  C   UNL     1      45.174   9.764  11.129  0.00  0.00    +0.000 C 
BRANCH   9  10
ATOM     10  N   UNL     1      43.835  10.237  11.370  0.00  0.00    +0.000 N 
ATOM     11  C   UNL     1      43.054  10.700  10.335  0.00  0.00    +0.000 C 
ATOM     12  O   UNL     1      43.466  10.815   9.180  0.00  0.00    +0.000 OA
ATOM     13  H   UNL     1      43.381  10.119  12.272  0.00  0.00    +0.000 HD
BRANCH  11  14
ATOM     14  C   UNL     1      41.640  11.135  10.736  0.00  0.00    +0.000 C 
ATOM     15  C   UNL     1      41.545  11.516  12.200  0.00  0.00    +0.000 C 
ATOM     16  C   UNL     1      40.053  11.438  12.465  0.00  0.00    +0.000 C 
ATOM     17  C   UNL     1      39.550  10.358  11.517  0.00  0.00    +0.000 C 
ATOM     18  N   UNL     1      40.670  10.016  10.634  0.00  0.00    +0.000 NA
ATOM     19  H   UNL     1      40.350   9.937   9.668  0.00  0.00    +0.000 HD
ENDBRANCH  11  14
ENDBRANCH   9  10
ENDBRANCH   6   9
ENDBRANCH   2   3
BRANCH   2  20
ATOM     20  N   UNL     1      47.255   4.901  14.917  0.00  0.00    +0.000 N 
ATOM     21  C   UNL     1      47.318   4.331  16.166  0.00  0.00    +0.000 C 
ATOM     22  O   UNL     1      46.414   3.643  16.629  0.00  0.00    +0.000 OA
ATOM     23  H   UNL     1      47.857   5.698  14.731  0.00  0.00    +0.000 HD
BRANCH  21  24
ATOM     24  C   UNL     1      48.563   4.529  16.914  0.00  0.00    +0.000 A 
ATOM     25  C   UNL     1      48.823   5.758  17.504  0.00  0.00    +0.000 A 
ATOM     26  S   UNL     1      50.322   5.821  18.315  0.00  0.00    +0.000 S 
ATOM     27  C   UNL     1      50.689   4.219  17.872  0.00  0.00    +0.000 A 
ATOM     28  N   UNL     1      51.878   3.653  18.210  0.00  0.00    +0.000 NA
ATOM     29  C   UNL     1      52.033   2.445  17.778  0.00  0.00    +0.000 A 
ATOM     30  N   UNL     1      51.099   1.745  17.057  0.00  0.00    +0.000 N 
ATOM     31  C   UNL     1      49.869   2.261  16.732  0.00  0.00    +0.000 A 
ATOM     32  O   UNL     1      49.022   1.587  16.152  0.00  0.00    +0.000 OA
ATOM     33  C   UNL     1      49.663   3.632  17.154  0.00  0.00    +0.000 A 
ATOM     34  H   UNL     1      51.271   0.793  16.774  0.00  0.00    +0.000 HD
ENDBRANCH  21  24
ENDBRANCH   2  20
TORSDOF 6
ENDMDL
MODEL 8
REMARK VINA RESULT:    -6.629      3.765      8.954
REMARK INTER + INTRA:         -10.153
REMARK INTER:                  -9.052
REMARK INTRA:                  -1.102
REMARK UNBOUND:                -1.198
REMARK  Name = 
REMARK  7 active torsions:
REMARK  status: ('A' for Active; 'I' for Inactive)
REMARK    1  A    between atoms: C_1  and  C_2
REMARK    2  A    between atoms: C_2  and  N_3
REMARK    3  A    between atoms: C_2  and  C_16
REMARK    4  A    between atoms: C_4  and  C_6
REMARK    5  A    between atoms: C_19  and  C_20
REMARK    6  A    between atoms: C_20  and  N_21
REMARK    7  A    between atoms: C_22  and  C_24
REMARK                            x       y       z     vdW  Elec       q    Type
REMARK                         _______ _______ _______ _____ _____    ______ ____
ROOT
ATOM      1  C   UNL     1      49.444   8.211  11.775  0.00  0.00    +0.000 C 
ATOM      2  C   UNL     1      48.238   7.715  12.589  0.00  0.00    +0.000 C 
ENDROOT
BRANCH   2   3
ATOM      3  C   UNL     1      48.695   7.253  13.969  0.00  0.00    +0.000 A 
ATOM      4  C   UNL     1      48.073   6.171  14.607  0.00  0.00    +0.000 A 
ATOM      5  C   UNL     1      48.440   5.799  15.909  0.00  0.00    +0.000 A 
ATOM      6  C   UNL     1      49.432   6.502  16.603  0.00  0.00    +0.000 A 
ATOM      7  C   UNL     1      50.092   7.547  15.946  0.00  0.00    +0.000 A 
ATOM      8  C   UNL     1      49.730   7.916  14.647  0.00  0.00    +0.000 A 
BRANCH   6   9
ATOM      9  C   UNL     1      49.760   6.195  18.042  0.00  0.00    +0.000 C 
BRANCH   9  10
ATOM     10  N   UNL     1      50.312   4.879  18.240  0.00  0.00    +0.000 N 
ATOM     11  C   UNL     1      51.668   4.659  18.135  0.00  0.00    +0.000 C 
ATOM     12  O   UNL     1      52.466   5.532  17.792  0.00  0.00    +0.000 OA
ATOM     13  H   UNL     1      49.747   4.111  18.593  0.00  0.00    +0.000 HD
BRANCH  11  14
ATOM     14  C   UNL     1      52.112   3.218  18.408  0.00  0.00    +0.000 C 
ATOM     15  C   UNL     1      53.463   2.902  17.799  0.00  0.00    +0.000 C 
ATOM     16  C   UNL     1      53.468   1.386  17.774  0.00  0.00    +0.000 C 
ATOM     17  C   UNL     1      52.005   0.999  17.604  0.00  0.00    +0.000 C 
ATOM     18  N   UNL     1      51.223   2.233  17.743  0.00  0.00    +0.000 NA
ATOM     19  H   UNL     1      50.404   2.070  18.329  0.00  0.00    +0.000 HD
ENDBRANCH  11  14
ENDBRANCH   9  10
ENDBRANCH   6   9
ENDBRANCH   2   3
BRANCH   2  20
ATOM     20  N   UNL     1      47.522   6.643  11.917  0.00  0.00    +0.000 N 
ATOM     21  C   UNL     1      46.205   6.760  11.543  0.00  0.00    +0.000 C 
ATOM     22  O   UNL     1      45.554   7.787  11.714  0.00  0.00    +0.000 OA
ATOM     23  H   UNL     1      47.893   5.707  12.052  0.00  0.00    +0.000 HD
BRANCH  21  24
ATOM     24  C   UNL     1      45.614   5.608  10.857  0.00  0.00    +0.000 A 
ATOM     25  C   UNL     1      45.681   5.523   9.473  0.00  0.00    +0.000 A 
ATOM     26  S   UNL     1      44.927   4.131   8.838  0.00  0.00    +0.000 S 
ATOM     27  C   UNL     1      44.453   3.616  10.389  0.00  0.00    +0.000 A 
ATOM     28  N   UNL     1      43.709   2.490  10.558  0.00  0.00    +0.000 NA
ATOM     29  C   UNL     1      43.394   2.240  11.786  0.00  0.00    +0.000 A 
ATOM     30  N   UNL     1      43.773   3.002  12.862  0.00  0.00    +0.000 N 
ATOM     31  C   UNL     1      44.560   4.121  12.743  0.00  0.00    +0.000 A 
ATOM     32  O   UNL     1      44.947   4.741  13.729  0.00  0.00    +0.000 OA
ATOM     33  C   UNL     1      44.903   4.471  11.380  0.00  0.00    +0.000 A 
ATOM     34  H   UNL     1      43.517   2.736  13.800  0.00  0.00    +0.000 HD
ENDBRANCH  21  24
ENDBRANCH   2  20
TORSDOF 6
ENDMDL
MODEL 9
REMARK VINA RESULT:    -6.287      4.125      5.663
REMARK INTER + INTRA:          -9.691
REMARK INTER:                  -8.576
REMARK INTRA:                  -1.115
REMARK UNBOUND:                -1.198
REMARK  Name = 
REMARK  7 active torsions:
REMARK  status: ('A' for Active; 'I' for Inactive)
REMARK    1  A    between atoms: C_1  and  C_2
REMARK    2  A    between atoms: C_2  and  N_3
REMARK    3  A    between atoms: C_2  and  C_16
REMARK    4  A    between atoms: C_4  and  C_6
REMARK    5  A    between atoms: C_19  and  C_20
REMARK    6  A    between atoms: C_20  and  N_21
REMARK    7  A    between atoms: C_22  and  C_24
REMARK                            x       y       z     vdW  Elec       q    Type
REMARK                         _______ _______ _______ _____ _____    ______ ____
ROOT
ATOM      1  C   UNL     1      48.757   7.870  15.910  0.00  0.00    +0.000 C 
ATOM      2  C   UNL     1      48.823   8.542  14.529  0.00  0.00    +0.000 C 
ENDROOT
BRANCH   2   3
ATOM      3  C   UNL     1      47.730   7.983  13.625  0.00  0.00    +0.000 A 
ATOM      4  C   UNL     1      46.551   8.705  13.391  0.00  0.00    +0.000 A 
ATOM      5  C   UNL     1      45.512   8.156  12.625  0.00  0.00    +0.000 A 
ATOM      6  C   UNL     1      45.627   6.870  12.080  0.00  0.00    +0.000 A 
ATOM      7  C   UNL     1      46.825   6.171  12.267  0.00  0.00    +0.000 A 
ATOM      8  C   UNL     1      47.861   6.720  13.027  0.00  0.00    +0.000 A 
BRANCH   6   9
ATOM      9  C   UNL     1      44.480   6.214  11.354  0.00  0.00    +0.000 C 
BRANCH   9  10
ATOM     10  N   UNL     1      44.887   5.455  10.200  0.00  0.00    +0.000 N 
ATOM     11  C   UNL     1      44.258   4.273   9.876  0.00  0.00    +0.000 C 
ATOM     12  O   UNL     1      43.388   3.759  10.578  0.00  0.00    +0.000 OA
ATOM     13  H   UNL     1      45.545   5.828   9.520  0.00  0.00    +0.000 HD
BRANCH  11  14
ATOM     14  C   UNL     1      44.773   3.595   8.600  0.00  0.00    +0.000 C 
ATOM     15  C   UNL     1      45.500   2.297   8.887  0.00  0.00    +0.000 C 
ATOM     16  C   UNL     1      46.296   2.076   7.614  0.00  0.00    +0.000 C 
ATOM     17  C   UNL     1      46.593   3.478   7.099  0.00  0.00    +0.000 C 
ATOM     18  N   UNL     1      45.820   4.407   7.931  0.00  0.00    +0.000 NA
ATOM     19  H   UNL     1      45.374   5.118   7.350  0.00  0.00    +0.000 HD
ENDBRANCH  11  14
ENDBRANCH   9  10
ENDBRANCH   6   9
ENDBRANCH   2   3
BRANCH   2  20
ATOM     20  N   UNL     1      50.123   8.380  13.898  0.00  0.00    +0.000 N 
ATOM     21  C   UNL     1      51.013   9.419  13.769  0.00  0.00    +0.000 C 
ATOM     22  O   UNL     1      50.791  10.543  14.209  0.00  0.00    +0.000 OA
ATOM     23  H   UNL     1      50.209   7.601  13.252  0.00  0.00    +0.000 HD
BRANCH  21  24
ATOM     24  C   UNL     1      52.293   9.108  13.128  0.00  0.00    +0.000 A 
ATOM     25  C   UNL     1      52.637   9.735  11.938  0.00  0.00    +0.000 A 
ATOM     26  S   UNL     1      54.149   9.243  11.320  0.00  0.00    +0.000 S 
ATOM     27  C   UNL     1      54.376   8.148  12.602  0.00  0.00    +0.000 A 
ATOM     28  N   UNL     1      55.474   7.346  12.655  0.00  0.00    +0.000 NA
ATOM     29  C   UNL     1      55.496   6.542  13.666  0.00  0.00    +0.000 A 
ATOM     30  N   UNL     1      54.532   6.480  14.640  0.00  0.00    +0.000 N 
ATOM     31  C   UNL     1      53.431   7.300  14.650  0.00  0.00    +0.000 A 
ATOM     32  O   UNL     1      52.622   7.276  15.574  0.00  0.00    +0.000 OA
ATOM     33  C   UNL     1      53.334   8.190  13.512  0.00  0.00    +0.000 A 
ATOM     34  H   UNL     1      54.624   5.848  15.420  0.00  0.00    +0.000 HD
ENDBRANCH  21  24
ENDBRANCH   2  20
TORSDOF 6
ENDMDL
