MODEL 1
REMARK VINA RESULT:    -7.474      0.000      0.000
REMARK INTER + INTRA:         -12.393
REMARK INTER:                 -11.407
REMARK INTRA:                  -0.986
REMARK UNBOUND:                -0.986
REMARK  Name = 
REMARK  10 active torsions:
REMARK  status: ('A' for Active; 'I' for Inactive)
REMARK    1  A    between atoms: C_1  and  C_2
REMARK    2  A    between atoms: C_2  and  C_3
REMARK    3  A    between atoms: C_3  and  N_4
REMARK    4  A    between atoms: C_3  and  C_20
REMARK    5  A    between atoms: N_4  and  C_5
REMARK    6  A    between atoms: C_5  and  C_6
REMARK    7  A    between atoms: C_9  and  C_10
REMARK    8  A    between atoms: C_10  and  O_11
REMARK    9  A    between atoms: O_11  and  C_12
REMARK   10  A    between atoms: C_12  and  C_13
REMARK                            x       y       z     vdW  Elec       q    Type
REMARK                         _______ _______ _______ _____ _____    ______ ____
ROOT
ATOM      1  N   UNL     1      48.374   5.193  15.581  0.00  0.00    +0.000 NA
ATOM      2  H   UNL     1      47.566   4.578  15.654  0.00  0.00    +0.000 HD
ENDROOT
BRANCH   1   3
ATOM      3  C   UNL     1      48.690   5.711  16.922  0.00  0.00    +0.000 C 
BRANCH   3   4
ATOM      4  C   UNL     1      50.019   5.113  17.378  0.00  0.00    +0.000 A 
ATOM      5  C   UNL     1      51.098   5.867  17.817  0.00  0.00    +0.000 A 
ATOM      6  S   UNL     1      52.495   4.950  18.149  0.00  0.00    +0.000 S 
ATOM      7  C   UNL     1      51.705   3.502  17.747  0.00  0.00    +0.000 A 
ATOM      8  N   UNL     1      52.365   2.317  17.804  0.00  0.00    +0.000 NA
ATOM      9  C   UNL     1      51.651   1.297  17.464  0.00  0.00    +0.000 A 
ATOM     10  N   UNL     1      50.332   1.353  17.086  0.00  0.00    +0.000 N 
ATOM     11  C   UNL     1      49.605   2.526  17.061  0.00  0.00    +0.000 A 
ATOM     12  O   UNL     1      48.399   2.517  16.831  0.00  0.00    +0.000 OA
ATOM     13  C   UNL     1      50.380   3.711  17.385  0.00  0.00    +0.000 A 
ATOM     14  H   UNL     1      49.823   0.511  16.876  0.00  0.00    +0.000 HD
ENDBRANCH   3   4
BRANCH   3  16
ATOM     15  C   UNL     1      48.037   7.804  18.320  0.00  0.00    +0.000 C 
ATOM     16  C   UNL     1      48.658   7.258  17.042  0.00  0.00    +0.000 C 
ENDBRANCH   3  16
ENDBRANCH   1   3
BRANCH   1  17
ATOM     17  C   UNL     1      48.105   6.218  14.573  0.00  0.00    +0.000 C 
BRANCH  17  18
ATOM     18  C   UNL     1      47.074   5.775  13.564  0.00  0.00    +0.000 A 
ATOM     19  C   UNL     1      46.729   6.585  12.473  0.00  0.00    +0.000 A 
ATOM     20  C   UNL     1      45.809   6.137  11.524  0.00  0.00    +0.000 A 
ATOM     21  C   UNL     1      45.229   4.866  11.637  0.00  0.00    +0.000 A 
ATOM     22  C   UNL     1      45.579   4.054  12.721  0.00  0.00    +0.000 A 
ATOM     23  C   UNL     1      46.489   4.504  13.676  0.00  0.00    +0.000 A 
BRANCH  21  24
ATOM     24  C   UNL     1      44.240   4.386  10.611  0.00  0.00    +0.000 C 
BRANCH  24  25
ATOM     25  O   UNL     1      44.891   3.447   9.764  0.00  0.00    +0.000 OA
BRANCH  25  26
ATOM     26  C   UNL     1      45.071   3.977   8.454  0.00  0.00    +0.000 C 
BRANCH  26  27
ATOM     27  C   UNL     1      45.979   3.051   7.729  0.00  0.00    +0.000 A 
ATOM     28  C   UNL     1      46.685   3.216   6.553  0.00  0.00    +0.000 A 
ATOM     29  C   UNL     1      47.403   2.018   6.314  0.00  0.00    +0.000 A 
ATOM     30  C   UNL     1      47.116   1.153   7.345  0.00  0.00    +0.000 A 
ATOM     31  N   UNL     1      46.249   1.785   8.194  0.00  0.00    +0.000 N 
ATOM     32  H   UNL     1      45.849   1.405   9.044  0.00  0.00    +0.000 HD
ENDBRANCH  26  27
ENDBRANCH  25  26
ENDBRANCH  24  25
ENDBRANCH  21  24
ENDBRANCH  17  18
ENDBRANCH   1  17
TORSDOF 9
ENDMDL
MODEL 2
REMARK VINA RESULT:    -7.269      2.020      2.638
REMARK INTER + INTRA:         -12.079
REMARK INTER:                 -10.965
REMARK INTRA:                  -1.114
REMARK UNBOUND:                -0.986
REMARK  Name = 
REMARK  10 active torsions:
REMARK  status: ('A' for Active; 'I' for Inactive)
REMARK    1  A    between atoms: C_1  and  C_2
REMARK    2  A    between atoms: C_2  and  C_3
REMARK    3  A    between atoms: C_3  and  N_4
REMARK    4  A    between atoms: C_3  and  C_20
REMARK    5  A    between atoms: N_4  and  C_5
REMARK    6  A    between atoms: C_5  and  C_6
REMARK    7  A    between atoms: C_9  and  C_10
REMARK    8  A    between atoms: C_10  and  O_11
REMARK    9  A    between atoms: O_11  and  C_12
REMARK   10  A    between atoms: C_12  and  C_13
REMARK                            x       y       z     vdW  Elec       q    Type
REMARK                         _______ _______ _______ _____ _____    ______ ____
ROOT
ATOM      1  N   UNL     1      48.089   6.369  15.055  0.00  0.00    +0.000 NA
ATOM      2  H   UNL     1      47.127   6.552  15.332  0.00  0.00    +0.000 HD
ENDROOT
BRANCH   1   3
ATOM      3  C   UNL     1      48.975   7.256  15.824  0.00  0.00    +0.000 C 
BRANCH   3   4
ATOM      4  C   UNL     1      48.604   7.158  17.303  0.00  0.00    +0.000 A 
ATOM      5  C   UNL     1      48.170   8.233  18.066  0.00  0.00    +0.000 A 
ATOM      6  S   UNL     1      47.943   7.866  19.714  0.00  0.00    +0.000 S 
ATOM      7  C   UNL     1      48.388   6.246  19.470  0.00  0.00    +0.000 A 
ATOM      8  N   UNL     1      48.419   5.374  20.510  0.00  0.00    +0.000 NA
ATOM      9  C   UNL     1      48.783   4.178  20.188  0.00  0.00    +0.000 A 
ATOM     10  N   UNL     1      49.105   3.772  18.917  0.00  0.00    +0.000 N 
ATOM     11  C   UNL     1      49.039   4.607  17.820  0.00  0.00    +0.000 A 
ATOM     12  O   UNL     1      49.221   4.174  16.686  0.00  0.00    +0.000 OA
ATOM     13  C   UNL     1      48.685   5.979  18.139  0.00  0.00    +0.000 A 
ATOM     14  H   UNL     1      49.338   2.811  18.730  0.00  0.00    +0.000 HD
ENDBRANCH   3   4
BRANCH   3  16
ATOM     15  C   UNL     1      51.247   8.239  15.031  0.00  0.00    +0.000 C 
ATOM     16  C   UNL     1      50.490   7.034  15.572  0.00  0.00    +0.000 C 
ENDBRANCH   3  16
ENDBRANCH   1   3
BRANCH   1  17
ATOM     17  C   UNL     1      48.201   6.494  13.603  0.00  0.00    +0.000 C 
BRANCH  17  18
ATOM     18  C   UNL     1      47.006   5.920  12.882  0.00  0.00    +0.000 A 
ATOM     19  C   UNL     1      46.621   6.393  11.620  0.00  0.00    +0.000 A 
ATOM     20  C   UNL     1      45.542   5.816  10.948  0.00  0.00    +0.000 A 
ATOM     21  C   UNL     1      44.838   4.745  11.515  0.00  0.00    +0.000 A 
ATOM     22  C   UNL     1      45.228   4.266  12.771  0.00  0.00    +0.000 A 
ATOM     23  C   UNL     1      46.297   4.849  13.449  0.00  0.00    +0.000 A 
BRANCH  21  24
ATOM     24  C   UNL     1      43.679   4.125  10.787  0.00  0.00    +0.000 C 
BRANCH  24  25
ATOM     25  O   UNL     1      44.103   3.783   9.473  0.00  0.00    +0.000 OA
BRANCH  25  26
ATOM     26  C   UNL     1      44.617   2.455   9.429  0.00  0.00    +0.000 C 
BRANCH  26  27
ATOM     27  C   UNL     1      45.680   2.432   8.392  0.00  0.00    +0.000 A 
ATOM     28  C   UNL     1      46.165   3.433   7.572  0.00  0.00    +0.000 A 
ATOM     29  C   UNL     1      47.188   2.871   6.769  0.00  0.00    +0.000 A 
ATOM     30  C   UNL     1      47.300   1.543   7.116  0.00  0.00    +0.000 A 
ATOM     31  N   UNL     1      46.380   1.285   8.095  0.00  0.00    +0.000 N 
ATOM     32  H   UNL     1      46.216   0.396   8.553  0.00  0.00    +0.000 HD
ENDBRANCH  26  27
ENDBRANCH  25  26
ENDBRANCH  24  25
ENDBRANCH  21  24
ENDBRANCH  17  18
ENDBRANCH   1  17
TORSDOF 9
ENDMDL
MODEL 3
REMARK VINA RESULT:    -6.977      2.502      4.217
REMARK INTER + INTRA:         -11.634
REMARK INTER:                 -10.511
REMARK INTRA:                  -1.122
REMARK UNBOUND:                -0.986
REMARK  Name = 
REMARK  10 active torsions:
REMARK  status: ('A' for Active; 'I' for Inactive)
REMARK    1  A    between atoms: C_1  and  C_2
REMARK    2  A    between atoms: C_2  and  C_3
REMARK    3  A    between atoms: C_3  and  N_4
REMARK    4  A    between atoms: C_3  and  C_20
REMARK    5  A    between atoms: N_4  and  C_5
REMARK    6  A    between atoms: C_5  and  C_6
REMARK    7  A    between atoms: C_9  and  C_10
REMARK    8  A    between atoms: C_10  and  O_11
REMARK    9  A    between atoms: O_11  and  C_12
REMARK   10  A    between atoms: C_12  and  C_13
REMARK                            x       y       z     vdW  Elec       q    Type
REMARK                         _______ _______ _______ _____ _____    ______ ____
ROOT
ATOM      1  N   UNL     1      47.526   5.524  15.773  0.00  0.00    +0.000 NA
ATOM      2  H   UNL     1      46.873   6.221  16.121  0.00  0.00    +0.000 HD
ENDROOT
BRANCH   1   3
ATOM      3  C   UNL     1      48.627   5.387  16.740  0.00  0.00    +0.000 C 
BRANCH   3   4
ATOM      4  C   UNL     1      48.259   6.150  18.011  0.00  0.00    +0.000 A 
ATOM      5  C   UNL     1      47.958   5.539  19.221  0.00  0.00    +0.000 A 
ATOM      6  S   UNL     1      47.466   6.622  20.440  0.00  0.00    +0.000 S 
ATOM      7  C   UNL     1      47.663   7.957  19.409  0.00  0.00    +0.000 A 
ATOM      8  N   UNL     1      47.385   9.212  19.844  0.00  0.00    +0.000 NA
ATOM      9  C   UNL     1      47.569  10.132  18.958  0.00  0.00    +0.000 A 
ATOM     10  N   UNL     1      48.019   9.911  17.680  0.00  0.00    +0.000 N 
ATOM     11  C   UNL     1      48.363   8.661  17.207  0.00  0.00    +0.000 A 
ATOM     12  O   UNL     1      48.872   8.522  16.099  0.00  0.00    +0.000 OA
ATOM     13  C   UNL     1      48.123   7.584  18.152  0.00  0.00    +0.000 A 
ATOM     14  H   UNL     1      48.182  10.682  17.053  0.00  0.00    +0.000 HD
ENDBRANCH   3   4
BRANCH   3  16
ATOM     15  C   UNL     1      48.060   2.853  16.612  0.00  0.00    +0.000 C 
ATOM     16  C   UNL     1      49.060   3.925  17.024  0.00  0.00    +0.000 C 
ENDBRANCH   3  16
ENDBRANCH   1   3
BRANCH   1  17
ATOM     17  C   UNL     1      47.938   5.889  14.418  0.00  0.00    +0.000 C 
BRANCH  17  18
ATOM     18  C   UNL     1      46.935   5.458  13.376  0.00  0.00    +0.000 A 
ATOM     19  C   UNL     1      46.376   4.173  13.392  0.00  0.00    +0.000 A 
ATOM     20  C   UNL     1      45.414   3.810  12.450  0.00  0.00    +0.000 A 
ATOM     21  C   UNL     1      44.979   4.727  11.484  0.00  0.00    +0.000 A 
ATOM     22  C   UNL     1      45.530   6.013  11.472  0.00  0.00    +0.000 A 
ATOM     23  C   UNL     1      46.500   6.374  12.406  0.00  0.00    +0.000 A 
BRANCH  21  24
ATOM     24  C   UNL     1      43.940   4.333  10.471  0.00  0.00    +0.000 C 
BRANCH  24  25
ATOM     25  O   UNL     1      44.521   3.393   9.573  0.00  0.00    +0.000 OA
BRANCH  25  26
ATOM     26  C   UNL     1      45.189   4.053   8.503  0.00  0.00    +0.000 C 
BRANCH  26  27
ATOM     27  C   UNL     1      46.100   3.059   7.878  0.00  0.00    +0.000 A 
ATOM     28  C   UNL     1      46.277   1.712   8.129  0.00  0.00    +0.000 A 
ATOM     29  C   UNL     1      47.272   1.238   7.240  0.00  0.00    +0.000 A 
ATOM     30  C   UNL     1      47.680   2.305   6.472  0.00  0.00    +0.000 A 
ATOM     31  N   UNL     1      46.969   3.405   6.869  0.00  0.00    +0.000 N 
ATOM     32  H   UNL     1      47.047   4.343   6.495  0.00  0.00    +0.000 HD
ENDBRANCH  26  27
ENDBRANCH  25  26
ENDBRANCH  24  25
ENDBRANCH  21  24
ENDBRANCH  17  18
ENDBRANCH   1  17
TORSDOF 9
ENDMDL
MODEL 4
REMARK VINA RESULT:    -6.801      3.264      4.704
REMARK INTER + INTRA:         -11.365
REMARK INTER:                  -9.834
REMARK INTRA:                  -1.531
REMARK UNBOUND:                -0.986
REMARK  Name = 
REMARK  10 active torsions:
REMARK  status: ('A' for Active; 'I' for Inactive)
REMARK    1  A    between atoms: C_1  and  C_2
REMARK    2  A    between atoms: C_2  and  C_3
REMARK    3  A    between atoms: C_3  and  N_4
REMARK    4  A    between atoms: C_3  and  C_20
REMARK    5  A    between atoms: N_4  and  C_5
REMARK    6  A    between atoms: C_5  and  C_6
REMARK    7  A    between atoms: C_9  and  C_10
REMARK    8  A    between atoms: C_10  and  O_11
REMARK    9  A    between atoms: O_11  and  C_12
REMARK   10  A    between atoms: C_12  and  C_13
REMARK                            x       y       z     vdW  Elec       q    Type
REMARK                         _______ _______ _______ _____ _____    ______ ____
ROOT
ATOM      1  N   UNL     1      49.613   6.873  13.304  0.00  0.00    +0.000 NA
ATOM      2  H   UNL     1      49.203   6.140  13.879  0.00  0.00    +0.000 HD
ENDROOT
BRANCH   1   3
ATOM      3  C   UNL     1      50.024   7.981  14.181  0.00  0.00    +0.000 C 
BRANCH   3   4
ATOM      4  C   UNL     1      49.493   7.716  15.588  0.00  0.00    +0.000 A 
ATOM      5  C   UNL     1      49.490   6.466  16.192  0.00  0.00    +0.000 A 
ATOM      6  S   UNL     1      48.729   6.435  17.716  0.00  0.00    +0.000 S 
ATOM      7  C   UNL     1      48.398   8.099  17.644  0.00  0.00    +0.000 A 
ATOM      8  N   UNL     1      47.734   8.715  18.656  0.00  0.00    +0.000 NA
ATOM      9  C   UNL     1      47.541   9.978  18.470  0.00  0.00    +0.000 A 
ATOM     10  N   UNL     1      47.964  10.683  17.371  0.00  0.00    +0.000 N 
ATOM     11  C   UNL     1      48.686  10.112  16.342  0.00  0.00    +0.000 A 
ATOM     12  O   UNL     1      49.147  10.801  15.437  0.00  0.00    +0.000 OA
ATOM     13  C   UNL     1      48.884   8.680  16.480  0.00  0.00    +0.000 A 
ATOM     14  H   UNL     1      47.818  11.677  17.312  0.00  0.00    +0.000 HD
ENDBRANCH   3   4
BRANCH   3  16
ATOM     15  C   UNL     1      51.962   9.483  13.316  0.00  0.00    +0.000 C 
ATOM     16  C   UNL     1      51.544   8.289  14.164  0.00  0.00    +0.000 C 
ENDBRANCH   3  16
ENDBRANCH   1   3
BRANCH   1  17
ATOM     17  C   UNL     1      48.667   7.240  12.251  0.00  0.00    +0.000 C 
BRANCH  17  18
ATOM     18  C   UNL     1      47.304   6.629  12.464  0.00  0.00    +0.000 A 
ATOM     19  C   UNL     1      46.178   7.103  11.776  0.00  0.00    +0.000 A 
ATOM     20  C   UNL     1      44.935   6.493  11.950  0.00  0.00    +0.000 A 
ATOM     21  C   UNL     1      44.795   5.389  12.801  0.00  0.00    +0.000 A 
ATOM     22  C   UNL     1      45.920   4.909  13.482  0.00  0.00    +0.000 A 
ATOM     23  C   UNL     1      47.160   5.525  13.318  0.00  0.00    +0.000 A 
BRANCH  21  24
ATOM     24  C   UNL     1      43.455   4.733  12.984  0.00  0.00    +0.000 C 
BRANCH  24  25
ATOM     25  O   UNL     1      42.985   4.306  11.710  0.00  0.00    +0.000 OA
BRANCH  25  26
ATOM     26  C   UNL     1      43.418   2.980  11.423  0.00  0.00    +0.000 C 
BRANCH  26  27
ATOM     27  C   UNL     1      44.207   3.041  10.166  0.00  0.00    +0.000 A 
ATOM     28  C   UNL     1      44.410   4.078   9.276  0.00  0.00    +0.000 A 
ATOM     29  C   UNL     1      45.255   3.599   8.245  0.00  0.00    +0.000 A 
ATOM     30  C   UNL     1      45.544   2.283   8.529  0.00  0.00    +0.000 A 
ATOM     31  N   UNL     1      44.902   1.953   9.691  0.00  0.00    +0.000 N 
ATOM     32  H   UNL     1      44.916   1.053  10.156  0.00  0.00    +0.000 HD
ENDBRANCH  26  27
ENDBRANCH  25  26
ENDBRANCH  24  25
ENDBRANCH  21  24
ENDBRANCH  17  18
ENDBRANCH   1  17
TORSDOF 9
ENDMDL
MODEL 5
REMARK VINA RESULT:    -6.456      2.203      2.931
REMARK INTER + INTRA:         -10.839
REMARK INTER:                  -9.856
REMARK INTRA:                  -0.983
REMARK UNBOUND:                -0.986
REMARK  Name = 
REMARK  10 active torsions:
REMARK  status: ('A' for Active; 'I' for Inactive)
REMARK    1  A    between atoms: C_1  and  C_2
REMARK    2  A    between atoms: C_2  and  C_3
REMARK    3  A    between atoms: C_3  and  N_4
REMARK    4  A    between atoms: C_3  and  C_20
REMARK    5  A    between atoms: N_4  and  C_5
REMARK    6  A    between atoms: C_5  and  C_6
REMARK    7  A    between atoms: C_9  and  C_10
REMARK    8  A    between atoms: C_10  and  O_11
REMARK    9  A    between atoms: O_11  and  C_12
REMARK   10  A    between atoms: C_12  and  C_13
REMARK                            x       y       z     vdW  Elec       q    Type
REMARK                         _______ _______ _______ _____ _____    ______ ____
ROOT
ATOM      1  N   UNL     1      49.264   6.708  14.882  0.00  0.00    +0.000 NA
ATOM      2  H   UNL     1      48.897   5.763  14.965  0.00  0.00    +0.000 HD
ENDROOT
BRANCH   1   3
ATOM      3  C   UNL     1      49.185   7.359  16.199  0.00  0.00    +0.000 C 
BRANCH   3   4
ATOM      4  C   UNL     1      49.656   6.371  17.264  0.00  0.00    +0.000 A 
ATOM      5  C   UNL     1      50.733   5.510  17.100  0.00  0.00    +0.000 A 
ATOM      6  S   UNL     1      50.962   4.432  18.398  0.00  0.00    +0.000 S 
ATOM      7  C   UNL     1      49.647   5.091  19.247  0.00  0.00    +0.000 A 
ATOM      8  N   UNL     1      49.287   4.593  20.458  0.00  0.00    +0.000 NA
ATOM      9  C   UNL     1      48.267   5.178  20.989  0.00  0.00    +0.000 A 
ATOM     10  N   UNL     1      47.582   6.225  20.425  0.00  0.00    +0.000 N 
ATOM     11  C   UNL     1      47.939   6.799  19.221  0.00  0.00    +0.000 A 
ATOM     12  O   UNL     1      47.374   7.807  18.810  0.00  0.00    +0.000 OA
ATOM     13  C   UNL     1      49.051   6.140  18.559  0.00  0.00    +0.000 A 
ATOM     14  H   UNL     1      46.820   6.664  20.916  0.00  0.00    +0.000 HD
ENDBRANCH   3   4
BRANCH   3  16
ATOM     15  C   UNL     1      49.032   9.917  16.638  0.00  0.00    +0.000 C 
ATOM     16  C   UNL     1      49.914   8.726  16.289  0.00  0.00    +0.000 C 
ENDBRANCH   3  16
ENDBRANCH   1   3
BRANCH   1  17
ATOM     17  C   UNL     1      48.555   7.402  13.808  0.00  0.00    +0.000 C 
BRANCH  17  18
ATOM     18  C   UNL     1      47.562   6.511  13.104  0.00  0.00    +0.000 A 
ATOM     19  C   UNL     1      47.018   5.385  13.738  0.00  0.00    +0.000 A 
ATOM     20  C   UNL     1      46.064   4.600  13.088  0.00  0.00    +0.000 A 
ATOM     21  C   UNL     1      45.623   4.933  11.801  0.00  0.00    +0.000 A 
ATOM     22  C   UNL     1      46.159   6.062  11.170  0.00  0.00    +0.000 A 
ATOM     23  C   UNL     1      47.121   6.840  11.813  0.00  0.00    +0.000 A 
BRANCH  21  24
ATOM     24  C   UNL     1      44.594   4.087  11.104  0.00  0.00    +0.000 C 
BRANCH  24  25
ATOM     25  O   UNL     1      44.846   4.133   9.705  0.00  0.00    +0.000 OA
BRANCH  25  26
ATOM     26  C   UNL     1      44.535   2.888   9.088  0.00  0.00    +0.000 C 
BRANCH  26  27
ATOM     27  C   UNL     1      45.712   2.501   8.266  0.00  0.00    +0.000 A 
ATOM     28  C   UNL     1      46.321   1.275   8.080  0.00  0.00    +0.000 A 
ATOM     29  C   UNL     1      47.404   1.466   7.187  0.00  0.00    +0.000 A 
ATOM     30  C   UNL     1      47.431   2.801   6.853  0.00  0.00    +0.000 A 
ATOM     31  N   UNL     1      46.406   3.421   7.514  0.00  0.00    +0.000 N 
ATOM     32  H   UNL     1      46.168   4.405   7.476  0.00  0.00    +0.000 HD
ENDBRANCH  26  27
ENDBRANCH  25  26
ENDBRANCH  24  25
ENDBRANCH  21  24
ENDBRANCH  17  18
ENDBRANCH   1  17
TORSDOF 9
ENDMDL
MODEL 6
REMARK VINA RESULT:    -6.456      3.783      8.642
REMARK INTER + INTRA:         -10.839
REMARK INTER:                  -9.475
REMARK INTRA:                  -1.363
REMARK UNBOUND:                -0.986
REMARK  Name = 
REMARK  10 active torsions:
REMARK  status: ('A' for Active; 'I' for Inactive)
REMARK    1  A    between atoms: C_1  and  C_2
REMARK    2  A    between atoms: C_2  and  C_3
REMARK    3  A    between atoms: C_3  and  N_4
REMARK    4  A    between atoms: C_3  and  C_20
REMARK    5  A    between atoms: N_4  and  C_5
REMARK    6  A    between atoms: C_5  and  C_6
REMARK    7  A    between atoms: C_9  and  C_10
REMARK    8  A    between atoms: C_10  and  O_11
REMARK    9  A    between atoms: O_11  and  C_12
REMARK   10  A    between atoms: C_12  and  C_13
REMARK                            x       y       z     vdW  Elec       q    Type
REMARK                         _______ _______ _______ _____ _____    ______ ____
ROOT
ATOM      1  N   UNL     1      47.458   6.417  12.353  0.00  0.00    +0.000 NA
ATOM      2  H   UNL     1      47.897   5.620  11.897  0.00  0.00    +0.000 HD
ENDROOT
BRANCH   1   3
ATOM      3  C   UNL     1      46.354   6.891  11.505  0.00  0.00    +0.000 C 
BRANCH   3   4
ATOM      4  C   UNL     1      45.743   5.694  10.779  0.00  0.00    +0.000 A 
ATOM      5  C   UNL     1      45.801   5.508   9.405  0.00  0.00    +0.000 A 
ATOM      6  S   UNL     1      44.933   4.152   8.852  0.00  0.00    +0.000 S 
ATOM      7  C   UNL     1      44.466   3.739  10.432  0.00  0.00    +0.000 A 
ATOM      8  N   UNL     1      43.676   2.658  10.658  0.00  0.00    +0.000 NA
ATOM      9  C   UNL     1      43.389   2.464  11.901  0.00  0.00    +0.000 A 
ATOM     10  N   UNL     1      43.832   3.244  12.940  0.00  0.00    +0.000 N 
ATOM     11  C   UNL     1      44.677   4.322  12.765  0.00  0.00    +0.000 A 
ATOM     12  O   UNL     1      45.144   4.921  13.730  0.00  0.00    +0.000 OA
ATOM     13  C   UNL     1      44.986   4.614  11.377  0.00  0.00    +0.000 A 
ATOM     14  H   UNL     1      43.605   3.008  13.892  0.00  0.00    +0.000 HD
ENDBRANCH   3   4
BRANCH   3  16
ATOM     15  C   UNL     1      44.948   9.077  11.586  0.00  0.00    +0.000 C 
ATOM     16  C   UNL     1      45.292   7.747  12.244  0.00  0.00    +0.000 C 
ENDBRANCH   3  16
ENDBRANCH   1   3
BRANCH   1  17
ATOM     17  C   UNL     1      48.479   7.419  12.653  0.00  0.00    +0.000 C 
BRANCH  17  18
ATOM     18  C   UNL     1      48.631   7.660  14.135  0.00  0.00    +0.000 A 
ATOM     19  C   UNL     1      49.494   6.876  14.915  0.00  0.00    +0.000 A 
ATOM     20  C   UNL     1      49.657   7.145  16.274  0.00  0.00    +0.000 A 
ATOM     21  C   UNL     1      48.977   8.211  16.877  0.00  0.00    +0.000 A 
ATOM     22  C   UNL     1      48.122   8.999  16.098  0.00  0.00    +0.000 A 
ATOM     23  C   UNL     1      47.948   8.724  14.742  0.00  0.00    +0.000 A 
BRANCH  21  24
ATOM     24  C   UNL     1      49.157   8.500  18.341  0.00  0.00    +0.000 C 
BRANCH  24  25
ATOM     25  O   UNL     1      49.396   7.270  19.016  0.00  0.00    +0.000 OA
BRANCH  25  26
ATOM     26  C   UNL     1      48.179   6.701  19.491  0.00  0.00    +0.000 C 
BRANCH  26  27
ATOM     27  C   UNL     1      48.018   5.388  18.815  0.00  0.00    +0.000 A 
ATOM     28  C   UNL     1      48.692   4.194  18.988  0.00  0.00    +0.000 A 
ATOM     29  C   UNL     1      48.133   3.253  18.088  0.00  0.00    +0.000 A 
ATOM     30  C   UNL     1      47.137   3.895  17.388  0.00  0.00    +0.000 A 
ATOM     31  N   UNL     1      47.078   5.188  17.831  0.00  0.00    +0.000 N 
ATOM     32  H   UNL     1      46.448   5.911  17.504  0.00  0.00    +0.000 HD
ENDBRANCH  26  27
ENDBRANCH  25  26
ENDBRANCH  24  25
ENDBRANCH  21  24
ENDBRANCH  17  18
ENDBRANCH   1  17
TORSDOF 9
ENDMDL
MODEL 7
REMARK VINA RESULT:    -6.449      2.869      3.801
REMARK INTER + INTRA:         -10.828
REMARK INTER:                  -9.693
REMARK INTRA:                  -1.135
REMARK UNBOUND:                -0.986
REMARK  Name = 
REMARK  10 active torsions:
REMARK  status: ('A' for Active; 'I' for Inactive)
REMARK    1  A    between atoms: C_1  and  C_2
REMARK    2  A    between atoms: C_2  and  C_3
REMARK    3  A    between atoms: C_3  and  N_4
REMARK    4  A    between atoms: C_3  and  C_20
REMARK    5  A    between atoms: N_4  and  C_5
REMARK    6  A    between atoms: C_5  and  C_6
REMARK    7  A    between atoms: C_9  and  C_10
REMARK    8  A    between atoms: C_10  and  O_11
REMARK    9  A    between atoms: O_11  and  C_12
REMARK   10  A    between atoms: C_12  and  C_13
REMARK                            x       y       z     vdW  Elec       q    Type
REMARK                         _______ _______ _______ _____ _____    ______ ____
ROOT
ATOM      1  N   UNL     1      49.758   6.645  14.558  0.00  0.00    +0.000 NA
ATOM      2  H   UNL     1      49.268   5.754  14.586  0.00  0.00    +0.000 HD
ENDROOT
BRANCH   1   3
ATOM      3  C   UNL     1      50.148   7.011  15.929  0.00  0.00    +0.000 C 
BRANCH   3   4
ATOM      4  C   UNL     1      49.244   6.267  16.910  0.00  0.00    +0.000 A 
ATOM      5  C   UNL     1      48.671   5.029  16.650  0.00  0.00    +0.000 A 
ATOM      6  S   UNL     1      47.611   4.487  17.868  0.00  0.00    +0.000 S 
ATOM      7  C   UNL     1      47.896   5.873  18.808  0.00  0.00    +0.000 A 
ATOM      8  N   UNL     1      47.265   6.042  19.998  0.00  0.00    +0.000 NA
ATOM      9  C   UNL     1      47.564   7.141  20.604  0.00  0.00    +0.000 A 
ATOM     10  N   UNL     1      48.449   8.080  20.135  0.00  0.00    +0.000 N 
ATOM     11  C   UNL     1      49.152   7.930  18.956  0.00  0.00    +0.000 A 
ATOM     12  O   UNL     1      50.020   8.735  18.631  0.00  0.00    +0.000 OA
ATOM     13  C   UNL     1      48.810   6.732  18.210  0.00  0.00    +0.000 A 
ATOM     14  H   UNL     1      48.669   8.896  20.682  0.00  0.00    +0.000 HD
ENDBRANCH   3   4
BRANCH   3  16
ATOM     15  C   UNL     1      52.511   8.076  16.125  0.00  0.00    +0.000 C 
ATOM     16  C   UNL     1      51.655   6.822  16.245  0.00  0.00    +0.000 C 
ENDBRANCH   3  16
ENDBRANCH   1   3
BRANCH   1  17
ATOM     17  C   UNL     1      48.921   7.629  13.872  0.00  0.00    +0.000 C 
BRANCH  17  18
ATOM     18  C   UNL     1      47.553   7.087  13.538  0.00  0.00    +0.000 A 
ATOM     19  C   UNL     1      46.521   7.932  13.106  0.00  0.00    +0.000 A 
ATOM     20  C   UNL     1      45.278   7.406  12.755  0.00  0.00    +0.000 A 
ATOM     21  C   UNL     1      45.045   6.025  12.813  0.00  0.00    +0.000 A 
ATOM     22  C   UNL     1      46.077   5.180  13.236  0.00  0.00    +0.000 A 
ATOM     23  C   UNL     1      47.317   5.705  13.598  0.00  0.00    +0.000 A 
BRANCH  21  24
ATOM     24  C   UNL     1      43.705   5.461  12.432  0.00  0.00    +0.000 C 
BRANCH  24  25
ATOM     25  O   UNL     1      43.729   5.141  11.046  0.00  0.00    +0.000 OA
BRANCH  25  26
ATOM     26  C   UNL     1      43.529   3.747  10.838  0.00  0.00    +0.000 C 
BRANCH  26  27
ATOM     27  C   UNL     1      44.390   3.347   9.695  0.00  0.00    +0.000 A 
ATOM     28  C   UNL     1      44.719   4.018   8.534  0.00  0.00    +0.000 A 
ATOM     29  C   UNL     1      45.583   3.182   7.785  0.00  0.00    +0.000 A 
ATOM     30  C   UNL     1      45.757   2.022   8.505  0.00  0.00    +0.000 A 
ATOM     31  N   UNL     1      45.028   2.128   9.658  0.00  0.00    +0.000 N 
ATOM     32  H   UNL     1      44.949   1.434  10.391  0.00  0.00    +0.000 HD
ENDBRANCH  26  27
ENDBRANCH  25  26
ENDBRANCH  24  25
ENDBRANCH  21  24
ENDBRANCH  17  18
ENDBRANCH   1  17
TORSDOF 9
ENDMDL
MODEL 8
REMARK VINA RESULT:    -6.311      3.903      8.563
REMARK INTER + INTRA:         -10.617
REMARK INTER:                  -9.044
REMARK INTRA:                  -1.573
REMARK UNBOUND:                -0.986
REMARK  Name = 
REMARK  10 active torsions:
REMARK  status: ('A' for Active; 'I' for Inactive)
REMARK    1  A    between atoms: C_1  and  C_2
REMARK    2  A    between atoms: C_2  and  C_3
REMARK    3  A    between atoms: C_3  and  N_4
REMARK    4  A    between atoms: C_3  and  C_20
REMARK    5  A    between atoms: N_4  and  C_5
REMARK    6  A    between atoms: C_5  and  C_6
REMARK    7  A    between atoms: C_9  and  C_10
REMARK    8  A    between atoms: C_10  and  O_11
REMARK    9  A    between atoms: O_11  and  C_12
REMARK   10  A    between atoms: C_12  and  C_13
REMARK                            x       y       z     vdW  Elec       q    Type
REMARK                         _______ _______ _______ _____ _____    ______ ____
ROOT
ATOM      1  N   UNL     1      47.282   8.507  13.922  0.00  0.00    +0.000 NA
ATOM      2  H   UNL     1      46.616   8.112  14.581  0.00  0.00    +0.000 HD
ENDROOT
BRANCH   1   3
ATOM      3  C   UNL     1      47.838   7.414  13.107  0.00  0.00    +0.000 C 
BRANCH   3   4
ATOM      4  C   UNL     1      46.798   6.300  13.007  0.00  0.00    +0.000 A 
ATOM      5  C   UNL     1      47.004   5.004  13.460  0.00  0.00    +0.000 A 
ATOM      6  S   UNL     1      45.724   3.936  13.112  0.00  0.00    +0.000 S 
ATOM      7  C   UNL     1      44.827   5.170  12.365  0.00  0.00    +0.000 A 
ATOM      8  N   UNL     1      43.610   4.908  11.824  0.00  0.00    +0.000 NA
ATOM      9  C   UNL     1      43.041   5.931  11.281  0.00  0.00    +0.000 A 
ATOM     10  N   UNL     1      43.572   7.195  11.242  0.00  0.00    +0.000 N 
ATOM     11  C   UNL     1      44.782   7.523  11.822  0.00  0.00    +0.000 A 
ATOM     12  O   UNL     1      45.166   8.688  11.868  0.00  0.00    +0.000 OA
ATOM     13  C   UNL     1      45.486   6.392  12.401  0.00  0.00    +0.000 A 
ATOM     14  H   UNL     1      43.053   7.958  10.840  0.00  0.00    +0.000 HD
ENDBRANCH   3   4
BRANCH   3  16
ATOM     15  C   UNL     1      49.889   7.746  11.545  0.00  0.00    +0.000 C 
ATOM     16  C   UNL     1      48.380   7.852  11.722  0.00  0.00    +0.000 C 
ENDBRANCH   3  16
ENDBRANCH   1   3
BRANCH   1  17
ATOM     17  C   UNL     1      48.273   9.293  14.656  0.00  0.00    +0.000 C 
BRANCH  17  18
ATOM     18  C   UNL     1      48.587   8.703  16.008  0.00  0.00    +0.000 A 
ATOM     19  C   UNL     1      47.958   9.172  17.171  0.00  0.00    +0.000 A 
ATOM     20  C   UNL     1      48.226   8.581  18.406  0.00  0.00    +0.000 A 
ATOM     21  C   UNL     1      49.114   7.501  18.503  0.00  0.00    +0.000 A 
ATOM     22  C   UNL     1      49.735   7.026  17.342  0.00  0.00    +0.000 A 
ATOM     23  C   UNL     1      49.478   7.623  16.109  0.00  0.00    +0.000 A 
BRANCH  21  24
ATOM     24  C   UNL     1      49.398   6.865  19.835  0.00  0.00    +0.000 C 
BRANCH  24  25
ATOM     25  O   UNL     1      48.417   5.862  20.074  0.00  0.00    +0.000 OA
BRANCH  25  26
ATOM     26  C   UNL     1      48.984   4.559  19.982  0.00  0.00    +0.000 C 
BRANCH  26  27
ATOM     27  C   UNL     1      48.523   3.971  18.697  0.00  0.00    +0.000 A 
ATOM     28  C   UNL     1      49.157   3.116  17.816  0.00  0.00    +0.000 A 
ATOM     29  C   UNL     1      48.262   2.863  16.748  0.00  0.00    +0.000 A 
ATOM     30  C   UNL     1      47.109   3.570  17.001  0.00  0.00    +0.000 A 
ATOM     31  N   UNL     1      47.278   4.242  18.180  0.00  0.00    +0.000 N 
ATOM     32  H   UNL     1      46.606   4.853  18.630  0.00  0.00    +0.000 HD
ENDBRANCH  26  27
ENDBRANCH  25  26
ENDBRANCH  24  25
ENDBRANCH  21  24
ENDBRANCH  17  18
ENDBRANCH   1  17
TORSDOF 9
ENDMDL
MODEL 9
REMARK VINA RESULT:    -6.285      3.542      8.208
REMARK INTER + INTRA:         -10.578
REMARK INTER:                  -8.923
REMARK INTRA:                  -1.655
REMARK UNBOUND:                -0.986
REMARK  Name = 
REMARK  10 active torsions:
REMARK  status: ('A' for Active; 'I' for Inactive)
REMARK    1  A    between atoms: C_1  and  C_2
REMARK    2  A    between atoms: C_2  and  C_3
REMARK    3  A    between atoms: C_3  and  N_4
REMARK    4  A    between atoms: C_3  and  C_20
REMARK    5  A    between atoms: N_4  and  C_5
REMARK    6  A    between atoms: C_5  and  C_6
REMARK    7  A    between atoms: C_9  and  C_10
REMARK    8  A    between atoms: C_10  and  O_11
REMARK    9  A    between atoms: O_11  and  C_12
REMARK   10  A    between atoms: C_12  and  C_13
REMARK                            x       y       z     vdW  Elec       q    Type
REMARK                         _______ _______ _______ _____ _____    ______ ____
ROOT
ATOM      1  N   UNL     1      48.158   7.728  12.220  0.00  0.00    +0.000 NA
ATOM      2  H   UNL     1      48.463   7.910  11.267  0.00  0.00    +0.000 HD
ENDROOT
BRANCH   1   3
ATOM      3  C   UNL     1      46.700   7.533  12.218  0.00  0.00    +0.000 C 
BRANCH   3   4
ATOM      4  C   UNL     1      46.396   6.102  12.660  0.00  0.00    +0.000 A 
ATOM      5  C   UNL     1      47.255   5.331  13.431  0.00  0.00    +0.000 A 
ATOM      6  S   UNL     1      46.720   3.732  13.675  0.00  0.00    +0.000 S 
ATOM      7  C   UNL     1      45.301   4.015  12.785  0.00  0.00    +0.000 A 
ATOM      8  N   UNL     1      44.395   3.022  12.596  0.00  0.00    +0.000 NA
ATOM      9  C   UNL     1      43.368   3.368  11.895  0.00  0.00    +0.000 A 
ATOM     10  N   UNL     1      43.159   4.622  11.377  0.00  0.00    +0.000 N 
ATOM     11  C   UNL     1      44.025   5.677  11.584  0.00  0.00    +0.000 A 
ATOM     12  O   UNL     1      43.743   6.809  11.204  0.00  0.00    +0.000 OA
ATOM     13  C   UNL     1      45.223   5.323  12.324  0.00  0.00    +0.000 A 
ATOM     14  H   UNL     1      42.312   4.835  10.876  0.00  0.00    +0.000 HD
ENDBRANCH   3   4
BRANCH   3  16
ATOM     15  C   UNL     1      45.237   9.682  12.201  0.00  0.00    +0.000 C 
ATOM     16  C   UNL     1      45.904   8.590  13.027  0.00  0.00    +0.000 C 
ENDBRANCH   3  16
ENDBRANCH   1   3
BRANCH   1  17
ATOM     17  C   UNL     1      48.634   8.805  13.088  0.00  0.00    +0.000 C 
BRANCH  17  18
ATOM     18  C   UNL     1      49.223   8.287  14.377  0.00  0.00    +0.000 A 
ATOM     19  C   UNL     1      48.449   8.185  15.541  0.00  0.00    +0.000 A 
ATOM     20  C   UNL     1      48.998   7.658  16.711  0.00  0.00    +0.000 A 
ATOM     21  C   UNL     1      50.324   7.207  16.736  0.00  0.00    +0.000 A 
ATOM     22  C   UNL     1      51.096   7.300  15.572  0.00  0.00    +0.000 A 
ATOM     23  C   UNL     1      50.552   7.838  14.406  0.00  0.00    +0.000 A 
BRANCH  21  24
ATOM     24  C   UNL     1      50.912   6.638  17.997  0.00  0.00    +0.000 C 
BRANCH  24  25
ATOM     25  O   UNL     1      49.845   6.254  18.857  0.00  0.00    +0.000 OA
BRANCH  25  26
ATOM     26  C   UNL     1      49.998   4.906  19.292  0.00  0.00    +0.000 C 
BRANCH  26  27
ATOM     27  C   UNL     1      49.185   4.058  18.382  0.00  0.00    +0.000 A 
ATOM     28  C   UNL     1      49.564   3.119  17.443  0.00  0.00    +0.000 A 
ATOM     29  C   UNL     1      48.385   2.599  16.857  0.00  0.00    +0.000 A 
ATOM     30  C   UNL     1      47.317   3.233  17.449  0.00  0.00    +0.000 A 
ATOM     31  N   UNL     1      47.810   4.119  18.367  0.00  0.00    +0.000 N 
ATOM     32  H   UNL     1      47.272   4.738  18.962  0.00  0.00    +0.000 HD
ENDBRANCH  26  27
ENDBRANCH  25  26
ENDBRANCH  24  25
ENDBRANCH  21  24
ENDBRANCH  17  18
ENDBRANCH   1  17
TORSDOF 9
ENDMDL
