MODEL 1
REMARK VINA RESULT:    -8.552      0.000      0.000
REMARK INTER + INTRA:         -14.349
REMARK INTER:                 -13.302
REMARK INTRA:                  -1.048
REMARK UNBOUND:                -1.048
REMARK  Name = 
REMARK  10 active torsions:
REMARK  status: ('A' for Active; 'I' for Inactive)
REMARK    1  A    between atoms: C_2  and  C_23
REMARK    2  A    between atoms: N_3  and  C_4
REMARK    3  A    between atoms: C_4  and  C_5
REMARK    4  A    between atoms: C_8  and  C_9
REMARK    5  A    between atoms: C_9  and  N_10
REMARK    6  A    between atoms: N_10  and  CA_11
REMARK    7  A    between atoms: CA_11  and  C_12
REMARK    8  A    between atoms: CA_11  and  CB_14
REMARK    9  A    between atoms: C_12  and  O_13
REMARK   10  A    between atoms: CB_14  and  CG_15
REMARK                            x       y       z     vdW  Elec       q    Type
REMARK                         _______ _______ _______ _____ _____    ______ ____
ROOT
ATOM      1  C   UNL     1      48.047   5.867  15.279  0.00  0.00    +0.000 A 
ATOM      2  C   UNL     1      47.877   6.315  13.969  0.00  0.00    +0.000 A 
ATOM      3  C   UNL     1      47.101   5.576  13.081  0.00  0.00    +0.000 A 
ATOM      4  C   UNL     1      46.496   4.404  13.528  0.00  0.00    +0.000 A 
ATOM      5  N   UNL     1      46.616   3.967  14.809  0.00  0.00    +0.000 NA
ATOM      6  C   UNL     1      47.380   4.706  15.647  0.00  0.00    +0.000 A 
ENDROOT
BRANCH   1   7
ATOM      7  C   UNL     1      48.904   6.620  16.253  0.00  0.00    +0.000 C 
BRANCH   7  10
ATOM      8  O   UNL     1      49.538   5.929  18.910  0.00  0.00    +0.000 OA
ATOM      9  C   UNL     1      50.240   5.501  18.001  0.00  0.00    +0.000 C 
ATOM     10  N   UNL     1      50.030   5.835  16.688  0.00  0.00    +0.000 N 
ATOM     11  H   UNL     1      50.534   5.333  15.964  0.00  0.00    +0.000 HD
BRANCH   9  12
ATOM     12  C   UNL     1      51.383   4.619  18.265  0.00  0.00    +0.000 A 
ATOM     13  C   UNL     1      52.481   5.097  18.966  0.00  0.00    +0.000 A 
ATOM     14  S   UNL     1      53.694   3.925  19.217  0.00  0.00    +0.000 S 
ATOM     15  C   UNL     1      52.774   2.724  18.430  0.00  0.00    +0.000 A 
ATOM     16  N   UNL     1      53.220   1.442  18.343  0.00  0.00    +0.000 NA
ATOM     17  C   UNL     1      52.400   0.633  17.758  0.00  0.00    +0.000 A 
ATOM     18  N   UNL     1      51.188   0.991  17.236  0.00  0.00    +0.000 N 
ATOM     19  C   UNL     1      50.736   2.290  17.223  0.00  0.00    +0.000 A 
ATOM     20  O   UNL     1      49.719   2.601  16.613  0.00  0.00    +0.000 OA
ATOM     21  C   UNL     1      51.584   3.227  17.936  0.00  0.00    +0.000 A 
ATOM     22  H   UNL     1      50.615   0.321  16.745  0.00  0.00    +0.000 HD
ENDBRANCH   9  12
ENDBRANCH   7  10
ENDBRANCH   1   7
BRANCH   4  23
ATOM     23  C   ACE A   0      45.654   3.570  12.581  0.00  0.00    +0.000 C 
BRANCH  23  24
ATOM     24  N   UNL     1      45.623   4.046  11.190  0.00  0.00    +0.000 NA
ATOM     25  H   UNL     1      46.390   3.579  10.691  0.00  0.00    +0.000 HD
BRANCH  24  26
ATOM     26  CA  UNL     1      44.381   3.729  10.448  0.00  0.00    +0.000 C 
BRANCH  26  27
ATOM     27  C   UNL     1      43.212   3.665  11.464  0.00  0.00    +0.000 C 
BRANCH  27  28
ATOM     28  O   UNL     1      42.708   2.331  11.596  0.00  0.00    +0.000 OA
ATOM     29  H   UNL     1      41.944   2.369  12.195  0.00  0.00    +0.000 HD
ENDBRANCH  27  28
ENDBRANCH  26  27
BRANCH  26  30
ATOM     30  CB  UNL     1      44.492   2.400   9.665  0.00  0.00    +0.000 C 
BRANCH  30  31
ATOM     31  CG  UNL     1      45.473   2.429   8.513  0.00  0.00    +0.000 A 
ATOM     32  CD1 UNL     1      45.641   3.589   7.742  0.00  0.00    +0.000 A 
ATOM     33  CE1 UNL     1      46.565   3.618   6.697  0.00  0.00    +0.000 A 
ATOM     34  CZ  UNL     1      47.339   2.494   6.420  0.00  0.00    +0.000 A 
ATOM     35  CE2 UNL     1      47.195   1.343   7.189  0.00  0.00    +0.000 A 
ATOM     36  CD2 UNL     1      46.270   1.310   8.234  0.00  0.00    +0.000 A 
ENDBRANCH  30  31
ENDBRANCH  26  30
ENDBRANCH  24  26
ENDBRANCH  23  24
ENDBRANCH   4  23
TORSDOF 10
ENDMDL
MODEL 2
REMARK VINA RESULT:    -7.904      2.706      3.468
REMARK INTER + INTRA:         -13.341
REMARK INTER:                 -12.357
REMARK INTRA:                  -0.984
REMARK UNBOUND:                -1.048
REMARK  Name = 
REMARK  10 active torsions:
REMARK  status: ('A' for Active; 'I' for Inactive)
REMARK    1  A    between atoms: C_2  and  C_23
REMARK    2  A    between atoms: N_3  and  C_4
REMARK    3  A    between atoms: C_4  and  C_5
REMARK    4  A    between atoms: C_8  and  C_9
REMARK    5  A    between atoms: C_9  and  N_10
REMARK    6  A    between atoms: N_10  and  CA_11
REMARK    7  A    between atoms: CA_11  and  C_12
REMARK    8  A    between atoms: CA_11  and  CB_14
REMARK    9  A    between atoms: C_12  and  O_13
REMARK   10  A    between atoms: CB_14  and  CG_15
REMARK                            x       y       z     vdW  Elec       q    Type
REMARK                         _______ _______ _______ _____ _____    ______ ____
ROOT
ATOM      1  C   UNL     1      46.680   7.364  13.049  0.00  0.00    +0.000 A 
ATOM      2  C   UNL     1      45.848   8.083  12.190  0.00  0.00    +0.000 A 
ATOM      3  C   UNL     1      44.737   7.464  11.625  0.00  0.00    +0.000 A 
ATOM      4  C   UNL     1      44.471   6.134  11.944  0.00  0.00    +0.000 A 
ATOM      5  N   UNL     1      45.244   5.425  12.806  0.00  0.00    +0.000 NA
ATOM      6  C   UNL     1      46.319   6.054  13.336  0.00  0.00    +0.000 A 
ENDROOT
BRANCH   1   7
ATOM      7  C   UNL     1      47.905   7.989  13.649  0.00  0.00    +0.000 C 
BRANCH   7  10
ATOM      8  O   UNL     1      49.942   6.677  15.085  0.00  0.00    +0.000 OA
ATOM      9  C   UNL     1      49.013   7.185  15.702  0.00  0.00    +0.000 C 
ATOM     10  N   UNL     1      47.957   7.793  15.074  0.00  0.00    +0.000 N 
ATOM     11  H   UNL     1      47.298   8.332  15.626  0.00  0.00    +0.000 HD
BRANCH   9  12
ATOM     12  C   UNL     1      48.952   7.144  17.168  0.00  0.00    +0.000 A 
ATOM     13  C   UNL     1      48.812   8.321  17.890  0.00  0.00    +0.000 A 
ATOM     14  S   UNL     1      48.716   8.080  19.576  0.00  0.00    +0.000 S 
ATOM     15  C   UNL     1      48.818   6.388  19.395  0.00  0.00    +0.000 A 
ATOM     16  N   UNL     1      48.738   5.561  20.472  0.00  0.00    +0.000 NA
ATOM     17  C   UNL     1      48.788   4.304  20.182  0.00  0.00    +0.000 A 
ATOM     18  N   UNL     1      48.931   3.798  18.918  0.00  0.00    +0.000 N 
ATOM     19  C   UNL     1      49.104   4.596  17.812  0.00  0.00    +0.000 A 
ATOM     20  O   UNL     1      49.383   4.114  16.720  0.00  0.00    +0.000 OA
ATOM     21  C   UNL     1      48.979   6.018  18.072  0.00  0.00    +0.000 A 
ATOM     22  H   UNL     1      49.015   2.804  18.762  0.00  0.00    +0.000 HD
ENDBRANCH   9  12
ENDBRANCH   7  10
ENDBRANCH   1   7
BRANCH   4  23
ATOM     23  C   ACE A   0      43.275   5.429  11.334  0.00  0.00    +0.000 C 
BRANCH  23  24
ATOM     24  N   UNL     1      43.372   5.169   9.890  0.00  0.00    +0.000 NA
ATOM     25  H   UNL     1      43.919   5.935   9.478  0.00  0.00    +0.000 HD
BRANCH  24  26
ATOM     26  CA  UNL     1      44.065   3.912   9.526  0.00  0.00    +0.000 C 
BRANCH  26  27
ATOM     27  C   UNL     1      43.902   2.910  10.698  0.00  0.00    +0.000 C 
BRANCH  27  28
ATOM     28  O   UNL     1      45.124   2.758  11.429  0.00  0.00    +0.000 OA
ATOM     29  H   UNL     1      45.515   1.909  11.165  0.00  0.00    +0.000 HD
ENDBRANCH  27  28
ENDBRANCH  26  27
BRANCH  26  30
ATOM     30  CB  UNL     1      45.563   4.140   9.214  0.00  0.00    +0.000 C 
BRANCH  30  31
ATOM     31  CG  UNL     1      46.124   3.242   8.133  0.00  0.00    +0.000 A 
ATOM     32  CD1 UNL     1      46.246   1.859   8.340  0.00  0.00    +0.000 A 
ATOM     33  CE1 UNL     1      46.740   1.033   7.330  0.00  0.00    +0.000 A 
ATOM     34  CZ  UNL     1      47.105   1.576   6.101  0.00  0.00    +0.000 A 
ATOM     35  CE2 UNL     1      46.971   2.943   5.877  0.00  0.00    +0.000 A 
ATOM     36  CD2 UNL     1      46.479   3.773   6.885  0.00  0.00    +0.000 A 
ENDBRANCH  30  31
ENDBRANCH  26  30
ENDBRANCH  24  26
ENDBRANCH  23  24
ENDBRANCH   4  23
TORSDOF 10
ENDMDL
MODEL 3
REMARK VINA RESULT:    -7.795      2.475      3.007
REMARK INTER + INTRA:         -13.173
REMARK INTER:                 -12.459
REMARK INTRA:                  -0.713
REMARK UNBOUND:                -1.048
REMARK  Name = 
REMARK  10 active torsions:
REMARK  status: ('A' for Active; 'I' for Inactive)
REMARK    1  A    between atoms: C_2  and  C_23
REMARK    2  A    between atoms: N_3  and  C_4
REMARK    3  A    between atoms: C_4  and  C_5
REMARK    4  A    between atoms: C_8  and  C_9
REMARK    5  A    between atoms: C_9  and  N_10
REMARK    6  A    between atoms: N_10  and  CA_11
REMARK    7  A    between atoms: CA_11  and  C_12
REMARK    8  A    between atoms: CA_11  and  CB_14
REMARK    9  A    between atoms: C_12  and  O_13
REMARK   10  A    between atoms: CB_14  and  CG_15
REMARK                            x       y       z     vdW  Elec       q    Type
REMARK                         _______ _______ _______ _____ _____    ______ ____
ROOT
ATOM      1  C   UNL     1      47.088   8.008  13.401  0.00  0.00    +0.000 A 
ATOM      2  C   UNL     1      45.945   8.625  12.890  0.00  0.00    +0.000 A 
ATOM      3  C   UNL     1      45.138   7.943  11.984  0.00  0.00    +0.000 A 
ATOM      4  C   UNL     1      45.484   6.645  11.616  0.00  0.00    +0.000 A 
ATOM      5  N   UNL     1      46.571   6.010  12.127  0.00  0.00    +0.000 NA
ATOM      6  C   UNL     1      47.337   6.701  13.003  0.00  0.00    +0.000 A 
ENDROOT
BRANCH   1   7
ATOM      7  C   UNL     1      47.999   8.726  14.352  0.00  0.00    +0.000 C 
BRANCH   7  10
ATOM      8  O   UNL     1      50.466   7.455  14.838  0.00  0.00    +0.000 OA
ATOM      9  C   UNL     1      49.576   7.363  15.674  0.00  0.00    +0.000 C 
ATOM     10  N   UNL     1      48.331   7.906  15.489  0.00  0.00    +0.000 N 
ATOM     11  H   UNL     1      47.685   7.940  16.270  0.00  0.00    +0.000 HD
BRANCH   9  12
ATOM     12  C   UNL     1      49.775   6.629  16.929  0.00  0.00    +0.000 A 
ATOM     13  C   UNL     1      50.620   7.139  17.905  0.00  0.00    +0.000 A 
ATOM     14  S   UNL     1      50.698   6.176  19.311  0.00  0.00    +0.000 S 
ATOM     15  C   UNL     1      49.572   5.063  18.679  0.00  0.00    +0.000 A 
ATOM     16  N   UNL     1      49.145   4.002  19.414  0.00  0.00    +0.000 NA
ATOM     17  C   UNL     1      48.261   3.268  18.824  0.00  0.00    +0.000 A 
ATOM     18  N   UNL     1      47.780   3.486  17.562  0.00  0.00    +0.000 N 
ATOM     19  C   UNL     1      48.247   4.493  16.750  0.00  0.00    +0.000 A 
ATOM     20  O   UNL     1      47.910   4.568  15.574  0.00  0.00    +0.000 OA
ATOM     21  C   UNL     1      49.187   5.394  17.392  0.00  0.00    +0.000 A 
ATOM     22  H   UNL     1      47.127   2.845  17.136  0.00  0.00    +0.000 HD
ENDBRANCH   9  12
ENDBRANCH   7  10
ENDBRANCH   1   7
BRANCH   4  23
ATOM     23  C   ACE A   0      44.631   5.881  10.622  0.00  0.00    +0.000 C 
BRANCH  23  24
ATOM     24  N   UNL     1      45.131   4.543  10.268  0.00  0.00    +0.000 NA
ATOM     25  H   UNL     1      45.689   4.207  11.063  0.00  0.00    +0.000 HD
BRANCH  24  26
ATOM     26  CA  UNL     1      44.081   3.528  10.027  0.00  0.00    +0.000 C 
BRANCH  26  27
ATOM     27  C   UNL     1      43.266   3.352  11.334  0.00  0.00    +0.000 C 
BRANCH  27  28
ATOM     28  O   UNL     1      43.085   1.968  11.654  0.00  0.00    +0.000 OA
ATOM     29  H   UNL     1      43.316   1.855  12.591  0.00  0.00    +0.000 HD
ENDBRANCH  27  28
ENDBRANCH  26  27
BRANCH  26  30
ATOM     30  CB  UNL     1      44.672   2.173   9.572  0.00  0.00    +0.000 C 
BRANCH  30  31
ATOM     31  CG  UNL     1      45.601   2.262   8.380  0.00  0.00    +0.000 A 
ATOM     32  CD1 UNL     1      46.447   1.193   8.047  0.00  0.00    +0.000 A 
ATOM     33  CE1 UNL     1      47.283   1.271   6.933  0.00  0.00    +0.000 A 
ATOM     34  CZ  UNL     1      47.273   2.410   6.132  0.00  0.00    +0.000 A 
ATOM     35  CE2 UNL     1      46.424   3.470   6.441  0.00  0.00    +0.000 A 
ATOM     36  CD2 UNL     1      45.589   3.396   7.556  0.00  0.00    +0.000 A 
ENDBRANCH  30  31
ENDBRANCH  26  30
ENDBRANCH  24  26
ENDBRANCH  23  24
ENDBRANCH   4  23
TORSDOF 10
ENDMDL
MODEL 4
REMARK VINA RESULT:    -6.857      3.966      9.236
REMARK INTER + INTRA:         -11.713
REMARK INTER:                  -9.875
REMARK INTRA:                  -1.838
REMARK UNBOUND:                -1.048
REMARK  Name = 
REMARK  10 active torsions:
REMARK  status: ('A' for Active; 'I' for Inactive)
REMARK    1  A    between atoms: C_2  and  C_23
REMARK    2  A    between atoms: N_3  and  C_4
REMARK    3  A    between atoms: C_4  and  C_5
REMARK    4  A    between atoms: C_8  and  C_9
REMARK    5  A    between atoms: C_9  and  N_10
REMARK    6  A    between atoms: N_10  and  CA_11
REMARK    7  A    between atoms: CA_11  and  C_12
REMARK    8  A    between atoms: CA_11  and  CB_14
REMARK    9  A    between atoms: C_12  and  O_13
REMARK   10  A    between atoms: CB_14  and  CG_15
REMARK                            x       y       z     vdW  Elec       q    Type
REMARK                         _______ _______ _______ _____ _____    ______ ____
ROOT
ATOM      1  C   UNL     1      48.160   7.944  13.546  0.00  0.00    +0.000 A 
ATOM      2  C   UNL     1      48.651   6.824  14.219  0.00  0.00    +0.000 A 
ATOM      3  C   UNL     1      49.170   6.962  15.503  0.00  0.00    +0.000 A 
ATOM      4  C   UNL     1      49.174   8.221  16.097  0.00  0.00    +0.000 A 
ATOM      5  N   UNL     1      48.668   9.319  15.477  0.00  0.00    +0.000 NA
ATOM      6  C   UNL     1      48.174   9.153  14.228  0.00  0.00    +0.000 A 
ENDROOT
BRANCH   1   7
ATOM      7  C   UNL     1      47.625   7.838  12.148  0.00  0.00    +0.000 C 
BRANCH   7  10
ATOM      8  O   UNL     1      44.869   7.388  12.517  0.00  0.00    +0.000 OA
ATOM      9  C   UNL     1      45.569   6.475  12.095  0.00  0.00    +0.000 C 
ATOM     10  N   UNL     1      46.925   6.597  11.940  0.00  0.00    +0.000 N 
ATOM     11  H   UNL     1      47.433   5.873  11.442  0.00  0.00    +0.000 HD
BRANCH   9  12
ATOM     12  C   UNL     1      44.999   5.165  11.757  0.00  0.00    +0.000 A 
ATOM     13  C   UNL     1      44.307   4.440  12.717  0.00  0.00    +0.000 A 
ATOM     14  S   UNL     1      43.679   2.964  12.136  0.00  0.00    +0.000 S 
ATOM     15  C   UNL     1      44.277   3.264  10.568  0.00  0.00    +0.000 A 
ATOM     16  N   UNL     1      44.033   2.398   9.547  0.00  0.00    +0.000 NA
ATOM     17  C   UNL     1      44.510   2.774   8.407  0.00  0.00    +0.000 A 
ATOM     18  N   UNL     1      45.224   3.922   8.198  0.00  0.00    +0.000 N 
ATOM     19  C   UNL     1      45.568   4.781   9.216  0.00  0.00    +0.000 A 
ATOM     20  O   UNL     1      46.335   5.717   9.023  0.00  0.00    +0.000 OA
ATOM     21  C   UNL     1      44.992   4.446  10.505  0.00  0.00    +0.000 A 
ATOM     22  H   UNL     1      45.614   4.135   7.292  0.00  0.00    +0.000 HD
ENDBRANCH   9  12
ENDBRANCH   7  10
ENDBRANCH   1   7
BRANCH   4  23
ATOM     23  C   ACE A   0      49.744   8.405  17.490  0.00  0.00    +0.000 C 
BRANCH  23  24
ATOM     24  N   UNL     1      49.427   7.329  18.442  0.00  0.00    +0.000 NA
ATOM     25  H   UNL     1      49.997   7.487  19.282  0.00  0.00    +0.000 HD
BRANCH  24  26
ATOM     26  CA  UNL     1      48.016   7.286  18.889  0.00  0.00    +0.000 C 
BRANCH  26  27
ATOM     27  C   UNL     1      47.829   8.342  20.009  0.00  0.00    +0.000 C 
BRANCH  27  28
ATOM     28  O   UNL     1      46.896   9.356  19.620  0.00  0.00    +0.000 OA
ATOM     29  H   UNL     1      46.034   9.116  19.996  0.00  0.00    +0.000 HD
ENDBRANCH  27  28
ENDBRANCH  26  27
BRANCH  26  30
ATOM     30  CB  UNL     1      47.606   5.883  19.395  0.00  0.00    +0.000 C 
BRANCH  30  31
ATOM     31  CG  UNL     1      47.957   4.750  18.456  0.00  0.00    +0.000 A 
ATOM     32  CD1 UNL     1      47.158   4.468  17.337  0.00  0.00    +0.000 A 
ATOM     33  CE1 UNL     1      47.501   3.438  16.461  0.00  0.00    +0.000 A 
ATOM     34  CZ  UNL     1      48.652   2.687  16.685  0.00  0.00    +0.000 A 
ATOM     35  CE2 UNL     1      49.464   2.968  17.781  0.00  0.00    +0.000 A 
ATOM     36  CD2 UNL     1      49.122   3.996  18.660  0.00  0.00    +0.000 A 
ENDBRANCH  30  31
ENDBRANCH  26  30
ENDBRANCH  24  26
ENDBRANCH  23  24
ENDBRANCH   4  23
TORSDOF 10
ENDMDL
MODEL 5
REMARK VINA RESULT:    -6.808      3.242      4.041
REMARK INTER + INTRA:         -11.636
REMARK INTER:                 -10.525
REMARK INTRA:                  -1.111
REMARK UNBOUND:                -1.048
REMARK  Name = 
REMARK  10 active torsions:
REMARK  status: ('A' for Active; 'I' for Inactive)
REMARK    1  A    between atoms: C_2  and  C_23
REMARK    2  A    between atoms: N_3  and  C_4
REMARK    3  A    between atoms: C_4  and  C_5
REMARK    4  A    between atoms: C_8  and  C_9
REMARK    5  A    between atoms: C_9  and  N_10
REMARK    6  A    between atoms: N_10  and  CA_11
REMARK    7  A    between atoms: CA_11  and  C_12
REMARK    8  A    between atoms: CA_11  and  CB_14
REMARK    9  A    between atoms: C_12  and  O_13
REMARK   10  A    between atoms: CB_14  and  CG_15
REMARK                            x       y       z     vdW  Elec       q    Type
REMARK                         _______ _______ _______ _____ _____    ______ ____
ROOT
ATOM      1  C   UNL     1      47.769   8.468  13.986  0.00  0.00    +0.000 A 
ATOM      2  C   UNL     1      48.591   7.481  13.441  0.00  0.00    +0.000 A 
ATOM      3  C   UNL     1      48.091   6.626  12.464  0.00  0.00    +0.000 A 
ATOM      4  C   UNL     1      46.774   6.786  12.038  0.00  0.00    +0.000 A 
ATOM      5  N   UNL     1      45.966   7.763  12.525  0.00  0.00    +0.000 NA
ATOM      6  C   UNL     1      46.481   8.576  13.477  0.00  0.00    +0.000 A 
ENDROOT
BRANCH   1   7
ATOM      7  C   UNL     1      48.264   9.385  15.065  0.00  0.00    +0.000 C 
BRANCH   7  10
ATOM      8  O   UNL     1      49.422  10.318  17.457  0.00  0.00    +0.000 OA
ATOM      9  C   UNL     1      48.690   9.337  17.495  0.00  0.00    +0.000 C 
ATOM     10  N   UNL     1      48.133   8.789  16.369  0.00  0.00    +0.000 N 
ATOM     11  H   UNL     1      47.414   8.080  16.468  0.00  0.00    +0.000 HD
BRANCH   9  12
ATOM     12  C   UNL     1      48.387   8.655  18.759  0.00  0.00    +0.000 A 
ATOM     13  C   UNL     1      47.694   9.323  19.759  0.00  0.00    +0.000 A 
ATOM     14  S   UNL     1      47.393   8.364  21.138  0.00  0.00    +0.000 S 
ATOM     15  C   UNL     1      48.144   7.009  20.427  0.00  0.00    +0.000 A 
ATOM     16  N   UNL     1      48.182   5.810  21.070  0.00  0.00    +0.000 NA
ATOM     17  C   UNL     1      48.745   4.864  20.395  0.00  0.00    +0.000 A 
ATOM     18  N   UNL     1      49.289   5.009  19.148  0.00  0.00    +0.000 N 
ATOM     19  C   UNL     1      49.351   6.219  18.499  0.00  0.00    +0.000 A 
ATOM     20  O   UNL     1      49.979   6.347  17.454  0.00  0.00    +0.000 OA
ATOM     21  C   UNL     1      48.665   7.302  19.180  0.00  0.00    +0.000 A 
ATOM     22  H   UNL     1      49.761   4.241  18.694  0.00  0.00    +0.000 HD
ENDBRANCH   9  12
ENDBRANCH   7  10
ENDBRANCH   1   7
BRANCH   4  23
ATOM     23  C   ACE A   0      46.197   5.862  10.983  0.00  0.00    +0.000 C 
BRANCH  23  24
ATOM     24  N   UNL     1      45.167   4.929  11.466  0.00  0.00    +0.000 NA
ATOM     25  H   UNL     1      44.701   5.377  12.265  0.00  0.00    +0.000 HD
BRANCH  24  26
ATOM     26  CA  UNL     1      44.107   4.605  10.484  0.00  0.00    +0.000 C 
BRANCH  26  27
ATOM     27  C   UNL     1      42.733   4.906  11.135  0.00  0.00    +0.000 C 
BRANCH  27  28
ATOM     28  O   UNL     1      42.738   6.172  11.805  0.00  0.00    +0.000 OA
ATOM     29  H   UNL     1      41.813   6.415  11.970  0.00  0.00    +0.000 HD
ENDBRANCH  27  28
ENDBRANCH  26  27
BRANCH  26  30
ATOM     30  CB  UNL     1      44.173   3.132  10.017  0.00  0.00    +0.000 C 
BRANCH  30  31
ATOM     31  CG  UNL     1      45.161   2.871   8.901  0.00  0.00    +0.000 A 
ATOM     32  CD1 UNL     1      45.749   1.607   8.742  0.00  0.00    +0.000 A 
ATOM     33  CE1 UNL     1      46.641   1.365   7.696  0.00  0.00    +0.000 A 
ATOM     34  CZ  UNL     1      46.944   2.379   6.790  0.00  0.00    +0.000 A 
ATOM     35  CE2 UNL     1      46.353   3.632   6.925  0.00  0.00    +0.000 A 
ATOM     36  CD2 UNL     1      45.463   3.878   7.972  0.00  0.00    +0.000 A 
ENDBRANCH  30  31
ENDBRANCH  26  30
ENDBRANCH  24  26
ENDBRANCH  23  24
ENDBRANCH   4  23
TORSDOF 10
ENDMDL
MODEL 6
REMARK VINA RESULT:    -6.763      2.410      3.008
REMARK INTER + INTRA:         -11.566
REMARK INTER:                 -10.634
REMARK INTRA:                  -0.933
REMARK UNBOUND:                -1.048
REMARK  Name = 
REMARK  10 active torsions:
REMARK  status: ('A' for Active; 'I' for Inactive)
REMARK    1  A    between atoms: C_2  and  C_23
REMARK    2  A    between atoms: N_3  and  C_4
REMARK    3  A    between atoms: C_4  and  C_5
REMARK    4  A    between atoms: C_8  and  C_9
REMARK    5  A    between atoms: C_9  and  N_10
REMARK    6  A    between atoms: N_10  and  CA_11
REMARK    7  A    between atoms: CA_11  and  C_12
REMARK    8  A    between atoms: CA_11  and  CB_14
REMARK    9  A    between atoms: C_12  and  O_13
REMARK   10  A    between atoms: CB_14  and  CG_15
REMARK                            x       y       z     vdW  Elec       q    Type
REMARK                         _______ _______ _______ _____ _____    ______ ____
ROOT
ATOM      1  C   UNL     1      49.317   7.458  13.596  0.00  0.00    +0.000 A 
ATOM      2  C   UNL     1      49.245   7.820  12.251  0.00  0.00    +0.000 A 
ATOM      3  C   UNL     1      48.164   7.401  11.479  0.00  0.00    +0.000 A 
ATOM      4  C   UNL     1      47.165   6.637  12.077  0.00  0.00    +0.000 A 
ATOM      5  N   UNL     1      47.195   6.303  13.393  0.00  0.00    +0.000 NA
ATOM      6  C   UNL     1      48.260   6.722  14.116  0.00  0.00    +0.000 A 
ENDROOT
BRANCH   1   7
ATOM      7  C   UNL     1      50.484   7.862  14.449  0.00  0.00    +0.000 C 
BRANCH   7  10
ATOM      8  O   UNL     1      52.535   7.969  16.376  0.00  0.00    +0.000 OA
ATOM      9  C   UNL     1      51.629   7.156  16.517  0.00  0.00    +0.000 C 
ATOM     10  N   UNL     1      50.625   7.005  15.596  0.00  0.00    +0.000 N 
ATOM     11  H   UNL     1      49.820   6.435  15.833  0.00  0.00    +0.000 HD
BRANCH   9  12
ATOM     12  C   UNL     1      51.578   6.258  17.677  0.00  0.00    +0.000 A 
ATOM     13  C   UNL     1      52.687   5.494  18.012  0.00  0.00    +0.000 A 
ATOM     14  S   UNL     1      52.463   4.543  19.410  0.00  0.00    +0.000 S 
ATOM     15  C   UNL     1      50.887   5.152  19.639  0.00  0.00    +0.000 A 
ATOM     16  N   UNL     1      50.141   4.782  20.714  0.00  0.00    +0.000 NA
ATOM     17  C   UNL     1      48.985   5.354  20.781  0.00  0.00    +0.000 A 
ATOM     18  N   UNL     1      48.500   6.245  19.863  0.00  0.00    +0.000 N 
ATOM     19  C   UNL     1      49.182   6.581  18.718  0.00  0.00    +0.000 A 
ATOM     20  O   UNL     1      48.657   7.261  17.843  0.00  0.00    +0.000 OA
ATOM     21  C   UNL     1      50.520   6.025  18.631  0.00  0.00    +0.000 A 
ATOM     22  H   UNL     1      47.566   6.620  19.945  0.00  0.00    +0.000 HD
ENDBRANCH   9  12
ENDBRANCH   7  10
ENDBRANCH   1   7
BRANCH   4  23
ATOM     23  C   ACE A   0      45.982   6.155  11.259  0.00  0.00    +0.000 C 
BRANCH  23  24
ATOM     24  N   UNL     1      45.659   4.728  11.408  0.00  0.00    +0.000 NA
ATOM     25  H   UNL     1      45.930   4.452  12.360  0.00  0.00    +0.000 HD
BRANCH  24  26
ATOM     26  CA  UNL     1      44.224   4.394  11.263  0.00  0.00    +0.000 C 
BRANCH  26  27
ATOM     27  C   UNL     1      43.940   3.104  12.074  0.00  0.00    +0.000 C 
BRANCH  27  28
ATOM     28  O   UNL     1      42.754   2.448  11.614  0.00  0.00    +0.000 OA
ATOM     29  H   UNL     1      42.505   1.793  12.287  0.00  0.00    +0.000 HD
ENDBRANCH  27  28
ENDBRANCH  26  27
BRANCH  26  30
ATOM     30  CB  UNL     1      43.816   4.203   9.783  0.00  0.00    +0.000 C 
BRANCH  30  31
ATOM     31  CG  UNL     1      44.862   3.525   8.925  0.00  0.00    +0.000 A 
ATOM     32  CD1 UNL     1      45.684   4.273   8.069  0.00  0.00    +0.000 A 
ATOM     33  CE1 UNL     1      46.663   3.645   7.299  0.00  0.00    +0.000 A 
ATOM     34  CZ  UNL     1      46.841   2.266   7.385  0.00  0.00    +0.000 A 
ATOM     35  CE2 UNL     1      46.044   1.515   8.246  0.00  0.00    +0.000 A 
ATOM     36  CD2 UNL     1      45.062   2.140   9.015  0.00  0.00    +0.000 A 
ENDBRANCH  30  31
ENDBRANCH  26  30
ENDBRANCH  24  26
ENDBRANCH  23  24
ENDBRANCH   4  23
TORSDOF 10
ENDMDL
MODEL 7
REMARK VINA RESULT:    -6.685      3.630      9.314
REMARK INTER + INTRA:         -11.445
REMARK INTER:                 -10.404
REMARK INTRA:                  -1.041
REMARK UNBOUND:                -1.048
REMARK  Name = 
REMARK  10 active torsions:
REMARK  status: ('A' for Active; 'I' for Inactive)
REMARK    1  A    between atoms: C_2  and  C_23
REMARK    2  A    between atoms: N_3  and  C_4
REMARK    3  A    between atoms: C_4  and  C_5
REMARK    4  A    between atoms: C_8  and  C_9
REMARK    5  A    between atoms: C_9  and  N_10
REMARK    6  A    between atoms: N_10  and  CA_11
REMARK    7  A    between atoms: CA_11  and  C_12
REMARK    8  A    between atoms: CA_11  and  CB_14
REMARK    9  A    between atoms: C_12  and  O_13
REMARK   10  A    between atoms: CB_14  and  CG_15
REMARK                            x       y       z     vdW  Elec       q    Type
REMARK                         _______ _______ _______ _____ _____    ______ ____
ROOT
ATOM      1  C   UNL     1      48.901   7.756  13.539  0.00  0.00    +0.000 A 
ATOM      2  C   UNL     1      50.112   8.410  13.768  0.00  0.00    +0.000 A 
ATOM      3  C   UNL     1      50.903   8.038  14.852  0.00  0.00    +0.000 A 
ATOM      4  C   UNL     1      50.471   7.004  15.679  0.00  0.00    +0.000 A 
ATOM      5  N   UNL     1      49.315   6.328  15.454  0.00  0.00    +0.000 NA
ATOM      6  C   UNL     1      48.566   6.715  14.396  0.00  0.00    +0.000 A 
ENDROOT
BRANCH   1   7
ATOM      7  C   UNL     1      48.007   8.154  12.402  0.00  0.00    +0.000 C 
BRANCH   7  10
ATOM      8  O   UNL     1      45.277   7.995  11.723  0.00  0.00    +0.000 OA
ATOM      9  C   UNL     1      46.005   7.038  11.487  0.00  0.00    +0.000 C 
ATOM     10  N   UNL     1      47.330   7.016  11.836  0.00  0.00    +0.000 N 
ATOM     11  H   UNL     1      47.922   6.272  11.480  0.00  0.00    +0.000 HD
BRANCH   9  12
ATOM     12  C   UNL     1      45.491   5.825  10.839  0.00  0.00    +0.000 A 
ATOM     13  C   UNL     1      45.816   5.553   9.518  0.00  0.00    +0.000 A 
ATOM     14  S   UNL     1      45.168   4.083   8.944  0.00  0.00    +0.000 S 
ATOM     15  C   UNL     1      44.462   3.740  10.458  0.00  0.00    +0.000 A 
ATOM     16  N   UNL     1      43.790   2.577  10.672  0.00  0.00    +0.000 NA
ATOM     17  C   UNL     1      43.346   2.434  11.876  0.00  0.00    +0.000 A 
ATOM     18  N   UNL     1      43.493   3.353  12.878  0.00  0.00    +0.000 N 
ATOM     19  C   UNL     1      44.087   4.578  12.684  0.00  0.00    +0.000 A 
ATOM     20  O   UNL     1      44.067   5.438  13.557  0.00  0.00    +0.000 OA
ATOM     21  C   UNL     1      44.672   4.760  11.368  0.00  0.00    +0.000 A 
ATOM     22  H   UNL     1      43.077   3.204  13.786  0.00  0.00    +0.000 HD
ENDBRANCH   9  12
ENDBRANCH   7  10
ENDBRANCH   1   7
BRANCH   4  23
ATOM     23  C   ACE A   0      51.306   6.584  16.874  0.00  0.00    +0.000 C 
BRANCH  23  24
ATOM     24  N   UNL     1      51.595   5.145  16.959  0.00  0.00    +0.000 NA
ATOM     25  H   UNL     1      52.403   4.960  16.350  0.00  0.00    +0.000 HD
BRANCH  24  26
ATOM     26  CA  UNL     1      51.964   4.660  18.309  0.00  0.00    +0.000 C 
BRANCH  26  27
ATOM     27  C   UNL     1      52.732   3.323  18.153  0.00  0.00    +0.000 C 
BRANCH  27  28
ATOM     28  O   UNL     1      53.030   2.740  19.426  0.00  0.00    +0.000 OA
ATOM     29  H   UNL     1      52.508   3.217  20.092  0.00  0.00    +0.000 HD
ENDBRANCH  27  28
ENDBRANCH  26  27
BRANCH  26  30
ATOM     30  CB  UNL     1      50.727   4.471  19.219  0.00  0.00    +0.000 C 
BRANCH  30  31
ATOM     31  CG  UNL     1      49.439   4.189  18.477  0.00  0.00    +0.000 A 
ATOM     32  CD1 UNL     1      49.302   3.041  17.683  0.00  0.00    +0.000 A 
ATOM     33  CE1 UNL     1      48.104   2.774  17.021  0.00  0.00    +0.000 A 
ATOM     34  CZ  UNL     1      47.024   3.644  17.156  0.00  0.00    +0.000 A 
ATOM     35  CE2 UNL     1      47.140   4.777  17.956  0.00  0.00    +0.000 A 
ATOM     36  CD2 UNL     1      48.339   5.048  18.617  0.00  0.00    +0.000 A 
ENDBRANCH  30  31
ENDBRANCH  26  30
ENDBRANCH  24  26
ENDBRANCH  23  24
ENDBRANCH   4  23
TORSDOF 10
ENDMDL
MODEL 8
REMARK VINA RESULT:    -6.526      3.481      9.307
REMARK INTER + INTRA:         -11.198
REMARK INTER:                  -9.860
REMARK INTRA:                  -1.338
REMARK UNBOUND:                -1.048
REMARK  Name = 
REMARK  10 active torsions:
REMARK  status: ('A' for Active; 'I' for Inactive)
REMARK    1  A    between atoms: C_2  and  C_23
REMARK    2  A    between atoms: N_3  and  C_4
REMARK    3  A    between atoms: C_4  and  C_5
REMARK    4  A    between atoms: C_8  and  C_9
REMARK    5  A    between atoms: C_9  and  N_10
REMARK    6  A    between atoms: N_10  and  CA_11
REMARK    7  A    between atoms: CA_11  and  C_12
REMARK    8  A    between atoms: CA_11  and  CB_14
REMARK    9  A    between atoms: C_12  and  O_13
REMARK   10  A    between atoms: CB_14  and  CG_15
REMARK                            x       y       z     vdW  Elec       q    Type
REMARK                         _______ _______ _______ _____ _____    ______ ____
ROOT
ATOM      1  C   UNL     1      48.060   7.780  14.039  0.00  0.00    +0.000 A 
ATOM      2  C   UNL     1      47.953   8.809  14.976  0.00  0.00    +0.000 A 
ATOM      3  C   UNL     1      48.650   8.724  16.178  0.00  0.00    +0.000 A 
ATOM      4  C   UNL     1      49.456   7.613  16.414  0.00  0.00    +0.000 A 
ATOM      5  N   UNL     1      49.606   6.618  15.502  0.00  0.00    +0.000 NA
ATOM      6  C   UNL     1      48.912   6.727  14.345  0.00  0.00    +0.000 A 
ENDROOT
BRANCH   1   7
ATOM      7  C   UNL     1      47.296   7.822  12.749  0.00  0.00    +0.000 C 
BRANCH   7  10
ATOM      8  O   UNL     1      44.832   7.513  11.419  0.00  0.00    +0.000 OA
ATOM      9  C   UNL     1      45.432   6.514  11.799  0.00  0.00    +0.000 C 
ATOM     10  N   UNL     1      46.608   6.582  12.500  0.00  0.00    +0.000 N 
ATOM     11  H   UNL     1      47.142   5.733  12.652  0.00  0.00    +0.000 HD
BRANCH   9  12
ATOM     12  C   UNL     1      44.906   5.165  11.554  0.00  0.00    +0.000 A 
ATOM     13  C   UNL     1      44.225   4.493  12.559  0.00  0.00    +0.000 A 
ATOM     14  S   UNL     1      43.650   2.959  12.085  0.00  0.00    +0.000 S 
ATOM     15  C   UNL     1      44.258   3.158  10.505  0.00  0.00    +0.000 A 
ATOM     16  N   UNL     1      44.054   2.211   9.550  0.00  0.00    +0.000 NA
ATOM     17  C   UNL     1      44.534   2.515   8.390  0.00  0.00    +0.000 A 
ATOM     18  N   UNL     1      45.214   3.666   8.102  0.00  0.00    +0.000 N 
ATOM     19  C   UNL     1      45.519   4.609   9.055  0.00  0.00    +0.000 A 
ATOM     20  O   UNL     1      46.260   5.552   8.800  0.00  0.00    +0.000 OA
ATOM     21  C   UNL     1      44.937   4.354  10.360  0.00  0.00    +0.000 A 
ATOM     22  H   UNL     1      45.609   3.822   7.186  0.00  0.00    +0.000 HD
ENDBRANCH   9  12
ENDBRANCH   7  10
ENDBRANCH   1   7
BRANCH   4  23
ATOM     23  C   ACE A   0      50.218   7.487  17.719  0.00  0.00    +0.000 C 
BRANCH  23  24
ATOM     24  N   UNL     1      50.687   6.130  18.040  0.00  0.00    +0.000 NA
ATOM     25  H   UNL     1      51.701   6.112  17.878  0.00  0.00    +0.000 HD
BRANCH  24  26
ATOM     26  CA  UNL     1      50.474   5.712  19.444  0.00  0.00    +0.000 C 
BRANCH  26  27
ATOM     27  C   UNL     1      51.691   4.861  19.888  0.00  0.00    +0.000 C 
BRANCH  27  28
ATOM     28  O   UNL     1      52.421   4.366  18.761  0.00  0.00    +0.000 OA
ATOM     29  H   UNL     1      53.275   4.040  19.089  0.00  0.00    +0.000 HD
ENDBRANCH  27  28
ENDBRANCH  26  27
BRANCH  26  30
ATOM     30  CB  UNL     1      49.161   4.913  19.624  0.00  0.00    +0.000 C 
BRANCH  30  31
ATOM     31  CG  UNL     1      48.669   4.225  18.369  0.00  0.00    +0.000 A 
ATOM     32  CD1 UNL     1      47.576   4.734  17.652  0.00  0.00    +0.000 A 
ATOM     33  CE1 UNL     1      47.142   4.109  16.482  0.00  0.00    +0.000 A 
ATOM     34  CZ  UNL     1      47.802   2.977  16.010  0.00  0.00    +0.000 A 
ATOM     35  CE2 UNL     1      48.900   2.473  16.703  0.00  0.00    +0.000 A 
ATOM     36  CD2 UNL     1      49.335   3.094  17.874  0.00  0.00    +0.000 A 
ENDBRANCH  30  31
ENDBRANCH  26  30
ENDBRANCH  24  26
ENDBRANCH  23  24
ENDBRANCH   4  23
TORSDOF 10
ENDMDL
MODEL 9
REMARK VINA RESULT:    -6.452      3.510      5.434
REMARK INTER + INTRA:         -11.082
REMARK INTER:                  -9.405
REMARK INTRA:                  -1.677
REMARK UNBOUND:                -1.048
REMARK  Name = 
REMARK  10 active torsions:
REMARK  status: ('A' for Active; 'I' for Inactive)
REMARK    1  A    between atoms: C_2  and  C_23
REMARK    2  A    between atoms: N_3  and  C_4
REMARK    3  A    between atoms: C_4  and  C_5
REMARK    4  A    between atoms: C_8  and  C_9
REMARK    5  A    between atoms: C_9  and  N_10
REMARK    6  A    between atoms: N_10  and  CA_11
REMARK    7  A    between atoms: CA_11  and  C_12
REMARK    8  A    between atoms: CA_11  and  CB_14
REMARK    9  A    between atoms: C_12  and  O_13
REMARK   10  A    between atoms: CB_14  and  CG_15
REMARK                            x       y       z     vdW  Elec       q    Type
REMARK                         _______ _______ _______ _____ _____    ______ ____
ROOT
ATOM      1  C   UNL     1      46.036   4.390  13.364  0.00  0.00    +0.000 A 
ATOM      2  C   UNL     1      44.642   4.395  13.291  0.00  0.00    +0.000 A 
ATOM      3  C   UNL     1      43.987   5.449  12.662  0.00  0.00    +0.000 A 
ATOM      4  C   UNL     1      44.743   6.476  12.102  0.00  0.00    +0.000 A 
ATOM      5  N   UNL     1      46.101   6.474  12.127  0.00  0.00    +0.000 NA
ATOM      6  C   UNL     1      46.709   5.438  12.749  0.00  0.00    +0.000 A 
ENDROOT
BRANCH   1   7
ATOM      7  C   UNL     1      46.774   3.287  14.064  0.00  0.00    +0.000 C 
BRANCH   7  10
ATOM      8  O   UNL     1      46.495   3.481  16.860  0.00  0.00    +0.000 OA
ATOM      9  C   UNL     1      47.554   3.818  16.344  0.00  0.00    +0.000 C 
ATOM     10  N   UNL     1      47.750   3.805  14.987  0.00  0.00    +0.000 N 
ATOM     11  H   UNL     1      48.687   3.940  14.622  0.00  0.00    +0.000 HD
BRANCH   9  12
ATOM     12  C   UNL     1      48.683   4.296  17.152  0.00  0.00    +0.000 A 
ATOM     13  C   UNL     1      48.611   5.528  17.785  0.00  0.00    +0.000 A 
ATOM     14  S   UNL     1      49.994   5.900  18.713  0.00  0.00    +0.000 S 
ATOM     15  C   UNL     1      50.720   4.406  18.331  0.00  0.00    +0.000 A 
ATOM     16  N   UNL     1      51.922   4.054  18.860  0.00  0.00    +0.000 NA
ATOM     17  C   UNL     1      52.330   2.878  18.517  0.00  0.00    +0.000 A 
ATOM     18  N   UNL     1      51.657   2.030  17.680  0.00  0.00    +0.000 N 
ATOM     19  C   UNL     1      50.484   2.378  17.055  0.00  0.00    +0.000 A 
ATOM     20  O   UNL     1      49.987   1.659  16.194  0.00  0.00    +0.000 OA
ATOM     21  C   UNL     1      49.942   3.660  17.464  0.00  0.00    +0.000 A 
ATOM     22  H   UNL     1      52.055   1.142  17.410  0.00  0.00    +0.000 HD
ENDBRANCH   9  12
ENDBRANCH   7  10
ENDBRANCH   1   7
BRANCH   4  23
ATOM     23  C   ACE A   0      44.057   7.644  11.421  0.00  0.00    +0.000 C 
BRANCH  23  24
ATOM     24  N   UNL     1      44.956   8.713  10.958  0.00  0.00    +0.000 NA
ATOM     25  H   UNL     1      44.535   9.121  10.115  0.00  0.00    +0.000 HD
BRANCH  24  26
ATOM     26  CA  UNL     1      45.149   9.825  11.916  0.00  0.00    +0.000 C 
BRANCH  26  27
ATOM     27  C   UNL     1      44.139  10.948  11.568  0.00  0.00    +0.000 C 
BRANCH  27  28
ATOM     28  O   UNL     1      42.915  10.794  12.294  0.00  0.00    +0.000 OA
ATOM     29  H   UNL     1      42.924  11.444  13.016  0.00  0.00    +0.000 HD
ENDBRANCH  27  28
ENDBRANCH  26  27
BRANCH  26  30
ATOM     30  CB  UNL     1      46.596  10.372  11.893  0.00  0.00    +0.000 C 
BRANCH  30  31
ATOM     31  CG  UNL     1      47.625   9.450  12.510  0.00  0.00    +0.000 A 
ATOM     32  CD1 UNL     1      47.552   9.095  13.865  0.00  0.00    +0.000 A 
ATOM     33  CE1 UNL     1      48.490   8.225  14.422  0.00  0.00    +0.000 A 
ATOM     34  CZ  UNL     1      49.503   7.690  13.629  0.00  0.00    +0.000 A 
ATOM     35  CE2 UNL     1      49.575   8.020  12.278  0.00  0.00    +0.000 A 
ATOM     36  CD2 UNL     1      48.640   8.892  11.719  0.00  0.00    +0.000 A 
ENDBRANCH  30  31
ENDBRANCH  26  30
ENDBRANCH  24  26
ENDBRANCH  23  24
ENDBRANCH   4  23
TORSDOF 10
ENDMDL
