MODEL 1
REMARK VINA RESULT:    -6.978      0.000      0.000
REMARK INTER + INTRA:          -9.221
REMARK INTER:                  -8.813
REMARK INTRA:                  -0.407
REMARK UNBOUND:                -0.407
REMARK  Name = 
REMARK  5 active torsions:
REMARK  status: ('A' for Active; 'I' for Inactive)
REMARK    1  A    between atoms: N_1  and  C_2
REMARK    2  A    between atoms: C_2  and  C_3
REMARK    3  A    between atoms: C_7  and  C_8
REMARK    4  A    between atoms: C_8  and  S_9
REMARK    5  A    between atoms: S_9  and  C_10
REMARK                            x       y       z     vdW  Elec       q    Type
REMARK                         _______ _______ _______ _____ _____    ______ ____
ROOT
ATOM      1  C   UNL     1      46.516   2.045   7.691  0.00  0.00    +0.000 A 
ATOM      2  C   UNL     1      46.672   3.319   7.162  0.00  0.00    +0.000 A 
ATOM      3  N   UNL     1      46.008   4.410   7.613  0.00  0.00    +0.000 NA
ATOM      4  C   UNL     1      45.170   4.228   8.660  0.00  0.00    +0.000 A 
ATOM      5  C   UNL     1      44.950   3.007   9.291  0.00  0.00    +0.000 A 
ATOM      6  C   UNL     1      45.617   1.901   8.752  0.00  0.00    +0.000 A 
ENDROOT
BRANCH   1   7
ATOM      7  C   UNL     1      47.307   0.873   7.191  0.00  0.00    +0.000 C 
BRANCH   7   8
ATOM      8  N   UNL     1      46.801  -0.386   7.723  0.00  0.00    +0.000 NA
ATOM      9  H   UNL     1      46.140  -0.790   7.063  0.00  0.00    +0.000 HD
ATOM     10  H   UNL     1      46.282  -0.203   8.580  0.00  0.00    +0.000 HD
ENDBRANCH   7   8
ENDBRANCH   1   7
BRANCH   5  11
ATOM     11  C   UNL     1      43.994   2.908  10.456  0.00  0.00    +0.000 C 
BRANCH  11  12
ATOM     12  S   UNL     1      43.709   4.519  11.281  0.00  0.00    +0.000 S 
BRANCH  12  13
ATOM     13  C   UNL     1      45.203   4.852  12.191  0.00  0.00    +0.000 A 
ATOM     14  C   UNL     1      45.903   6.054  12.189  0.00  0.00    +0.000 A 
ATOM     15  C   UNL     1      47.076   6.133  12.928  0.00  0.00    +0.000 A 
ATOM     16  N   UNL     1      47.581   5.117  13.656  0.00  0.00    +0.000 NA
ATOM     17  C   UNL     1      46.882   3.964  13.650  0.00  0.00    +0.000 A 
ATOM     18  C   UNL     1      45.707   3.789  12.945  0.00  0.00    +0.000 A 
ENDBRANCH  12  13
ENDBRANCH  11  12
ENDBRANCH   5  11
TORSDOF 5
ENDMDL
MODEL 2
REMARK VINA RESULT:    -6.885      1.243      1.770
REMARK INTER + INTRA:          -9.104
REMARK INTER:                  -8.690
REMARK INTRA:                  -0.414
REMARK UNBOUND:                -0.407
REMARK  Name = 
REMARK  5 active torsions:
REMARK  status: ('A' for Active; 'I' for Inactive)
REMARK    1  A    between atoms: N_1  and  C_2
REMARK    2  A    between atoms: C_2  and  C_3
REMARK    3  A    between atoms: C_7  and  C_8
REMARK    4  A    between atoms: C_8  and  S_9
REMARK    5  A    between atoms: S_9  and  C_10
REMARK                            x       y       z     vdW  Elec       q    Type
REMARK                         _______ _______ _______ _____ _____    ______ ____
ROOT
ATOM      1  C   UNL     1      46.722   2.577   7.033  0.00  0.00    +0.000 A 
ATOM      2  C   UNL     1      46.600   1.307   7.581  0.00  0.00    +0.000 A 
ATOM      3  N   UNL     1      45.790   1.009   8.623  0.00  0.00    +0.000 NA
ATOM      4  C   UNL     1      45.042   2.019   9.127  0.00  0.00    +0.000 A 
ATOM      5  C   UNL     1      45.058   3.325   8.648  0.00  0.00    +0.000 A 
ATOM      6  C   UNL     1      45.953   3.594   7.606  0.00  0.00    +0.000 A 
ENDROOT
BRANCH   1   7
ATOM      7  C   UNL     1      47.598   2.853   5.847  0.00  0.00    +0.000 C 
BRANCH   7   8
ATOM      8  N   UNL     1      48.593   1.805   5.655  0.00  0.00    +0.000 NA
ATOM      9  H   UNL     1      48.175   0.901   5.865  0.00  0.00    +0.000 HD
ATOM     10  H   UNL     1      49.351   1.937   6.323  0.00  0.00    +0.000 HD
ENDBRANCH   7   8
ENDBRANCH   1   7
BRANCH   5  11
ATOM     11  C   UNL     1      44.183   4.383   9.278  0.00  0.00    +0.000 C 
BRANCH  11  12
ATOM     12  S   UNL     1      43.800   4.034  11.036  0.00  0.00    +0.000 S 
BRANCH  12  13
ATOM     13  C   UNL     1      45.233   4.571  11.946  0.00  0.00    +0.000 A 
ATOM     14  C   UNL     1      45.885   5.789  11.788  0.00  0.00    +0.000 A 
ATOM     15  C   UNL     1      47.016   6.033  12.555  0.00  0.00    +0.000 A 
ATOM     16  N   UNL     1      47.524   5.165  13.452  0.00  0.00    +0.000 NA
ATOM     17  C   UNL     1      46.872   3.993  13.595  0.00  0.00    +0.000 A 
ATOM     18  C   UNL     1      45.741   3.659  12.876  0.00  0.00    +0.000 A 
ENDBRANCH  12  13
ENDBRANCH  11  12
ENDBRANCH   5  11
TORSDOF 5
ENDMDL
MODEL 3
REMARK VINA RESULT:    -6.873      1.635      5.791
REMARK INTER + INTRA:          -9.088
REMARK INTER:                  -8.738
REMARK INTRA:                  -0.350
REMARK UNBOUND:                -0.407
REMARK  Name = 
REMARK  5 active torsions:
REMARK  status: ('A' for Active; 'I' for Inactive)
REMARK    1  A    between atoms: N_1  and  C_2
REMARK    2  A    between atoms: C_2  and  C_3
REMARK    3  A    between atoms: C_7  and  C_8
REMARK    4  A    between atoms: C_8  and  S_9
REMARK    5  A    between atoms: S_9  and  C_10
REMARK                            x       y       z     vdW  Elec       q    Type
REMARK                         _______ _______ _______ _____ _____    ______ ____
ROOT
ATOM      1  C   UNL     1      46.417   4.857  13.319  0.00  0.00    +0.000 A 
ATOM      2  C   UNL     1      46.699   6.113  12.800  0.00  0.00    +0.000 A 
ATOM      3  N   UNL     1      46.317   6.524  11.568  0.00  0.00    +0.000 NA
ATOM      4  C   UNL     1      45.595   5.651  10.827  0.00  0.00    +0.000 A 
ATOM      5  C   UNL     1      45.228   4.376  11.247  0.00  0.00    +0.000 A 
ATOM      6  C   UNL     1      45.695   3.979  12.505  0.00  0.00    +0.000 A 
ENDROOT
BRANCH   1   7
ATOM      7  C   UNL     1      46.820   4.460  14.708  0.00  0.00    +0.000 C 
BRANCH   7   8
ATOM      8  N   UNL     1      47.554   3.201  14.718  0.00  0.00    +0.000 NA
ATOM      9  H   UNL     1      47.741   2.927  15.681  0.00  0.00    +0.000 HD
ATOM     10  H   UNL     1      48.460   3.338  14.274  0.00  0.00    +0.000 HD
ENDBRANCH   7   8
ENDBRANCH   1   7
BRANCH   5  11
ATOM     11  C   UNL     1      44.418   3.475  10.345  0.00  0.00    +0.000 C 
BRANCH  11  12
ATOM     12  S   UNL     1      44.586   3.907   8.572  0.00  0.00    +0.000 S 
BRANCH  12  13
ATOM     13  C   UNL     1      45.833   2.807   7.935  0.00  0.00    +0.000 A 
ATOM     14  C   UNL     1      45.931   1.447   8.209  0.00  0.00    +0.000 A 
ATOM     15  C   UNL     1      46.992   0.741   7.658  0.00  0.00    +0.000 A 
ATOM     16  N   UNL     1      47.937   1.289   6.867  0.00  0.00    +0.000 NA
ATOM     17  C   UNL     1      47.818   2.607   6.609  0.00  0.00    +0.000 A 
ATOM     18  C   UNL     1      46.799   3.392   7.112  0.00  0.00    +0.000 A 
ENDBRANCH  12  13
ENDBRANCH  11  12
ENDBRANCH   5  11
TORSDOF 5
ENDMDL
MODEL 4
REMARK VINA RESULT:    -6.751      1.704      6.184
REMARK INTER + INTRA:          -8.934
REMARK INTER:                  -8.624
REMARK INTRA:                  -0.310
REMARK UNBOUND:                -0.407
REMARK  Name = 
REMARK  5 active torsions:
REMARK  status: ('A' for Active; 'I' for Inactive)
REMARK    1  A    between atoms: N_1  and  C_2
REMARK    2  A    between atoms: C_2  and  C_3
REMARK    3  A    between atoms: C_7  and  C_8
REMARK    4  A    between atoms: C_8  and  S_9
REMARK    5  A    between atoms: S_9  and  C_10
REMARK                            x       y       z     vdW  Elec       q    Type
REMARK                         _______ _______ _______ _____ _____    ______ ____
ROOT
ATOM      1  C   UNL     1      45.814   5.973  12.614  0.00  0.00    +0.000 A 
ATOM      2  C   UNL     1      46.326   5.117  13.580  0.00  0.00    +0.000 A 
ATOM      3  N   UNL     1      46.186   3.771  13.547  0.00  0.00    +0.000 NA
ATOM      4  C   UNL     1      45.528   3.250  12.484  0.00  0.00    +0.000 A 
ATOM      5  C   UNL     1      44.993   4.000  11.443  0.00  0.00    +0.000 A 
ATOM      6  C   UNL     1      45.116   5.390  11.552  0.00  0.00    +0.000 A 
ENDROOT
BRANCH   1   7
ATOM      7  C   UNL     1      46.033   7.456  12.667  0.00  0.00    +0.000 C 
BRANCH   7   8
ATOM      8  N   UNL     1      44.834   8.192  12.288  0.00  0.00    +0.000 NA
ATOM      9  H   UNL     1      44.911   9.153  12.616  0.00  0.00    +0.000 HD
ATOM     10  H   UNL     1      44.029   7.787  12.763  0.00  0.00    +0.000 HD
ENDBRANCH   7   8
ENDBRANCH   1   7
BRANCH   5  11
ATOM     11  C   UNL     1      44.276   3.322  10.299  0.00  0.00    +0.000 C 
BRANCH  11  12
ATOM     12  S   UNL     1      44.737   4.009   8.664  0.00  0.00    +0.000 S 
BRANCH  12  13
ATOM     13  C   UNL     1      45.882   2.837   7.966  0.00  0.00    +0.000 A 
ATOM     14  C   UNL     1      45.921   1.475   8.246  0.00  0.00    +0.000 A 
ATOM     15  C   UNL     1      46.907   0.708   7.641  0.00  0.00    +0.000 A 
ATOM     16  N   UNL     1      47.832   1.197   6.791  0.00  0.00    +0.000 NA
ATOM     17  C   UNL     1      47.771   2.518   6.527  0.00  0.00    +0.000 A 
ATOM     18  C   UNL     1      46.828   3.363   7.082  0.00  0.00    +0.000 A 
ENDBRANCH  12  13
ENDBRANCH  11  12
ENDBRANCH   5  11
TORSDOF 5
ENDMDL
MODEL 5
REMARK VINA RESULT:    -5.816      2.003      3.091
REMARK INTER + INTRA:          -7.753
REMARK INTER:                  -7.395
REMARK INTRA:                  -0.358
REMARK UNBOUND:                -0.407
REMARK  Name = 
REMARK  5 active torsions:
REMARK  status: ('A' for Active; 'I' for Inactive)
REMARK    1  A    between atoms: N_1  and  C_2
REMARK    2  A    between atoms: C_2  and  C_3
REMARK    3  A    between atoms: C_7  and  C_8
REMARK    4  A    between atoms: C_8  and  S_9
REMARK    5  A    between atoms: S_9  and  C_10
REMARK                            x       y       z     vdW  Elec       q    Type
REMARK                         _______ _______ _______ _____ _____    ______ ____
ROOT
ATOM      1  C   UNL     1      45.196   3.547   8.617  0.00  0.00    +0.000 A 
ATOM      2  C   UNL     1      44.450   2.532   9.200  0.00  0.00    +0.000 A 
ATOM      3  N   UNL     1      43.860   2.631  10.415  0.00  0.00    +0.000 NA
ATOM      4  C   UNL     1      43.996   3.809  11.068  0.00  0.00    +0.000 A 
ATOM      5  C   UNL     1      44.696   4.906  10.577  0.00  0.00    +0.000 A 
ATOM      6  C   UNL     1      45.334   4.734   9.343  0.00  0.00    +0.000 A 
ENDROOT
BRANCH   1   7
ATOM      7  C   UNL     1      45.793   3.412   7.248  0.00  0.00    +0.000 C 
BRANCH   7   8
ATOM      8  N   UNL     1      47.000   4.215   7.103  0.00  0.00    +0.000 NA
ATOM      9  H   UNL     1      47.375   4.430   8.025  0.00  0.00    +0.000 HD
ATOM     10  H   UNL     1      46.760   5.105   6.672  0.00  0.00    +0.000 HD
ENDBRANCH   7   8
ENDBRANCH   1   7
BRANCH   5  11
ATOM     11  C   UNL     1      44.789   6.180  11.384  0.00  0.00    +0.000 C 
BRANCH  11  12
ATOM     12  S   UNL     1      46.514   6.760  11.601  0.00  0.00    +0.000 S 
BRANCH  12  13
ATOM     13  C   UNL     1      47.057   6.059  13.145  0.00  0.00    +0.000 A 
ATOM     14  C   UNL     1      46.575   4.886  13.717  0.00  0.00    +0.000 A 
ATOM     15  C   UNL     1      47.083   4.500  14.950  0.00  0.00    +0.000 A 
ATOM     16  N   UNL     1      48.021   5.189  15.631  0.00  0.00    +0.000 NA
ATOM     17  C   UNL     1      48.479   6.318  15.055  0.00  0.00    +0.000 A 
ATOM     18  C   UNL     1      48.034   6.784  13.833  0.00  0.00    +0.000 A 
ENDBRANCH  12  13
ENDBRANCH  11  12
ENDBRANCH   5  11
TORSDOF 5
ENDMDL
MODEL 6
REMARK VINA RESULT:    -5.688      2.153      3.171
REMARK INTER + INTRA:          -7.592
REMARK INTER:                  -7.202
REMARK INTRA:                  -0.390
REMARK UNBOUND:                -0.407
REMARK  Name = 
REMARK  5 active torsions:
REMARK  status: ('A' for Active; 'I' for Inactive)
REMARK    1  A    between atoms: N_1  and  C_2
REMARK    2  A    between atoms: C_2  and  C_3
REMARK    3  A    between atoms: C_7  and  C_8
REMARK    4  A    between atoms: C_8  and  S_9
REMARK    5  A    between atoms: S_9  and  C_10
REMARK                            x       y       z     vdW  Elec       q    Type
REMARK                         _______ _______ _______ _____ _____    ______ ____
ROOT
ATOM      1  C   UNL     1      45.265   3.419   8.488  0.00  0.00    +0.000 A 
ATOM      2  C   UNL     1      44.525   2.397   9.065  0.00  0.00    +0.000 A 
ATOM      3  N   UNL     1      43.892   2.502  10.257  0.00  0.00    +0.000 NA
ATOM      4  C   UNL     1      43.978   3.694  10.893  0.00  0.00    +0.000 A 
ATOM      5  C   UNL     1      44.668   4.800  10.405  0.00  0.00    +0.000 A 
ATOM      6  C   UNL     1      45.351   4.622   9.197  0.00  0.00    +0.000 A 
ENDROOT
BRANCH   1   7
ATOM      7  C   UNL     1      45.911   3.274   7.142  0.00  0.00    +0.000 C 
BRANCH   7   8
ATOM      8  N   UNL     1      46.951   4.273   6.932  0.00  0.00    +0.000 NA
ATOM      9  H   UNL     1      47.863   3.819   6.944  0.00  0.00    +0.000 HD
ATOM     10  H   UNL     1      46.944   4.932   7.709  0.00  0.00    +0.000 HD
ENDBRANCH   7   8
ENDBRANCH   1   7
BRANCH   5  11
ATOM     11  C   UNL     1      44.704   6.089  11.192  0.00  0.00    +0.000 C 
BRANCH  11  12
ATOM     12  S   UNL     1      45.298   5.858  12.909  0.00  0.00    +0.000 S 
BRANCH  12  13
ATOM     13  C   UNL     1      46.971   6.469  12.916  0.00  0.00    +0.000 A 
ATOM     14  C   UNL     1      47.853   6.407  13.989  0.00  0.00    +0.000 A 
ATOM     15  C   UNL     1      49.113   6.969  13.837  0.00  0.00    +0.000 A 
ATOM     16  N   UNL     1      49.543   7.570  12.710  0.00  0.00    +0.000 NA
ATOM     17  C   UNL     1      48.674   7.613  11.679  0.00  0.00    +0.000 A 
ATOM     18  C   UNL     1      47.399   7.083  11.736  0.00  0.00    +0.000 A 
ENDBRANCH  12  13
ENDBRANCH  11  12
ENDBRANCH   5  11
TORSDOF 5
ENDMDL
MODEL 7
REMARK VINA RESULT:    -5.137      2.801      6.740
REMARK INTER + INTRA:          -6.896
REMARK INTER:                  -6.485
REMARK INTRA:                  -0.411
REMARK UNBOUND:                -0.407
REMARK  Name = 
REMARK  5 active torsions:
REMARK  status: ('A' for Active; 'I' for Inactive)
REMARK    1  A    between atoms: N_1  and  C_2
REMARK    2  A    between atoms: C_2  and  C_3
REMARK    3  A    between atoms: C_7  and  C_8
REMARK    4  A    between atoms: C_8  and  S_9
REMARK    5  A    between atoms: S_9  and  C_10
REMARK                            x       y       z     vdW  Elec       q    Type
REMARK                         _______ _______ _______ _____ _____    ______ ____
ROOT
ATOM      1  C   UNL     1      47.702   4.814  15.803  0.00  0.00    +0.000 A 
ATOM      2  C   UNL     1      48.770   5.617  16.181  0.00  0.00    +0.000 A 
ATOM      3  N   UNL     1      49.285   6.601  15.408  0.00  0.00    +0.000 NA
ATOM      4  C   UNL     1      48.690   6.815  14.210  0.00  0.00    +0.000 A 
ATOM      5  C   UNL     1      47.600   6.094  13.732  0.00  0.00    +0.000 A 
ATOM      6  C   UNL     1      47.140   5.052  14.545  0.00  0.00    +0.000 A 
ENDROOT
BRANCH   1   7
ATOM      7  C   UNL     1      47.133   3.765  16.711  0.00  0.00    +0.000 C 
BRANCH   7   8
ATOM      8  N   UNL     1      46.847   4.296  18.037  0.00  0.00    +0.000 NA
ATOM      9  H   UNL     1      45.962   3.917  18.369  0.00  0.00    +0.000 HD
ATOM     10  H   UNL     1      46.725   5.306  17.974  0.00  0.00    +0.000 HD
ENDBRANCH   7   8
ENDBRANCH   1   7
BRANCH   5  11
ATOM     11  C   UNL     1      47.006   6.411  12.380  0.00  0.00    +0.000 C 
BRANCH  11  12
ATOM     12  S   UNL     1      45.183   6.595  12.430  0.00  0.00    +0.000 S 
BRANCH  12  13
ATOM     13  C   UNL     1      44.537   5.069  11.779  0.00  0.00    +0.000 A 
ATOM     14  C   UNL     1      43.749   4.159  12.476  0.00  0.00    +0.000 A 
ATOM     15  C   UNL     1      43.360   2.995  11.827  0.00  0.00    +0.000 A 
ATOM     16  N   UNL     1      43.695   2.688  10.558  0.00  0.00    +0.000 NA
ATOM     17  C   UNL     1      44.453   3.588   9.898  0.00  0.00    +0.000 A 
ATOM     18  C   UNL     1      44.889   4.772  10.459  0.00  0.00    +0.000 A 
ENDBRANCH  12  13
ENDBRANCH  11  12
ENDBRANCH   5  11
TORSDOF 5
ENDMDL
MODEL 8
REMARK VINA RESULT:    -4.894      1.979      6.162
REMARK INTER + INTRA:          -6.589
REMARK INTER:                  -6.225
REMARK INTRA:                  -0.364
REMARK UNBOUND:                -0.407
REMARK  Name = 
REMARK  5 active torsions:
REMARK  status: ('A' for Active; 'I' for Inactive)
REMARK    1  A    between atoms: N_1  and  C_2
REMARK    2  A    between atoms: C_2  and  C_3
REMARK    3  A    between atoms: C_7  and  C_8
REMARK    4  A    between atoms: C_8  and  S_9
REMARK    5  A    between atoms: S_9  and  C_10
REMARK                            x       y       z     vdW  Elec       q    Type
REMARK                         _______ _______ _______ _____ _____    ______ ____
ROOT
ATOM      1  C   UNL     1      48.222   7.950  12.591  0.00  0.00    +0.000 A 
ATOM      2  C   UNL     1      48.676   6.802  13.227  0.00  0.00    +0.000 A 
ATOM      3  N   UNL     1      47.963   5.655  13.316  0.00  0.00    +0.000 NA
ATOM      4  C   UNL     1      46.749   5.641  12.717  0.00  0.00    +0.000 A 
ATOM      5  C   UNL     1      46.196   6.717  12.029  0.00  0.00    +0.000 A 
ATOM      6  C   UNL     1      46.949   7.896  12.014  0.00  0.00    +0.000 A 
ENDROOT
BRANCH   1   7
ATOM      7  C   UNL     1      49.065   9.184  12.476  0.00  0.00    +0.000 C 
BRANCH   7   8
ATOM      8  N   UNL     1      50.286   8.936  11.719  0.00  0.00    +0.000 NA
ATOM      9  H   UNL     1      51.085   9.286  12.244  0.00  0.00    +0.000 HD
ATOM     10  H   UNL     1      50.254   9.466  10.850  0.00  0.00    +0.000 HD
ENDBRANCH   7   8
ENDBRANCH   1   7
BRANCH   5  11
ATOM     11  C   UNL     1      44.831   6.600  11.392  0.00  0.00    +0.000 C 
BRANCH  11  12
ATOM     12  S   UNL     1      44.164   4.895  11.450  0.00  0.00    +0.000 S 
BRANCH  12  13
ATOM     13  C   UNL     1      44.861   4.067  10.036  0.00  0.00    +0.000 A 
ATOM     14  C   UNL     1      45.495   4.686   8.964  0.00  0.00    +0.000 A 
ATOM     15  C   UNL     1      45.949   3.891   7.921  0.00  0.00    +0.000 A 
ATOM     16  N   UNL     1      45.820   2.550   7.880  0.00  0.00    +0.000 NA
ATOM     17  C   UNL     1      45.210   1.969   8.933  0.00  0.00    +0.000 A 
ATOM     18  C   UNL     1      44.723   2.676  10.015  0.00  0.00    +0.000 A 
ENDBRANCH  12  13
ENDBRANCH  11  12
ENDBRANCH   5  11
TORSDOF 5
ENDMDL
MODEL 9
REMARK VINA RESULT:    -4.669      3.266      5.115
REMARK INTER + INTRA:          -6.304
REMARK INTER:                  -6.036
REMARK INTRA:                  -0.268
REMARK UNBOUND:                -0.407
REMARK  Name = 
REMARK  5 active torsions:
REMARK  status: ('A' for Active; 'I' for Inactive)
REMARK    1  A    between atoms: N_1  and  C_2
REMARK    2  A    between atoms: C_2  and  C_3
REMARK    3  A    between atoms: C_7  and  C_8
REMARK    4  A    between atoms: C_8  and  S_9
REMARK    5  A    between atoms: S_9  and  C_10
REMARK                            x       y       z     vdW  Elec       q    Type
REMARK                         _______ _______ _______ _____ _____    ______ ____
ROOT
ATOM      1  C   UNL     1      44.768   4.229  10.578  0.00  0.00    +0.000 A 
ATOM      2  C   UNL     1      44.272   3.381  11.559  0.00  0.00    +0.000 A 
ATOM      3  N   UNL     1      44.434   3.587  12.887  0.00  0.00    +0.000 NA
ATOM      4  C   UNL     1      45.099   4.707  13.257  0.00  0.00    +0.000 A 
ATOM      5  C   UNL     1      45.620   5.644  12.370  0.00  0.00    +0.000 A 
ATOM      6  C   UNL     1      45.474   5.357  11.008  0.00  0.00    +0.000 A 
ENDROOT
BRANCH   1   7
ATOM      7  C   UNL     1      44.525   3.987   9.118  0.00  0.00    +0.000 C 
BRANCH   7   8
ATOM      8  N   UNL     1      45.439   4.755   8.283  0.00  0.00    +0.000 NA
ATOM      9  H   UNL     1      46.144   4.133   7.894  0.00  0.00    +0.000 HD
ATOM     10  H   UNL     1      45.935   5.430   8.863  0.00  0.00    +0.000 HD
ENDBRANCH   7   8
ENDBRANCH   1   7
BRANCH   5  11
ATOM     11  C   UNL     1      46.346   6.865  12.884  0.00  0.00    +0.000 C 
BRANCH  11  12
ATOM     12  S   UNL     1      48.154   6.608  13.028  0.00  0.00    +0.000 S 
BRANCH  12  13
ATOM     13  C   UNL     1      48.896   8.043  12.280  0.00  0.00    +0.000 A 
ATOM     14  C   UNL     1      48.255   9.252  12.033  0.00  0.00    +0.000 A 
ATOM     15  C   UNL     1      48.973  10.260  11.404  0.00  0.00    +0.000 A 
ATOM     16  N   UNL     1      50.259  10.146  11.018  0.00  0.00    +0.000 NA
ATOM     17  C   UNL     1      50.864   8.968  11.274  0.00  0.00    +0.000 A 
ATOM     18  C   UNL     1      50.232   7.906  11.893  0.00  0.00    +0.000 A 
ENDBRANCH  12  13
ENDBRANCH  11  12
ENDBRANCH   5  11
TORSDOF 5
ENDMDL
