MODEL 1
REMARK VINA RESULT:    -8.259      0.000      0.000
REMARK INTER + INTRA:         -11.921
REMARK INTER:                 -10.674
REMARK INTRA:                  -1.247
REMARK UNBOUND:                -1.247
REMARK  Name = 
REMARK  5 active torsions:
REMARK  status: ('A' for Active; 'I' for Inactive)
REMARK    1  A    between atoms: C_2  and  C_4
REMARK    2  A    between atoms: C_7  and  O_8
REMARK    3  A    between atoms: O_8  and  C_9
REMARK    4  A    between atoms: C_9  and  C_10
REMARK    5  A    between atoms: C_15  and  N_16
REMARK                            x       y       z     vdW  Elec       q    Type
REMARK                         _______ _______ _______ _____ _____    ______ ____
ROOT
ATOM      1  C   UNL     1      43.741   5.007  11.337  0.00  0.00    +0.000 C 
ATOM      2  C   UNL     1      42.342   5.402  11.794  0.00  0.00    +0.000 C 
ATOM      3  C   UNL     1      43.074   6.267  10.823  0.00  0.00    +0.000 C 
ENDROOT
BRANCH   1   4
ATOM      4  C   UNL     1      44.880   5.078  12.343  0.00  0.00    +0.000 A 
ATOM      5  C   UNL     1      45.187   3.969  13.140  0.00  0.00    +0.000 A 
ATOM      6  C   UNL     1      46.262   3.996  14.025  0.00  0.00    +0.000 A 
ATOM      7  C   UNL     1      47.075   5.132  14.116  0.00  0.00    +0.000 A 
ATOM      8 CL   UNL     1      48.300   5.083  15.348  0.00  0.00    +0.000 Cl
ATOM      9  C   UNL     1      46.847   6.269  13.306  0.00  0.00    +0.000 A 
ATOM     10  C   UNL     1      45.714   6.213  12.467  0.00  0.00    +0.000 A 
BRANCH   9  11
ATOM     11  N   UNL     1      47.683   7.382  13.280  0.00  0.00    +0.000 N 
ATOM     12  C   UNL     1      47.206   8.740  13.543  0.00  0.00    +0.000 C 
ATOM     13  C   UNL     1      47.326   9.614  12.293  0.00  0.00    +0.000 C 
ATOM     14  C   UNL     1      48.741   9.568  11.719  0.00  0.00    +0.000 C 
ATOM     15  C   UNL     1      49.160   8.126  11.456  0.00  0.00    +0.000 C 
ATOM     16  C   UNL     1      49.032   7.266  12.714  0.00  0.00    +0.000 C 
ENDBRANCH   9  11
ENDBRANCH   1   4
BRANCH   1  17
ATOM     17  O   UNL     1      43.679   3.807  10.530  0.00  0.00    +0.000 OA
BRANCH  17  21
ATOM     18  C   UNL     1      46.526   2.782   7.656  0.00  0.00    +0.000 A 
ATOM     19  C   UNL     1      46.220   4.138   7.847  0.00  0.00    +0.000 A 
ATOM     20  C   UNL     1      45.286   4.523   8.814  0.00  0.00    +0.000 A 
ATOM     21  C   UNL     1      44.645   3.562   9.592  0.00  0.00    +0.000 A 
ATOM     22  C   UNL     1      44.955   2.213   9.411  0.00  0.00    +0.000 A 
ATOM     23  C   UNL     1      45.883   1.820   8.445  0.00  0.00    +0.000 A 
BRANCH  18  25
ATOM     24  N   UNL     1      47.438   2.970   5.412  0.00  0.00    +0.000 N 
ATOM     25  C   UNL     1      47.477   2.331   6.618  0.00  0.00    +0.000 C 
ATOM     26  O   UNL     1      48.289   1.440   6.834  0.00  0.00    +0.000 OA
ATOM     27  H   UNL     1      48.160   2.720   4.752  0.00  0.00    +0.000 HD
ATOM     28  H   UNL     1      46.973   3.859   5.288  0.00  0.00    +0.000 HD
ENDBRANCH  18  25
ENDBRANCH  17  21
ENDBRANCH   1  17
TORSDOF 5
ENDMDL
MODEL 2
REMARK VINA RESULT:    -7.778      1.720      2.396
REMARK INTER + INTRA:         -11.298
REMARK INTER:                 -11.029
REMARK INTRA:                  -0.270
REMARK UNBOUND:                -1.247
REMARK  Name = 
REMARK  5 active torsions:
REMARK  status: ('A' for Active; 'I' for Inactive)
REMARK    1  A    between atoms: C_2  and  C_4
REMARK    2  A    between atoms: C_7  and  O_8
REMARK    3  A    between atoms: O_8  and  C_9
REMARK    4  A    between atoms: C_9  and  C_10
REMARK    5  A    between atoms: C_15  and  N_16
REMARK                            x       y       z     vdW  Elec       q    Type
REMARK                         _______ _______ _______ _____ _____    ______ ____
ROOT
ATOM      1  C   UNL     1      44.167   4.813  11.576  0.00  0.00    +0.000 C 
ATOM      2  C   UNL     1      44.589   3.592  12.384  0.00  0.00    +0.000 C 
ATOM      3  C   UNL     1      43.333   4.314  12.739  0.00  0.00    +0.000 C 
ENDROOT
BRANCH   1   4
ATOM      4  C   UNL     1      44.996   6.083  11.696  0.00  0.00    +0.000 A 
ATOM      5  C   UNL     1      44.381   7.337  11.604  0.00  0.00    +0.000 A 
ATOM      6  C   UNL     1      45.114   8.510  11.767  0.00  0.00    +0.000 A 
ATOM      7  C   UNL     1      46.483   8.455  12.054  0.00  0.00    +0.000 A 
ATOM      8 CL   UNL     1      47.302   9.986  12.107  0.00  0.00    +0.000 Cl
ATOM      9  C   UNL     1      47.155   7.220  12.206  0.00  0.00    +0.000 A 
ATOM     10  C   UNL     1      46.382   6.062  11.975  0.00  0.00    +0.000 A 
BRANCH   9  11
ATOM     11  N   UNL     1      48.488   7.106  12.592  0.00  0.00    +0.000 N 
ATOM     12  C   UNL     1      48.911   7.096  13.993  0.00  0.00    +0.000 C 
ATOM     13  C   UNL     1      49.752   8.332  14.319  0.00  0.00    +0.000 C 
ATOM     14  C   UNL     1      50.911   8.489  13.336  0.00  0.00    +0.000 C 
ATOM     15  C   UNL     1      50.391   8.507  11.904  0.00  0.00    +0.000 C 
ATOM     16  C   UNL     1      49.551   7.267  11.594  0.00  0.00    +0.000 C 
ENDBRANCH   9  11
ENDBRANCH   1   4
BRANCH   1  17
ATOM     17  O   UNL     1      43.800   4.417  10.233  0.00  0.00    +0.000 OA
BRANCH  17  21
ATOM     18  C   UNL     1      46.514   2.514   7.699  0.00  0.00    +0.000 A 
ATOM     19  C   UNL     1      46.472   3.916   7.709  0.00  0.00    +0.000 A 
ATOM     20  C   UNL     1      45.590   4.592   8.559  0.00  0.00    +0.000 A 
ATOM     21  C   UNL     1      44.739   3.876   9.398  0.00  0.00    +0.000 A 
ATOM     22  C   UNL     1      44.787   2.481   9.398  0.00  0.00    +0.000 A 
ATOM     23  C   UNL     1      45.661   1.799   8.550  0.00  0.00    +0.000 A 
BRANCH  18  25
ATOM     24  N   UNL     1      48.466   2.435   6.253  0.00  0.00    +0.000 N 
ATOM     25  C   UNL     1      47.404   1.762   6.788  0.00  0.00    +0.000 C 
ATOM     26  O   UNL     1      47.219   0.577   6.543  0.00  0.00    +0.000 OA
ATOM     27  H   UNL     1      49.118   1.882   5.717  0.00  0.00    +0.000 HD
ATOM     28  H   UNL     1      48.790   3.316   6.627  0.00  0.00    +0.000 HD
ENDBRANCH  18  25
ENDBRANCH  17  21
ENDBRANCH   1  17
TORSDOF 5
ENDMDL
MODEL 3
REMARK VINA RESULT:    -6.687      3.264      5.806
REMARK INTER + INTRA:          -9.889
REMARK INTER:                  -8.731
REMARK INTRA:                  -1.157
REMARK UNBOUND:                -1.247
REMARK  Name = 
REMARK  5 active torsions:
REMARK  status: ('A' for Active; 'I' for Inactive)
REMARK    1  A    between atoms: C_2  and  C_4
REMARK    2  A    between atoms: C_7  and  O_8
REMARK    3  A    between atoms: O_8  and  C_9
REMARK    4  A    between atoms: C_9  and  C_10
REMARK    5  A    between atoms: C_15  and  N_16
REMARK                            x       y       z     vdW  Elec       q    Type
REMARK                         _______ _______ _______ _____ _____    ______ ____
ROOT
ATOM      1  C   UNL     1      48.182   7.606  13.138  0.00  0.00    +0.000 C 
ATOM      2  C   UNL     1      49.067   8.456  12.235  0.00  0.00    +0.000 C 
ATOM      3  C   UNL     1      49.211   6.971  12.223  0.00  0.00    +0.000 C 
ENDROOT
BRANCH   1   4
ATOM      4  C   UNL     1      48.406   7.671  14.641  0.00  0.00    +0.000 A 
ATOM      5  C   UNL     1      48.283   8.889  15.321  0.00  0.00    +0.000 A 
ATOM      6  C   UNL     1      48.427   8.957  16.704  0.00  0.00    +0.000 A 
ATOM      7  C   UNL     1      48.675   7.797  17.448  0.00  0.00    +0.000 A 
ATOM      8 CL   UNL     1      48.960   8.040  19.145  0.00  0.00    +0.000 Cl
ATOM      9  C   UNL     1      48.764   6.529  16.828  0.00  0.00    +0.000 A 
ATOM     10  C   UNL     1      48.666   6.520  15.420  0.00  0.00    +0.000 A 
BRANCH   9  11
ATOM     11  N   UNL     1      48.904   5.333  17.528  0.00  0.00    +0.000 N 
ATOM     12  C   UNL     1      50.179   4.887  18.091  0.00  0.00    +0.000 C 
ATOM     13  C   UNL     1      50.667   3.614  17.397  0.00  0.00    +0.000 C 
ATOM     14  C   UNL     1      49.589   2.531  17.402  0.00  0.00    +0.000 C 
ATOM     15  C   UNL     1      48.301   3.064  16.787  0.00  0.00    +0.000 C 
ATOM     16  C   UNL     1      47.827   4.337  17.489  0.00  0.00    +0.000 C 
ENDBRANCH   9  11
ENDBRANCH   1   4
BRANCH   1  17
ATOM     17  O   UNL     1      46.806   7.679  12.695  0.00  0.00    +0.000 OA
BRANCH  17  21
ATOM     18  C   UNL     1      44.791   4.226  11.496  0.00  0.00    +0.000 A 
ATOM     19  C   UNL     1      45.163   4.356  12.843  0.00  0.00    +0.000 A 
ATOM     20  C   UNL     1      45.821   5.506  13.289  0.00  0.00    +0.000 A 
ATOM     21  C   UNL     1      46.122   6.531  12.395  0.00  0.00    +0.000 A 
ATOM     22  C   UNL     1      45.745   6.410  11.057  0.00  0.00    +0.000 A 
ATOM     23  C   UNL     1      45.091   5.263  10.604  0.00  0.00    +0.000 A 
BRANCH  18  25
ATOM     24  N   UNL     1      44.782   2.308  10.005  0.00  0.00    +0.000 N 
ATOM     25  C   UNL     1      44.129   3.010  10.978  0.00  0.00    +0.000 C 
ATOM     26  O   UNL     1      43.054   2.626  11.419  0.00  0.00    +0.000 OA
ATOM     27  H   UNL     1      44.366   1.428   9.736  0.00  0.00    +0.000 HD
ATOM     28  H   UNL     1      45.764   2.446   9.807  0.00  0.00    +0.000 HD
ENDBRANCH  18  25
ENDBRANCH  17  21
ENDBRANCH   1  17
TORSDOF 5
ENDMDL
MODEL 4
REMARK VINA RESULT:    -6.286      5.364      8.279
REMARK INTER + INTRA:          -9.370
REMARK INTER:                  -8.743
REMARK INTRA:                  -0.627
REMARK UNBOUND:                -1.247
REMARK  Name = 
REMARK  5 active torsions:
REMARK  status: ('A' for Active; 'I' for Inactive)
REMARK    1  A    between atoms: C_2  and  C_4
REMARK    2  A    between atoms: C_7  and  O_8
REMARK    3  A    between atoms: O_8  and  C_9
REMARK    4  A    between atoms: C_9  and  C_10
REMARK    5  A    between atoms: C_15  and  N_16
REMARK                            x       y       z     vdW  Elec       q    Type
REMARK                         _______ _______ _______ _____ _____    ______ ____
ROOT
ATOM      1  C   UNL     1      48.159   4.726  16.998  0.00  0.00    +0.000 C 
ATOM      2  C   UNL     1      47.286   5.131  18.178  0.00  0.00    +0.000 C 
ATOM      3  C   UNL     1      47.326   3.704  17.746  0.00  0.00    +0.000 C 
ENDROOT
BRANCH   1   4
ATOM      4  C   UNL     1      47.761   5.193  15.606  0.00  0.00    +0.000 A 
ATOM      5  C   UNL     1      48.577   6.086  14.901  0.00  0.00    +0.000 A 
ATOM      6  C   UNL     1      48.257   6.480  13.604  0.00  0.00    +0.000 A 
ATOM      7  C   UNL     1      47.119   5.969  12.969  0.00  0.00    +0.000 A 
ATOM      8 CL   UNL     1      46.767   6.638  11.405  0.00  0.00    +0.000 Cl
ATOM      9  C   UNL     1      46.278   5.028  13.608  0.00  0.00    +0.000 A 
ATOM     10  C   UNL     1      46.613   4.703  14.940  0.00  0.00    +0.000 A 
BRANCH   9  11
ATOM     11  N   UNL     1      45.196   4.409  12.988  0.00  0.00    +0.000 N 
ATOM     12  C   UNL     1      45.341   3.245  12.113  0.00  0.00    +0.000 C 
ATOM     13  C   UNL     1      44.947   3.588  10.675  0.00  0.00    +0.000 C 
ATOM     14  C   UNL     1      43.558   4.222  10.617  0.00  0.00    +0.000 C 
ATOM     15  C   UNL     1      43.491   5.434  11.538  0.00  0.00    +0.000 C 
ATOM     16  C   UNL     1      43.889   5.075  12.970  0.00  0.00    +0.000 C 
ENDBRANCH   9  11
ENDBRANCH   1   4
BRANCH   1  17
ATOM     17  O   UNL     1      49.558   4.871  17.342  0.00  0.00    +0.000 OA
BRANCH  17  21
ATOM     18  C   UNL     1      52.218   1.669  17.633  0.00  0.00    +0.000 A 
ATOM     19  C   UNL     1      50.912   1.421  17.184  0.00  0.00    +0.000 A 
ATOM     20  C   UNL     1      49.997   2.470  17.053  0.00  0.00    +0.000 A 
ATOM     21  C   UNL     1      50.372   3.772  17.377  0.00  0.00    +0.000 A 
ATOM     22  C   UNL     1      51.674   4.024  17.814  0.00  0.00    +0.000 A 
ATOM     23  C   UNL     1      52.592   2.981  17.950  0.00  0.00    +0.000 A 
BRANCH  18  25
ATOM     24  N   UNL     1      53.655  -0.054  16.701  0.00  0.00    +0.000 N 
ATOM     25  C   UNL     1      53.202   0.583  17.822  0.00  0.00    +0.000 C 
ATOM     26  O   UNL     1      53.622   0.280  18.931  0.00  0.00    +0.000 OA
ATOM     27  H   UNL     1      54.401  -0.721  16.838  0.00  0.00    +0.000 HD
ATOM     28  H   UNL     1      53.532   0.332  15.774  0.00  0.00    +0.000 HD
ENDBRANCH  18  25
ENDBRANCH  17  21
ENDBRANCH   1  17
TORSDOF 5
ENDMDL
MODEL 5
REMARK VINA RESULT:    -6.004      3.470      7.438
REMARK INTER + INTRA:          -9.005
REMARK INTER:                  -8.617
REMARK INTRA:                  -0.388
REMARK UNBOUND:                -1.247
REMARK  Name = 
REMARK  5 active torsions:
REMARK  status: ('A' for Active; 'I' for Inactive)
REMARK    1  A    between atoms: C_2  and  C_4
REMARK    2  A    between atoms: C_7  and  O_8
REMARK    3  A    between atoms: O_8  and  C_9
REMARK    4  A    between atoms: C_9  and  C_10
REMARK    5  A    between atoms: C_15  and  N_16
REMARK                            x       y       z     vdW  Elec       q    Type
REMARK                         _______ _______ _______ _____ _____    ______ ____
ROOT
ATOM      1  C   UNL     1      46.198   7.036  12.553  0.00  0.00    +0.000 C 
ATOM      2  C   UNL     1      46.046   8.216  11.600  0.00  0.00    +0.000 C 
ATOM      3  C   UNL     1      45.481   8.302  12.978  0.00  0.00    +0.000 C 
ENDROOT
BRANCH   1   4
ATOM      4  C   UNL     1      45.425   5.760  12.256  0.00  0.00    +0.000 A 
ATOM      5  C   UNL     1      44.535   5.239  13.203  0.00  0.00    +0.000 A 
ATOM      6  C   UNL     1      43.776   4.104  12.926  0.00  0.00    +0.000 A 
ATOM      7  C   UNL     1      43.872   3.475  11.679  0.00  0.00    +0.000 A 
ATOM      8 CL   UNL     1      42.970   2.000  11.510  0.00  0.00    +0.000 Cl
ATOM      9  C   UNL     1      44.716   3.979  10.662  0.00  0.00    +0.000 A 
ATOM     10  C   UNL     1      45.505   5.096  11.010  0.00  0.00    +0.000 A 
BRANCH   9  11
ATOM     11  N   UNL     1      44.772   3.457   9.372  0.00  0.00    +0.000 N 
ATOM     12  C   UNL     1      44.762   2.020   9.095  0.00  0.00    +0.000 C 
ATOM     13  C   UNL     1      46.088   1.573   8.477  0.00  0.00    +0.000 C 
ATOM     14  C   UNL     1      46.446   2.423   7.259  0.00  0.00    +0.000 C 
ATOM     15  C   UNL     1      46.453   3.901   7.629  0.00  0.00    +0.000 C 
ATOM     16  C   UNL     1      45.123   4.332   8.248  0.00  0.00    +0.000 C 
ENDBRANCH   9  11
ENDBRANCH   1   4
BRANCH   1  17
ATOM     17  O   UNL     1      47.589   6.867  12.917  0.00  0.00    +0.000 OA
BRANCH  17  21
ATOM     18  C   UNL     1      48.654   5.720  16.785  0.00  0.00    +0.000 A 
ATOM     19  C   UNL     1      47.879   4.843  16.012  0.00  0.00    +0.000 A 
ATOM     20  C   UNL     1      47.518   5.181  14.704  0.00  0.00    +0.000 A 
ATOM     21  C   UNL     1      47.919   6.399  14.160  0.00  0.00    +0.000 A 
ATOM     22  C   UNL     1      48.699   7.270  14.923  0.00  0.00    +0.000 A 
ATOM     23  C   UNL     1      49.060   6.941  16.230  0.00  0.00    +0.000 A 
BRANCH  18  25
ATOM     24  N   UNL     1      50.348   5.221  18.454  0.00  0.00    +0.000 N 
ATOM     25  C   UNL     1      49.023   5.417  18.184  0.00  0.00    +0.000 C 
ATOM     26  O   UNL     1      48.185   5.370  19.075  0.00  0.00    +0.000 OA
ATOM     27  H   UNL     1      50.593   5.117  19.428  0.00  0.00    +0.000 HD
ATOM     28  H   UNL     1      51.077   5.501  17.812  0.00  0.00    +0.000 HD
ENDBRANCH  18  25
ENDBRANCH  17  21
ENDBRANCH   1  17
TORSDOF 5
ENDMDL
MODEL 6
REMARK VINA RESULT:    -5.852      3.975      6.479
REMARK INTER + INTRA:          -8.809
REMARK INTER:                  -7.593
REMARK INTRA:                  -1.215
REMARK UNBOUND:                -1.247
REMARK  Name = 
REMARK  5 active torsions:
REMARK  status: ('A' for Active; 'I' for Inactive)
REMARK    1  A    between atoms: C_2  and  C_4
REMARK    2  A    between atoms: C_7  and  O_8
REMARK    3  A    between atoms: O_8  and  C_9
REMARK    4  A    between atoms: C_9  and  C_10
REMARK    5  A    between atoms: C_15  and  N_16
REMARK                            x       y       z     vdW  Elec       q    Type
REMARK                         _______ _______ _______ _____ _____    ______ ____
ROOT
ATOM      1  C   UNL     1      48.937   7.444  13.573  0.00  0.00    +0.000 C 
ATOM      2  C   UNL     1      49.535   7.367  14.972  0.00  0.00    +0.000 C 
ATOM      3  C   UNL     1      48.233   8.065  14.763  0.00  0.00    +0.000 C 
ENDROOT
BRANCH   1   4
ATOM      4  C   UNL     1      49.632   8.311  12.534  0.00  0.00    +0.000 A 
ATOM      5  C   UNL     1      49.199   9.623  12.307  0.00  0.00    +0.000 A 
ATOM      6  C   UNL     1      49.859  10.450  11.401  0.00  0.00    +0.000 A 
ATOM      7  C   UNL     1      50.989   9.990  10.716  0.00  0.00    +0.000 A 
ATOM      8 CL   UNL     1      51.639  11.075   9.524  0.00  0.00    +0.000 Cl
ATOM      9  C   UNL     1      51.506   8.691  10.934  0.00  0.00    +0.000 A 
ATOM     10  C   UNL     1      50.770   7.873  11.818  0.00  0.00    +0.000 A 
BRANCH   9  11
ATOM     11  N   UNL     1      52.683   8.219  10.360  0.00  0.00    +0.000 N 
ATOM     12  C   UNL     1      52.705   7.176   9.333  0.00  0.00    +0.000 C 
ATOM     13  C   UNL     1      53.390   5.911   9.853  0.00  0.00    +0.000 C 
ATOM     14  C   UNL     1      54.770   6.225  10.428  0.00  0.00    +0.000 C 
ATOM     15  C   UNL     1      54.665   7.304  11.499  0.00  0.00    +0.000 C 
ATOM     16  C   UNL     1      53.975   8.560  10.965  0.00  0.00    +0.000 C 
ENDBRANCH   9  11
ENDBRANCH   1   4
BRANCH   1  17
ATOM     17  O   UNL     1      48.532   6.126  13.133  0.00  0.00    +0.000 OA
BRANCH  17  21
ATOM     18  C   UNL     1      44.604   5.392  11.929  0.00  0.00    +0.000 A 
ATOM     19  C   UNL     1      45.364   6.330  11.214  0.00  0.00    +0.000 A 
ATOM     20  C   UNL     1      46.690   6.589  11.573  0.00  0.00    +0.000 A 
ATOM     21  C   UNL     1      47.267   5.923  12.652  0.00  0.00    +0.000 A 
ATOM     22  C   UNL     1      46.517   4.982  13.359  0.00  0.00    +0.000 A 
ATOM     23  C   UNL     1      45.191   4.720  13.009  0.00  0.00    +0.000 A 
BRANCH  18  25
ATOM     24  N   UNL     1      42.320   6.173  11.647  0.00  0.00    +0.000 N 
ATOM     25  C   UNL     1      43.188   5.118  11.606  0.00  0.00    +0.000 C 
ATOM     26  O   UNL     1      42.806   4.000  11.285  0.00  0.00    +0.000 OA
ATOM     27  H   UNL     1      41.381   5.989  11.325  0.00  0.00    +0.000 HD
ATOM     28  H   UNL     1      42.638   7.133  11.653  0.00  0.00    +0.000 HD
ENDBRANCH  18  25
ENDBRANCH  17  21
ENDBRANCH   1  17
TORSDOF 5
ENDMDL
MODEL 7
REMARK VINA RESULT:    -5.828      4.085      6.951
REMARK INTER + INTRA:          -8.779
REMARK INTER:                  -7.474
REMARK INTRA:                  -1.304
REMARK UNBOUND:                -1.247
REMARK  Name = 
REMARK  5 active torsions:
REMARK  status: ('A' for Active; 'I' for Inactive)
REMARK    1  A    between atoms: C_2  and  C_4
REMARK    2  A    between atoms: C_7  and  O_8
REMARK    3  A    between atoms: O_8  and  C_9
REMARK    4  A    between atoms: C_9  and  C_10
REMARK    5  A    between atoms: C_15  and  N_16
REMARK                            x       y       z     vdW  Elec       q    Type
REMARK                         _______ _______ _______ _____ _____    ______ ____
ROOT
ATOM      1  C   UNL     1      49.308   8.613  14.344  0.00  0.00    +0.000 C 
ATOM      2  C   UNL     1      50.517   9.511  14.110  0.00  0.00    +0.000 C 
ATOM      3  C   UNL     1      50.584   8.069  13.730  0.00  0.00    +0.000 C 
ENDROOT
BRANCH   1   4
ATOM      4  C   UNL     1      48.923   8.274  15.776  0.00  0.00    +0.000 A 
ATOM      5  C   UNL     1      48.365   9.253  16.606  0.00  0.00    +0.000 A 
ATOM      6  C   UNL     1      47.953   8.947  17.901  0.00  0.00    +0.000 A 
ATOM      7  C   UNL     1      48.068   7.640  18.390  0.00  0.00    +0.000 A 
ATOM      8 CL   UNL     1      47.637   7.422  20.059  0.00  0.00    +0.000 Cl
ATOM      9  C   UNL     1      48.579   6.594  17.587  0.00  0.00    +0.000 A 
ATOM     10  C   UNL     1      49.034   6.966  16.303  0.00  0.00    +0.000 A 
BRANCH   9  11
ATOM     11  N   UNL     1      48.619   5.261  17.984  0.00  0.00    +0.000 N 
ATOM     12  C   UNL     1      49.834   4.615  18.482  0.00  0.00    +0.000 C 
ATOM     13  C   UNL     1      50.301   3.516  17.526  0.00  0.00    +0.000 C 
ATOM     14  C   UNL     1      49.173   2.532  17.220  0.00  0.00    +0.000 C 
ATOM     15  C   UNL     1      47.952   3.274  16.691  0.00  0.00    +0.000 C 
ATOM     16  C   UNL     1      47.499   4.371  17.656  0.00  0.00    +0.000 C 
ENDBRANCH   9  11
ENDBRANCH   1   4
BRANCH   1  17
ATOM     17  O   UNL     1      48.224   9.002  13.468  0.00  0.00    +0.000 OA
BRANCH  17  21
ATOM     18  C   UNL     1      44.998   6.533  12.513  0.00  0.00    +0.000 A 
ATOM     19  C   UNL     1      46.245   5.943  12.766  0.00  0.00    +0.000 A 
ATOM     20  C   UNL     1      47.346   6.734  13.109  0.00  0.00    +0.000 A 
ATOM     21  C   UNL     1      47.215   8.118  13.194  0.00  0.00    +0.000 A 
ATOM     22  C   UNL     1      45.972   8.707  12.953  0.00  0.00    +0.000 A 
ATOM     23  C   UNL     1      44.870   7.925  12.607  0.00  0.00    +0.000 A 
BRANCH  18  25
ATOM     24  N   UNL     1      42.827   5.574  13.034  0.00  0.00    +0.000 N 
ATOM     25  C   UNL     1      43.820   5.736  12.110  0.00  0.00    +0.000 C 
ATOM     26  O   UNL     1      43.718   5.262  10.986  0.00  0.00    +0.000 OA
ATOM     27  H   UNL     1      41.987   5.116  12.710  0.00  0.00    +0.000 HD
ATOM     28  H   UNL     1      42.759   6.152  13.861  0.00  0.00    +0.000 HD
ENDBRANCH  18  25
ENDBRANCH  17  21
ENDBRANCH   1  17
TORSDOF 5
ENDMDL
MODEL 8
REMARK VINA RESULT:    -5.801      5.297      7.785
REMARK INTER + INTRA:          -8.744
REMARK INTER:                  -7.935
REMARK INTRA:                  -0.809
REMARK UNBOUND:                -1.247
REMARK  Name = 
REMARK  5 active torsions:
REMARK  status: ('A' for Active; 'I' for Inactive)
REMARK    1  A    between atoms: C_2  and  C_4
REMARK    2  A    between atoms: C_7  and  O_8
REMARK    3  A    between atoms: O_8  and  C_9
REMARK    4  A    between atoms: C_9  and  C_10
REMARK    5  A    between atoms: C_15  and  N_16
REMARK                            x       y       z     vdW  Elec       q    Type
REMARK                         _______ _______ _______ _____ _____    ______ ____
ROOT
ATOM      1  C   UNL     1      48.163   4.649  17.155  0.00  0.00    +0.000 C 
ATOM      2  C   UNL     1      47.178   5.044  18.248  0.00  0.00    +0.000 C 
ATOM      3  C   UNL     1      47.253   3.623  17.801  0.00  0.00    +0.000 C 
ENDROOT
BRANCH   1   4
ATOM      4  C   UNL     1      47.909   5.139  15.738  0.00  0.00    +0.000 A 
ATOM      5  C   UNL     1      46.993   4.473  14.915  0.00  0.00    +0.000 A 
ATOM      6  C   UNL     1      46.706   4.942  13.635  0.00  0.00    +0.000 A 
ATOM      7  C   UNL     1      47.312   6.108  13.155  0.00  0.00    +0.000 A 
ATOM      8 CL   UNL     1      46.965   6.510  11.501  0.00  0.00    +0.000 Cl
ATOM      9  C   UNL     1      48.211   6.854  13.953  0.00  0.00    +0.000 A 
ATOM     10  C   UNL     1      48.513   6.309  15.220  0.00  0.00    +0.000 A 
BRANCH   9  11
ATOM     11  N   UNL     1      48.762   8.073  13.567  0.00  0.00    +0.000 N 
ATOM     12  C   UNL     1      47.988   9.315  13.520  0.00  0.00    +0.000 C 
ATOM     13  C   UNL     1      47.860   9.824  12.083  0.00  0.00    +0.000 C 
ATOM     14  C   UNL     1      49.226   9.935  11.410  0.00  0.00    +0.000 C 
ATOM     15  C   UNL     1      49.962   8.603  11.484  0.00  0.00    +0.000 C 
ATOM     16  C   UNL     1      50.080   8.105  12.926  0.00  0.00    +0.000 C 
ENDBRANCH   9  11
ENDBRANCH   1   4
BRANCH   1  17
ATOM     17  O   UNL     1      49.521   4.779  17.640  0.00  0.00    +0.000 OA
BRANCH  17  21
ATOM     18  C   UNL     1      52.301   1.667  17.638  0.00  0.00    +0.000 A 
ATOM     19  C   UNL     1      50.998   1.405  17.191  0.00  0.00    +0.000 A 
ATOM     20  C   UNL     1      50.043   2.426  17.157  0.00  0.00    +0.000 A 
ATOM     21  C   UNL     1      50.376   3.712  17.576  0.00  0.00    +0.000 A 
ATOM     22  C   UNL     1      51.675   3.978  18.012  0.00  0.00    +0.000 A 
ATOM     23  C   UNL     1      52.633   2.963  18.052  0.00  0.00    +0.000 A 
BRANCH  18  25
ATOM     24  N   UNL     1      53.022  -0.503  18.460  0.00  0.00    +0.000 N 
ATOM     25  C   UNL     1      53.329   0.608  17.726  0.00  0.00    +0.000 C 
ATOM     26  O   UNL     1      54.401   0.702  17.143  0.00  0.00    +0.000 OA
ATOM     27  H   UNL     1      53.692  -1.258  18.425  0.00  0.00    +0.000 HD
ATOM     28  H   UNL     1      52.074  -0.725  18.732  0.00  0.00    +0.000 HD
ENDBRANCH  18  25
ENDBRANCH  17  21
ENDBRANCH   1  17
TORSDOF 5
ENDMDL
MODEL 9
REMARK VINA RESULT:    -5.740      3.693      7.677
REMARK INTER + INTRA:          -8.665
REMARK INTER:                  -7.593
REMARK INTRA:                  -1.072
REMARK UNBOUND:                -1.247
REMARK  Name = 
REMARK  5 active torsions:
REMARK  status: ('A' for Active; 'I' for Inactive)
REMARK    1  A    between atoms: C_2  and  C_4
REMARK    2  A    between atoms: C_7  and  O_8
REMARK    3  A    between atoms: O_8  and  C_9
REMARK    4  A    between atoms: C_9  and  C_10
REMARK    5  A    between atoms: C_15  and  N_16
REMARK                            x       y       z     vdW  Elec       q    Type
REMARK                         _______ _______ _______ _____ _____    ______ ____
ROOT
ATOM      1  C   UNL     1      48.527   7.510  12.561  0.00  0.00    +0.000 C 
ATOM      2  C   UNL     1      49.600   7.844  11.532  0.00  0.00    +0.000 C 
ATOM      3  C   UNL     1      49.484   8.666  12.771  0.00  0.00    +0.000 C 
ENDROOT
BRANCH   1   4
ATOM      4  C   UNL     1      47.071   7.755  12.196  0.00  0.00    +0.000 A 
ATOM      5  C   UNL     1      46.595   9.061  12.036  0.00  0.00    +0.000 A 
ATOM      6  C   UNL     1      45.279   9.303  11.646  0.00  0.00    +0.000 A 
ATOM      7  C   UNL     1      44.412   8.237  11.383  0.00  0.00    +0.000 A 
ATOM      8 CL   UNL     1      42.768   8.676  11.031  0.00  0.00    +0.000 Cl
ATOM      9  C   UNL     1      44.843   6.893  11.481  0.00  0.00    +0.000 A 
ATOM     10  C   UNL     1      46.166   6.700  11.933  0.00  0.00    +0.000 A 
BRANCH   9  11
ATOM     11  N   UNL     1      44.056   5.799  11.131  0.00  0.00    +0.000 N 
ATOM     12  C   UNL     1      42.976   5.294  11.979  0.00  0.00    +0.000 C 
ATOM     13  C   UNL     1      43.296   3.889  12.493  0.00  0.00    +0.000 C 
ATOM     14  C   UNL     1      43.658   2.948  11.345  0.00  0.00    +0.000 C 
ATOM     15  C   UNL     1      44.798   3.533  10.520  0.00  0.00    +0.000 C 
ATOM     16  C   UNL     1      44.464   4.937  10.016  0.00  0.00    +0.000 C 
ENDBRANCH   9  11
ENDBRANCH   1   4
BRANCH   1  17
ATOM     17  O   UNL     1      48.821   6.239  13.189  0.00  0.00    +0.000 OA
BRANCH  17  21
ATOM     18  C   UNL     1      48.068   5.464  17.220  0.00  0.00    +0.000 A 
ATOM     19  C   UNL     1      48.966   6.489  16.887  0.00  0.00    +0.000 A 
ATOM     20  C   UNL     1      49.230   6.793  15.548  0.00  0.00    +0.000 A 
ATOM     21  C   UNL     1      48.608   6.073  14.531  0.00  0.00    +0.000 A 
ATOM     22  C   UNL     1      47.705   5.060  14.858  0.00  0.00    +0.000 A 
ATOM     23  C   UNL     1      47.439   4.748  16.193  0.00  0.00    +0.000 A 
BRANCH  18  25
ATOM     24  N   UNL     1      46.595   5.479  19.153  0.00  0.00    +0.000 N 
ATOM     25  C   UNL     1      47.791   5.086  18.622  0.00  0.00    +0.000 C 
ATOM     26  O   UNL     1      48.584   4.424  19.278  0.00  0.00    +0.000 OA
ATOM     27  H   UNL     1      46.380   5.126  20.074  0.00  0.00    +0.000 HD
ATOM     28  H   UNL     1      45.826   5.793  18.576  0.00  0.00    +0.000 HD
ENDBRANCH  18  25
ENDBRANCH  17  21
ENDBRANCH   1  17
TORSDOF 5
ENDMDL
