MODEL 1
REMARK VINA RESULT:    -7.312      0.000      0.000
REMARK INTER + INTRA:         -12.699
REMARK INTER:                 -11.372
REMARK INTRA:                  -1.326
REMARK UNBOUND:                -1.326
REMARK  Name = 
REMARK  10 active torsions:
REMARK  status: ('A' for Active; 'I' for Inactive)
REMARK    1  A    between atoms: N_1  and  C_2
REMARK    2  A    between atoms: C_2  and  C_3
REMARK    3  A    between atoms: C_3  and  N_4
REMARK    4  A    between atoms: N_4  and  C_5
REMARK    5  A    between atoms: C_5  and  C_6
REMARK    6  A    between atoms: C_9  and  C_10
REMARK    7  A    between atoms: C_10  and  C_11
REMARK    8  A    between atoms: C_14  and  C_15
REMARK    9  A    between atoms: C_15  and  N_16
REMARK   10  A    between atoms: C_17  and  C_19
REMARK                            x       y       z     vdW  Elec       q    Type
REMARK                         _______ _______ _______ _____ _____    ______ ____
ROOT
ATOM      1  C   UNL     1      45.972   6.425  13.099  0.00  0.00    +0.000 A 
ATOM      2  C   UNL     1      46.747   5.487  13.793  0.00  0.00    +0.000 A 
ATOM      3  C   UNL     1      47.888   5.887  14.495  0.00  0.00    +0.000 A 
ATOM      4  C   UNL     1      48.268   7.235  14.525  0.00  0.00    +0.000 A 
ATOM      5  C   UNL     1      47.530   8.161  13.777  0.00  0.00    +0.000 A 
ATOM      6  C   UNL     1      46.388   7.762  13.077  0.00  0.00    +0.000 A 
ENDROOT
BRANCH   1   7
ATOM      7  C   UNL     1      44.679   6.010  12.433  0.00  0.00    +0.000 C 
BRANCH   7  11
ATOM      8  C   UNL     1      45.212   3.421   9.081  0.00  0.00    +0.000 A 
ATOM      9  C   UNL     1      45.687   4.726   8.996  0.00  0.00    +0.000 A 
ATOM     10  C   UNL     1      45.524   5.581  10.081  0.00  0.00    +0.000 A 
ATOM     11  C   UNL     1      44.879   5.120  11.233  0.00  0.00    +0.000 A 
ATOM     12  C   UNL     1      44.451   3.798  11.235  0.00  0.00    +0.000 A 
ATOM     13  N   UNL     1      44.597   2.945  10.196  0.00  0.00    +0.000 NA
BRANCH   8  14
ATOM     14  C   UNL     1      45.429   2.457   7.931  0.00  0.00    +0.000 C 
BRANCH  14  15
ATOM     15  N   UNL     1      46.087   1.188   8.307  0.00  0.00    +0.000 NA
ATOM     16  H   UNL     1      46.504   1.344   9.230  0.00  0.00    +0.000 HD
BRANCH  15  17
ATOM     17  C   UNL     1      47.215   0.860   7.414  0.00  0.00    +0.000 C 
BRANCH  17  18
ATOM     18  C   UNL     1      47.966   2.094   6.879  0.00  0.00    +0.000 C 
BRANCH  18  19
ATOM     19  N   UNL     1      48.423   1.881   5.498  0.00  0.00    +0.000 NA
ATOM     20  H   UNL     1      48.045   2.625   4.912  0.00  0.00    +0.000 HD
ATOM     21  H   UNL     1      48.015   1.013   5.150  0.00  0.00    +0.000 HD
ENDBRANCH  18  19
ENDBRANCH  17  18
ENDBRANCH  15  17
ENDBRANCH  14  15
ENDBRANCH   8  14
ENDBRANCH   7  11
ENDBRANCH   1   7
BRANCH   4  22
ATOM     22  C   UNL     1      49.432   7.690  15.362  0.00  0.00    +0.000 C 
BRANCH  22  23
ATOM     23  N   UNL     1      50.271   6.596  15.778  0.00  0.00    +0.000 N 
ATOM     24  C   UNL     1      50.566   6.426  17.108  0.00  0.00    +0.000 C 
ATOM     25  O   UNL     1      50.089   7.156  17.973  0.00  0.00    +0.000 OA
ATOM     26  H   UNL     1      50.836   6.137  15.069  0.00  0.00    +0.000 HD
BRANCH  24  27
ATOM     27  C   UNL     1      51.435   5.299  17.462  0.00  0.00    +0.000 A 
ATOM     28  C   UNL     1      52.733   5.548  17.888  0.00  0.00    +0.000 A 
ATOM     29  S   UNL     1      53.608   4.141  18.283  0.00  0.00    +0.000 S 
ATOM     30  C   UNL     1      52.297   3.143  17.855  0.00  0.00    +0.000 A 
ATOM     31  N   UNL     1      52.399   1.789  17.929  0.00  0.00    +0.000 NA
ATOM     32  C   UNL     1      51.343   1.153  17.545  0.00  0.00    +0.000 A 
ATOM     33  N   UNL     1      50.192   1.751  17.102  0.00  0.00    +0.000 N 
ATOM     34  C   UNL     1      50.031   3.117  17.042  0.00  0.00    +0.000 A 
ATOM     35  O   UNL     1      48.970   3.618  16.686  0.00  0.00    +0.000 OA
ATOM     36  C   UNL     1      51.199   3.877  17.443  0.00  0.00    +0.000 A 
ATOM     37  H   UNL     1      49.396   1.194  16.825  0.00  0.00    +0.000 HD
ENDBRANCH  24  27
ENDBRANCH  22  23
ENDBRANCH   4  22
TORSDOF 10
ENDMDL
MODEL 2
REMARK VINA RESULT:    -7.042      2.428      2.670
REMARK INTER + INTRA:         -12.279
REMARK INTER:                 -10.912
REMARK INTRA:                  -1.367
REMARK UNBOUND:                -1.326
REMARK  Name = 
REMARK  10 active torsions:
REMARK  status: ('A' for Active; 'I' for Inactive)
REMARK    1  A    between atoms: N_1  and  C_2
REMARK    2  A    between atoms: C_2  and  C_3
REMARK    3  A    between atoms: C_3  and  N_4
REMARK    4  A    between atoms: N_4  and  C_5
REMARK    5  A    between atoms: C_5  and  C_6
REMARK    6  A    between atoms: C_9  and  C_10
REMARK    7  A    between atoms: C_10  and  C_11
REMARK    8  A    between atoms: C_14  and  C_15
REMARK    9  A    between atoms: C_15  and  N_16
REMARK   10  A    between atoms: C_17  and  C_19
REMARK                            x       y       z     vdW  Elec       q    Type
REMARK                         _______ _______ _______ _____ _____    ______ ____
ROOT
ATOM      1  C   UNL     1      45.523   6.616  12.721  0.00  0.00    +0.000 A 
ATOM      2  C   UNL     1      45.919   7.960  12.762  0.00  0.00    +0.000 A 
ATOM      3  C   UNL     1      47.143   8.323  13.330  0.00  0.00    +0.000 A 
ATOM      4  C   UNL     1      48.000   7.348  13.858  0.00  0.00    +0.000 A 
ATOM      5  C   UNL     1      47.574   6.014  13.875  0.00  0.00    +0.000 A 
ATOM      6  C   UNL     1      46.352   5.650  13.305  0.00  0.00    +0.000 A 
ENDROOT
BRANCH   1   7
ATOM      7  C   UNL     1      44.252   6.211  12.009  0.00  0.00    +0.000 C 
BRANCH   7  11
ATOM      8  C   UNL     1      44.807   3.190   9.044  0.00  0.00    +0.000 A 
ATOM      9  C   UNL     1      45.507   4.386   8.914  0.00  0.00    +0.000 A 
ATOM     10  C   UNL     1      45.338   5.379   9.875  0.00  0.00    +0.000 A 
ATOM     11  C   UNL     1      44.466   5.165  10.946  0.00  0.00    +0.000 A 
ATOM     12  C   UNL     1      43.820   3.934  11.003  0.00  0.00    +0.000 A 
ATOM     13  N   UNL     1      43.966   2.952  10.085  0.00  0.00    +0.000 NA
BRANCH   8  14
ATOM     14  C   UNL     1      45.017   2.074   8.040  0.00  0.00    +0.000 C 
BRANCH  14  15
ATOM     15  N   UNL     1      46.046   1.085   8.424  0.00  0.00    +0.000 NA
ATOM     16  H   UNL     1      46.598   1.521   9.169  0.00  0.00    +0.000 HD
BRANCH  15  17
ATOM     17  C   UNL     1      47.000   0.820   7.330  0.00  0.00    +0.000 C 
BRANCH  17  18
ATOM     18  C   UNL     1      47.332   2.060   6.478  0.00  0.00    +0.000 C 
BRANCH  18  19
ATOM     19  N   UNL     1      48.562   1.856   5.698  0.00  0.00    +0.000 NA
ATOM     20  H   UNL     1      48.603   0.880   5.407  0.00  0.00    +0.000 HD
ATOM     21  H   UNL     1      49.364   2.001   6.312  0.00  0.00    +0.000 HD
ENDBRANCH  18  19
ENDBRANCH  17  18
ENDBRANCH  15  17
ENDBRANCH  14  15
ENDBRANCH   8  14
ENDBRANCH   7  11
ENDBRANCH   1   7
BRANCH   4  22
ATOM     22  C   UNL     1      49.362   7.719  14.375  0.00  0.00    +0.000 C 
BRANCH  22  23
ATOM     23  N   UNL     1      49.556   7.326  15.746  0.00  0.00    +0.000 N 
ATOM     24  C   UNL     1      49.052   8.104  16.760  0.00  0.00    +0.000 C 
ATOM     25  O   UNL     1      48.387   9.111  16.530  0.00  0.00    +0.000 OA
ATOM     26  H   UNL     1      50.276   6.638  15.945  0.00  0.00    +0.000 HD
BRANCH  24  27
ATOM     27  C   UNL     1      49.294   7.653  18.134  0.00  0.00    +0.000 A 
ATOM     28  C   UNL     1      49.984   8.480  19.011  0.00  0.00    +0.000 A 
ATOM     29  S   UNL     1      50.165   7.825  20.573  0.00  0.00    +0.000 S 
ATOM     30  C   UNL     1      49.368   6.391  20.121  0.00  0.00    +0.000 A 
ATOM     31  N   UNL     1      49.210   5.372  21.009  0.00  0.00    +0.000 NA
ATOM     32  C   UNL     1      48.617   4.332  20.526  0.00  0.00    +0.000 A 
ATOM     33  N   UNL     1      48.159   4.224  19.239  0.00  0.00    +0.000 N 
ATOM     34  C   UNL     1      48.265   5.241  18.317  0.00  0.00    +0.000 A 
ATOM     35  O   UNL     1      47.801   5.127  17.188  0.00  0.00    +0.000 OA
ATOM     36  C   UNL     1      48.945   6.425  18.804  0.00  0.00    +0.000 A 
ATOM     37  H   UNL     1      47.692   3.384  18.927  0.00  0.00    +0.000 HD
ENDBRANCH  24  27
ENDBRANCH  22  23
ENDBRANCH   4  22
TORSDOF 10
ENDMDL
MODEL 3
REMARK VINA RESULT:    -6.994      4.885      6.174
REMARK INTER + INTRA:         -12.205
REMARK INTER:                 -11.137
REMARK INTRA:                  -1.068
REMARK UNBOUND:                -1.326
REMARK  Name = 
REMARK  10 active torsions:
REMARK  status: ('A' for Active; 'I' for Inactive)
REMARK    1  A    between atoms: N_1  and  C_2
REMARK    2  A    between atoms: C_2  and  C_3
REMARK    3  A    between atoms: C_3  and  N_4
REMARK    4  A    between atoms: N_4  and  C_5
REMARK    5  A    between atoms: C_5  and  C_6
REMARK    6  A    between atoms: C_9  and  C_10
REMARK    7  A    between atoms: C_10  and  C_11
REMARK    8  A    between atoms: C_14  and  C_15
REMARK    9  A    between atoms: C_15  and  N_16
REMARK   10  A    between atoms: C_17  and  C_19
REMARK                            x       y       z     vdW  Elec       q    Type
REMARK                         _______ _______ _______ _____ _____    ______ ____
ROOT
ATOM      1  C   UNL     1      47.119   7.274  12.551  0.00  0.00    +0.000 A 
ATOM      2  C   UNL     1      47.246   8.602  12.124  0.00  0.00    +0.000 A 
ATOM      3  C   UNL     1      48.503   9.135  11.823  0.00  0.00    +0.000 A 
ATOM      4  C   UNL     1      49.655   8.345  11.931  0.00  0.00    +0.000 A 
ATOM      5  C   UNL     1      49.534   7.038  12.420  0.00  0.00    +0.000 A 
ATOM      6  C   UNL     1      48.278   6.504  12.720  0.00  0.00    +0.000 A 
ENDROOT
BRANCH   1   7
ATOM      7  C   UNL     1      45.753   6.665  12.771  0.00  0.00    +0.000 C 
BRANCH   7  11
ATOM      8  C   UNL     1      44.825   3.449  10.123  0.00  0.00    +0.000 A 
ATOM      9  C   UNL     1      45.262   4.653   9.579  0.00  0.00    +0.000 A 
ATOM     10  C   UNL     1      45.571   5.709  10.430  0.00  0.00    +0.000 A 
ATOM     11  C   UNL     1      45.430   5.549  11.812  0.00  0.00    +0.000 A 
ATOM     12  C   UNL     1      45.001   4.306  12.266  0.00  0.00    +0.000 A 
ATOM     13  N   UNL     1      44.695   3.263  11.463  0.00  0.00    +0.000 NA
BRANCH   8  14
ATOM     14  C   UNL     1      44.536   2.267   9.217  0.00  0.00    +0.000 C 
BRANCH  14  15
ATOM     15  N   UNL     1      45.727   1.488   8.822  0.00  0.00    +0.000 NA
ATOM     16  H   UNL     1      46.397   1.578   9.592  0.00  0.00    +0.000 HD
BRANCH  15  17
ATOM     17  C   UNL     1      46.401   2.062   7.641  0.00  0.00    +0.000 C 
BRANCH  17  18
ATOM     18  C   UNL     1      47.640   1.269   7.182  0.00  0.00    +0.000 C 
BRANCH  18  19
ATOM     19  N   UNL     1      48.252   1.879   5.994  0.00  0.00    +0.000 NA
ATOM     20  H   UNL     1      49.150   1.428   5.823  0.00  0.00    +0.000 HD
ATOM     21  H   UNL     1      48.462   2.856   6.201  0.00  0.00    +0.000 HD
ENDBRANCH  18  19
ENDBRANCH  17  18
ENDBRANCH  15  17
ENDBRANCH  14  15
ENDBRANCH   8  14
ENDBRANCH   7  11
ENDBRANCH   1   7
BRANCH   4  22
ATOM     22  C   UNL     1      50.997   8.877  11.508  0.00  0.00    +0.000 C 
BRANCH  22  23
ATOM     23  N   UNL     1      51.932   7.828  11.199  0.00  0.00    +0.000 N 
ATOM     24  C   UNL     1      52.665   7.883  10.038  0.00  0.00    +0.000 C 
ATOM     25  O   UNL     1      52.585   8.838   9.270  0.00  0.00    +0.000 OA
ATOM     26  H   UNL     1      51.841   6.949  11.701  0.00  0.00    +0.000 HD
BRANCH  24  27
ATOM     27  C   UNL     1      53.591   6.776   9.778  0.00  0.00    +0.000 A 
ATOM     28  C   UNL     1      54.561   6.464  10.722  0.00  0.00    +0.000 A 
ATOM     29  S   UNL     1      55.542   5.142  10.285  0.00  0.00    +0.000 S 
ATOM     30  C   UNL     1      54.736   4.967   8.797  0.00  0.00    +0.000 A 
ATOM     31  N   UNL     1      55.117   4.012   7.906  0.00  0.00    +0.000 NA
ATOM     32  C   UNL     1      54.442   4.011   6.805  0.00  0.00    +0.000 A 
ATOM     33  N   UNL     1      53.414   4.872   6.520  0.00  0.00    +0.000 N 
ATOM     34  C   UNL     1      52.972   5.831   7.405  0.00  0.00    +0.000 A 
ATOM     35  O   UNL     1      52.018   6.552   7.136  0.00  0.00    +0.000 OA
ATOM     36  C   UNL     1      53.714   5.888   8.649  0.00  0.00    +0.000 A 
ATOM     37  H   UNL     1      52.918   4.811   5.643  0.00  0.00    +0.000 HD
ENDBRANCH  24  27
ENDBRANCH  22  23
ENDBRANCH   4  22
TORSDOF 10
ENDMDL
MODEL 4
REMARK VINA RESULT:    -6.370      2.077      3.667
REMARK INTER + INTRA:         -11.234
REMARK INTER:                 -11.111
REMARK INTRA:                  -0.123
REMARK UNBOUND:                -1.326
REMARK  Name = 
REMARK  10 active torsions:
REMARK  status: ('A' for Active; 'I' for Inactive)
REMARK    1  A    between atoms: N_1  and  C_2
REMARK    2  A    between atoms: C_2  and  C_3
REMARK    3  A    between atoms: C_3  and  N_4
REMARK    4  A    between atoms: N_4  and  C_5
REMARK    5  A    between atoms: C_5  and  C_6
REMARK    6  A    between atoms: C_9  and  C_10
REMARK    7  A    between atoms: C_10  and  C_11
REMARK    8  A    between atoms: C_14  and  C_15
REMARK    9  A    between atoms: C_15  and  N_16
REMARK   10  A    between atoms: C_17  and  C_19
REMARK                            x       y       z     vdW  Elec       q    Type
REMARK                         _______ _______ _______ _____ _____    ______ ____
ROOT
ATOM      1  C   UNL     1      47.796   5.854  14.894  0.00  0.00    +0.000 A 
ATOM      2  C   UNL     1      48.618   6.261  15.954  0.00  0.00    +0.000 A 
ATOM      3  C   UNL     1      48.864   5.406  17.032  0.00  0.00    +0.000 A 
ATOM      4  C   UNL     1      48.302   4.123  17.065  0.00  0.00    +0.000 A 
ATOM      5  C   UNL     1      47.430   3.741  16.038  0.00  0.00    +0.000 A 
ATOM      6  C   UNL     1      47.185   4.595  14.959  0.00  0.00    +0.000 A 
ENDROOT
BRANCH   1   7
ATOM      7  C   UNL     1      47.618   6.734  13.678  0.00  0.00    +0.000 C 
BRANCH   7  11
ATOM      8  C   UNL     1      44.744   5.167  10.938  0.00  0.00    +0.000 A 
ATOM      9  C   UNL     1      45.817   5.895  10.433  0.00  0.00    +0.000 A 
ATOM     10  C   UNL     1      46.764   6.410  11.313  0.00  0.00    +0.000 A 
ATOM     11  C   UNL     1      46.618   6.195  12.687  0.00  0.00    +0.000 A 
ATOM     12  C   UNL     1      45.524   5.444  13.101  0.00  0.00    +0.000 A 
ATOM     13  N   UNL     1      44.590   4.931  12.268  0.00  0.00    +0.000 NA
BRANCH   8  14
ATOM     14  C   UNL     1      43.732   4.550   9.992  0.00  0.00    +0.000 C 
BRANCH  14  15
ATOM     15  N   UNL     1      44.233   4.312   8.623  0.00  0.00    +0.000 NA
ATOM     16  H   UNL     1      43.404   4.214   8.028  0.00  0.00    +0.000 HD
BRANCH  15  17
ATOM     17  C   UNL     1      44.955   3.031   8.509  0.00  0.00    +0.000 C 
BRANCH  17  18
ATOM     18  C   UNL     1      46.039   3.021   7.414  0.00  0.00    +0.000 C 
BRANCH  18  19
ATOM     19  N   UNL     1      46.689   4.334   7.297  0.00  0.00    +0.000 NA
ATOM     20  H   UNL     1      45.983   5.024   7.040  0.00  0.00    +0.000 HD
ATOM     21  H   UNL     1      47.349   4.303   6.520  0.00  0.00    +0.000 HD
ENDBRANCH  18  19
ENDBRANCH  17  18
ENDBRANCH  15  17
ENDBRANCH  14  15
ENDBRANCH   8  14
ENDBRANCH   7  11
ENDBRANCH   1   7
BRANCH   4  22
ATOM     22  C   UNL     1      48.646   3.159  18.167  0.00  0.00    +0.000 C 
BRANCH  22  23
ATOM     23  N   UNL     1      50.066   2.968  18.308  0.00  0.00    +0.000 N 
ATOM     24  C   UNL     1      50.742   2.172  17.415  0.00  0.00    +0.000 C 
ATOM     25  O   UNL     1      50.175   1.652  16.457  0.00  0.00    +0.000 OA
ATOM     26  H   UNL     1      50.489   3.203  19.201  0.00  0.00    +0.000 HD
BRANCH  24  27
ATOM     27  C   UNL     1      52.185   2.010  17.623  0.00  0.00    +0.000 A 
ATOM     28  C   UNL     1      52.714   0.733  17.754  0.00  0.00    +0.000 A 
ATOM     29  S   UNL     1      54.404   0.710  17.966  0.00  0.00    +0.000 S 
ATOM     30  C   UNL     1      54.484   2.410  17.936  0.00  0.00    +0.000 A 
ATOM     31  N   UNL     1      55.670   3.055  18.101  0.00  0.00    +0.000 NA
ATOM     32  C   UNL     1      55.583   4.343  18.089  0.00  0.00    +0.000 A 
ATOM     33  N   UNL     1      54.417   5.043  17.917  0.00  0.00    +0.000 N 
ATOM     34  C   UNL     1      53.199   4.433  17.712  0.00  0.00    +0.000 A 
ATOM     35  O   UNL     1      52.184   5.091  17.513  0.00  0.00    +0.000 OA
ATOM     36  C   UNL     1      53.241   2.984  17.739  0.00  0.00    +0.000 A 
ATOM     37  H   UNL     1      54.419   6.052  17.907  0.00  0.00    +0.000 HD
ENDBRANCH  24  27
ENDBRANCH  22  23
ENDBRANCH   4  22
TORSDOF 10
ENDMDL
MODEL 5
REMARK VINA RESULT:    -5.974      2.927      4.513
REMARK INTER + INTRA:         -10.617
REMARK INTER:                  -9.668
REMARK INTRA:                  -0.949
REMARK UNBOUND:                -1.326
REMARK  Name = 
REMARK  10 active torsions:
REMARK  status: ('A' for Active; 'I' for Inactive)
REMARK    1  A    between atoms: N_1  and  C_2
REMARK    2  A    between atoms: C_2  and  C_3
REMARK    3  A    between atoms: C_3  and  N_4
REMARK    4  A    between atoms: N_4  and  C_5
REMARK    5  A    between atoms: C_5  and  C_6
REMARK    6  A    between atoms: C_9  and  C_10
REMARK    7  A    between atoms: C_10  and  C_11
REMARK    8  A    between atoms: C_14  and  C_15
REMARK    9  A    between atoms: C_15  and  N_16
REMARK   10  A    between atoms: C_17  and  C_19
REMARK                            x       y       z     vdW  Elec       q    Type
REMARK                         _______ _______ _______ _____ _____    ______ ____
ROOT
ATOM      1  C   UNL     1      45.586   5.164  11.884  0.00  0.00    +0.000 A 
ATOM      2  C   UNL     1      45.634   3.860  12.395  0.00  0.00    +0.000 A 
ATOM      3  C   UNL     1      46.336   3.582  13.571  0.00  0.00    +0.000 A 
ATOM      4  C   UNL     1      46.994   4.606  14.266  0.00  0.00    +0.000 A 
ATOM      5  C   UNL     1      47.000   5.896  13.720  0.00  0.00    +0.000 A 
ATOM      6  C   UNL     1      46.297   6.175  12.545  0.00  0.00    +0.000 A 
ENDROOT
BRANCH   1   7
ATOM      7  C   UNL     1      44.738   5.484  10.675  0.00  0.00    +0.000 C 
BRANCH   7  11
ATOM      8  C   UNL     1      45.954   3.446   7.127  0.00  0.00    +0.000 A 
ATOM      9  C   UNL     1      46.762   4.467   7.618  0.00  0.00    +0.000 A 
ATOM     10  C   UNL     1      46.380   5.138   8.775  0.00  0.00    +0.000 A 
ATOM     11  C   UNL     1      45.191   4.784   9.419  0.00  0.00    +0.000 A 
ATOM     12  C   UNL     1      44.455   3.743   8.866  0.00  0.00    +0.000 A 
ATOM     13  N   UNL     1      44.802   3.073   7.744  0.00  0.00    +0.000 NA
BRANCH   8  14
ATOM     14  C   UNL     1      46.379   2.664   5.899  0.00  0.00    +0.000 C 
BRANCH  14  15
ATOM     15  N   UNL     1      47.404   1.630   6.151  0.00  0.00    +0.000 NA
ATOM     16  H   UNL     1      47.105   0.797   5.634  0.00  0.00    +0.000 HD
BRANCH  15  17
ATOM     17  C   UNL     1      47.447   1.222   7.568  0.00  0.00    +0.000 C 
BRANCH  17  18
ATOM     18  C   UNL     1      46.496   0.059   7.911  0.00  0.00    +0.000 C 
BRANCH  18  19
ATOM     19  N   UNL     1      46.636  -1.043   6.949  0.00  0.00    +0.000 NA
ATOM     20  H   UNL     1      46.633  -0.654   6.007  0.00  0.00    +0.000 HD
ATOM     21  H   UNL     1      45.809  -1.637   7.011  0.00  0.00    +0.000 HD
ENDBRANCH  18  19
ENDBRANCH  17  18
ENDBRANCH  15  17
ENDBRANCH  14  15
ENDBRANCH   8  14
ENDBRANCH   7  11
ENDBRANCH   1   7
BRANCH   4  22
ATOM     22  C   UNL     1      47.662   4.336  15.586  0.00  0.00    +0.000 C 
BRANCH  22  23
ATOM     23  N   UNL     1      47.509   5.427  16.513  0.00  0.00    +0.000 N 
ATOM     24  C   UNL     1      48.504   5.700  17.420  0.00  0.00    +0.000 C 
ATOM     25  O   UNL     1      49.557   5.068  17.432  0.00  0.00    +0.000 OA
ATOM     26  H   UNL     1      46.575   5.799  16.657  0.00  0.00    +0.000 HD
BRANCH  24  27
ATOM     27  C   UNL     1      48.279   6.817  18.343  0.00  0.00    +0.000 A 
ATOM     28  C   UNL     1      48.159   6.562  19.703  0.00  0.00    +0.000 A 
ATOM     29  S   UNL     1      47.924   7.962  20.645  0.00  0.00    +0.000 S 
ATOM     30  C   UNL     1      47.929   8.956  19.263  0.00  0.00    +0.000 A 
ATOM     31  N   UNL     1      47.739  10.299  19.370  0.00  0.00    +0.000 NA
ATOM     32  C   UNL     1      47.734  10.928  18.242  0.00  0.00    +0.000 A 
ATOM     33  N   UNL     1      47.912  10.335  17.019  0.00  0.00    +0.000 N 
ATOM     34  C   UNL     1      48.143   8.987  16.865  0.00  0.00    +0.000 A 
ATOM     35  O   UNL     1      48.346   8.498  15.759  0.00  0.00    +0.000 OA
ATOM     36  C   UNL     1      48.135   8.231  18.103  0.00  0.00    +0.000 A 
ATOM     37  H   UNL     1      47.908  10.887  16.174  0.00  0.00    +0.000 HD
ENDBRANCH  24  27
ENDBRANCH  22  23
ENDBRANCH   4  22
TORSDOF 10
ENDMDL
MODEL 6
REMARK VINA RESULT:    -5.841      1.999      2.912
REMARK INTER + INTRA:         -10.411
REMARK INTER:                 -10.718
REMARK INTRA:                   0.308
REMARK UNBOUND:                -1.326
REMARK  Name = 
REMARK  10 active torsions:
REMARK  status: ('A' for Active; 'I' for Inactive)
REMARK    1  A    between atoms: N_1  and  C_2
REMARK    2  A    between atoms: C_2  and  C_3
REMARK    3  A    between atoms: C_3  and  N_4
REMARK    4  A    between atoms: N_4  and  C_5
REMARK    5  A    between atoms: C_5  and  C_6
REMARK    6  A    between atoms: C_9  and  C_10
REMARK    7  A    between atoms: C_10  and  C_11
REMARK    8  A    between atoms: C_14  and  C_15
REMARK    9  A    between atoms: C_15  and  N_16
REMARK   10  A    between atoms: C_17  and  C_19
REMARK                            x       y       z     vdW  Elec       q    Type
REMARK                         _______ _______ _______ _____ _____    ______ ____
ROOT
ATOM      1  C   UNL     1      47.608   6.000  14.580  0.00  0.00    +0.000 A 
ATOM      2  C   UNL     1      48.636   6.568  15.343  0.00  0.00    +0.000 A 
ATOM      3  C   UNL     1      49.132   5.909  16.472  0.00  0.00    +0.000 A 
ATOM      4  C   UNL     1      48.617   4.662  16.851  0.00  0.00    +0.000 A 
ATOM      5  C   UNL     1      47.546   4.125  16.124  0.00  0.00    +0.000 A 
ATOM      6  C   UNL     1      47.051   4.783  14.996  0.00  0.00    +0.000 A 
ENDROOT
BRANCH   1   7
ATOM      7  C   UNL     1      47.148   6.659  13.299  0.00  0.00    +0.000 C 
BRANCH   7  11
ATOM      8  C   UNL     1      44.933   3.992  10.809  0.00  0.00    +0.000 A 
ATOM      9  C   UNL     1      45.287   5.238  10.300  0.00  0.00    +0.000 A 
ATOM     10  C   UNL     1      46.012   6.117  11.099  0.00  0.00    +0.000 A 
ATOM     11  C   UNL     1      46.364   5.740  12.398  0.00  0.00    +0.000 A 
ATOM     12  C   UNL     1      45.981   4.471  12.817  0.00  0.00    +0.000 A 
ATOM     13  N   UNL     1      45.278   3.596  12.062  0.00  0.00    +0.000 NA
BRANCH   8  14
ATOM     14  C   UNL     1      44.191   2.998   9.936  0.00  0.00    +0.000 C 
BRANCH  14  15
ATOM     15  N   UNL     1      44.618   2.981   8.522  0.00  0.00    +0.000 NA
ATOM     16  H   UNL     1      43.860   2.531   7.999  0.00  0.00    +0.000 HD
BRANCH  15  17
ATOM     17  C   UNL     1      45.804   2.130   8.308  0.00  0.00    +0.000 C 
BRANCH  17  18
ATOM     18  C   UNL     1      46.802   2.698   7.281  0.00  0.00    +0.000 C 
BRANCH  18  19
ATOM     19  N   UNL     1      46.663   4.155   7.154  0.00  0.00    +0.000 NA
ATOM     20  H   UNL     1      46.070   4.356   6.349  0.00  0.00    +0.000 HD
ATOM     21  H   UNL     1      47.577   4.552   6.936  0.00  0.00    +0.000 HD
ENDBRANCH  18  19
ENDBRANCH  17  18
ENDBRANCH  15  17
ENDBRANCH  14  15
ENDBRANCH   8  14
ENDBRANCH   7  11
ENDBRANCH   1   7
BRANCH   4  22
ATOM     22  C   UNL     1      49.215   3.898  18.000  0.00  0.00    +0.000 C 
BRANCH  22  23
ATOM     23  N   UNL     1      50.547   3.432  17.716  0.00  0.00    +0.000 N 
ATOM     24  C   UNL     1      51.606   3.891  18.461  0.00  0.00    +0.000 C 
ATOM     25  O   UNL     1      51.446   4.657  19.408  0.00  0.00    +0.000 OA
ATOM     26  H   UNL     1      50.712   2.988  16.818  0.00  0.00    +0.000 HD
BRANCH  24  27
ATOM     27  C   UNL     1      52.938   3.385  18.112  0.00  0.00    +0.000 A 
ATOM     28  C   UNL     1      54.024   4.250  18.142  0.00  0.00    +0.000 A 
ATOM     29  S   UNL     1      55.503   3.509  17.735  0.00  0.00    +0.000 S 
ATOM     30  C   UNL     1      54.738   2.015  17.458  0.00  0.00    +0.000 A 
ATOM     31  N   UNL     1      55.450   0.934  17.040  0.00  0.00    +0.000 NA
ATOM     32  C   UNL     1      54.741  -0.126  16.837  0.00  0.00    +0.000 A 
ATOM     33  N   UNL     1      53.386  -0.204  17.024  0.00  0.00    +0.000 N 
ATOM     34  C   UNL     1      52.629   0.853  17.479  0.00  0.00    +0.000 A 
ATOM     35  O   UNL     1      51.426   0.733  17.681  0.00  0.00    +0.000 OA
ATOM     36  C   UNL     1      53.377   2.075  17.700  0.00  0.00    +0.000 A 
ATOM     37  H   UNL     1      52.892  -1.069  16.858  0.00  0.00    +0.000 HD
ENDBRANCH  24  27
ENDBRANCH  22  23
ENDBRANCH   4  22
TORSDOF 10
ENDMDL
MODEL 7
REMARK VINA RESULT:    -5.734      2.656      3.746
REMARK INTER + INTRA:         -10.245
REMARK INTER:                  -9.487
REMARK INTRA:                  -0.758
REMARK UNBOUND:                -1.326
REMARK  Name = 
REMARK  10 active torsions:
REMARK  status: ('A' for Active; 'I' for Inactive)
REMARK    1  A    between atoms: N_1  and  C_2
REMARK    2  A    between atoms: C_2  and  C_3
REMARK    3  A    between atoms: C_3  and  N_4
REMARK    4  A    between atoms: N_4  and  C_5
REMARK    5  A    between atoms: C_5  and  C_6
REMARK    6  A    between atoms: C_9  and  C_10
REMARK    7  A    between atoms: C_10  and  C_11
REMARK    8  A    between atoms: C_14  and  C_15
REMARK    9  A    between atoms: C_15  and  N_16
REMARK   10  A    between atoms: C_17  and  C_19
REMARK                            x       y       z     vdW  Elec       q    Type
REMARK                         _______ _______ _______ _____ _____    ______ ____
ROOT
ATOM      1  C   UNL     1      45.662   5.198  12.469  0.00  0.00    +0.000 A 
ATOM      2  C   UNL     1      45.742   3.848  12.836  0.00  0.00    +0.000 A 
ATOM      3  C   UNL     1      46.482   3.458  13.956  0.00  0.00    +0.000 A 
ATOM      4  C   UNL     1      47.147   4.413  14.737  0.00  0.00    +0.000 A 
ATOM      5  C   UNL     1      47.119   5.754  14.332  0.00  0.00    +0.000 A 
ATOM      6  C   UNL     1      46.378   6.144  13.214  0.00  0.00    +0.000 A 
ENDROOT
BRANCH   1   7
ATOM      7  C   UNL     1      44.773   5.631  11.325  0.00  0.00    +0.000 C 
BRANCH   7  11
ATOM      8  C   UNL     1      45.707   3.732   7.619  0.00  0.00    +0.000 A 
ATOM      9  C   UNL     1      46.483   4.813   8.026  0.00  0.00    +0.000 A 
ATOM     10  C   UNL     1      46.192   5.441   9.233  0.00  0.00    +0.000 A 
ATOM     11  C   UNL     1      45.125   4.983  10.011  0.00  0.00    +0.000 A 
ATOM     12  C   UNL     1      44.415   3.887   9.534  0.00  0.00    +0.000 A 
ATOM     13  N   UNL     1      44.676   3.257   8.366  0.00  0.00    +0.000 NA
BRANCH   8  14
ATOM     14  C   UNL     1      46.041   2.998   6.334  0.00  0.00    +0.000 C 
BRANCH  14  15
ATOM     15  N   UNL     1      47.475   2.689   6.156  0.00  0.00    +0.000 NA
ATOM     16  H   UNL     1      47.596   2.449   5.167  0.00  0.00    +0.000 HD
BRANCH  15  17
ATOM     17  C   UNL     1      47.884   1.487   6.908  0.00  0.00    +0.000 C 
BRANCH  17  18
ATOM     18  C   UNL     1      46.731   0.808   7.672  0.00  0.00    +0.000 C 
BRANCH  18  19
ATOM     19  N   UNL     1      46.889  -0.653   7.684  0.00  0.00    +0.000 NA
ATOM     20  H   UNL     1      47.203  -0.938   8.611  0.00  0.00    +0.000 HD
ATOM     21  H   UNL     1      47.641  -0.905   7.042  0.00  0.00    +0.000 HD
ENDBRANCH  18  19
ENDBRANCH  17  18
ENDBRANCH  15  17
ENDBRANCH  14  15
ENDBRANCH   8  14
ENDBRANCH   7  11
ENDBRANCH   1   7
BRANCH   4  22
ATOM     22  C   UNL     1      47.857   4.015  16.001  0.00  0.00    +0.000 C 
BRANCH  22  23
ATOM     23  N   UNL     1      48.348   5.151  16.737  0.00  0.00    +0.000 N 
ATOM     24  C   UNL     1      47.741   5.520  17.912  0.00  0.00    +0.000 C 
ATOM     25  O   UNL     1      46.812   4.873  18.390  0.00  0.00    +0.000 OA
ATOM     26  H   UNL     1      48.952   5.806  16.249  0.00  0.00    +0.000 HD
BRANCH  24  27
ATOM     27  C   UNL     1      48.284   6.693  18.606  0.00  0.00    +0.000 A 
ATOM     28  C   UNL     1      47.457   7.782  18.852  0.00  0.00    +0.000 A 
ATOM     29  S   UNL     1      48.226   9.053  19.684  0.00  0.00    +0.000 S 
ATOM     30  C   UNL     1      49.706   8.214  19.705  0.00  0.00    +0.000 A 
ATOM     31  N   UNL     1      50.817   8.774  20.256  0.00  0.00    +0.000 NA
ATOM     32  C   UNL     1      51.878   8.042  20.176  0.00  0.00    +0.000 A 
ATOM     33  N   UNL     1      51.925   6.798  19.603  0.00  0.00    +0.000 N 
ATOM     34  C   UNL     1      50.820   6.178  19.064  0.00  0.00    +0.000 A 
ATOM     35  O   UNL     1      50.889   5.044  18.603  0.00  0.00    +0.000 OA
ATOM     36  C   UNL     1      49.606   6.969  19.109  0.00  0.00    +0.000 A 
ATOM     37  H   UNL     1      52.787   6.273  19.583  0.00  0.00    +0.000 HD
ENDBRANCH  24  27
ENDBRANCH  22  23
ENDBRANCH   4  22
TORSDOF 10
ENDMDL
MODEL 8
REMARK VINA RESULT:    -5.575      3.706      5.122
REMARK INTER + INTRA:          -9.997
REMARK INTER:                  -8.750
REMARK INTRA:                  -1.247
REMARK UNBOUND:                -1.326
REMARK  Name = 
REMARK  10 active torsions:
REMARK  status: ('A' for Active; 'I' for Inactive)
REMARK    1  A    between atoms: N_1  and  C_2
REMARK    2  A    between atoms: C_2  and  C_3
REMARK    3  A    between atoms: C_3  and  N_4
REMARK    4  A    between atoms: N_4  and  C_5
REMARK    5  A    between atoms: C_5  and  C_6
REMARK    6  A    between atoms: C_9  and  C_10
REMARK    7  A    between atoms: C_10  and  C_11
REMARK    8  A    between atoms: C_14  and  C_15
REMARK    9  A    between atoms: C_15  and  N_16
REMARK   10  A    between atoms: C_17  and  C_19
REMARK                            x       y       z     vdW  Elec       q    Type
REMARK                         _______ _______ _______ _____ _____    ______ ____
ROOT
ATOM      1  C   UNL     1      47.550   3.953  15.395  0.00  0.00    +0.000 A 
ATOM      2  C   UNL     1      47.835   5.268  15.787  0.00  0.00    +0.000 A 
ATOM      3  C   UNL     1      48.430   5.528  17.025  0.00  0.00    +0.000 A 
ATOM      4  C   UNL     1      48.762   4.477  17.890  0.00  0.00    +0.000 A 
ATOM      5  C   UNL     1      48.418   3.169  17.525  0.00  0.00    +0.000 A 
ATOM      6  C   UNL     1      47.825   2.908  16.288  0.00  0.00    +0.000 A 
ENDROOT
BRANCH   1   7
ATOM      7  C   UNL     1      47.009   3.663  14.014  0.00  0.00    +0.000 C 
BRANCH   7  11
ATOM      8  C   UNL     1      45.243   7.073  12.149  0.00  0.00    +0.000 A 
ATOM      9  C   UNL     1      44.407   6.129  12.738  0.00  0.00    +0.000 A 
ATOM     10  C   UNL     1      44.968   5.014  13.352  0.00  0.00    +0.000 A 
ATOM     11  C   UNL     1      46.357   4.855  13.361  0.00  0.00    +0.000 A 
ATOM     12  C   UNL     1      47.115   5.855  12.762  0.00  0.00    +0.000 A 
ATOM     13  N   UNL     1      46.597   6.949  12.159  0.00  0.00    +0.000 NA
BRANCH   8  14
ATOM     14  C   UNL     1      44.656   8.323  11.523  0.00  0.00    +0.000 C 
BRANCH  14  15
ATOM     15  N   UNL     1      44.797   9.546  12.341  0.00  0.00    +0.000 NA
ATOM     16  H   UNL     1      43.845   9.871  12.537  0.00  0.00    +0.000 HD
BRANCH  15  17
ATOM     17  C   UNL     1      45.443  10.643  11.595  0.00  0.00    +0.000 C 
BRANCH  17  18
ATOM     18  C   UNL     1      46.882  10.947  12.054  0.00  0.00    +0.000 C 
BRANCH  18  19
ATOM     19  N   UNL     1      47.775   9.809  11.792  0.00  0.00    +0.000 NA
ATOM     20  H   UNL     1      48.502   9.796  12.506  0.00  0.00    +0.000 HD
ATOM     21  H   UNL     1      48.253   9.969  10.905  0.00  0.00    +0.000 HD
ENDBRANCH  18  19
ENDBRANCH  17  18
ENDBRANCH  15  17
ENDBRANCH  14  15
ENDBRANCH   8  14
ENDBRANCH   7  11
ENDBRANCH   1   7
BRANCH   4  22
ATOM     22  C   UNL     1      49.497   4.740  19.175  0.00  0.00    +0.000 C 
BRANCH  22  23
ATOM     23  N   UNL     1      50.682   3.932  19.306  0.00  0.00    +0.000 N 
ATOM     24  C   UNL     1      51.840   4.306  18.670  0.00  0.00    +0.000 C 
ATOM     25  O   UNL     1      51.915   5.350  18.026  0.00  0.00    +0.000 OA
ATOM     26  H   UNL     1      50.570   2.979  19.640  0.00  0.00    +0.000 HD
BRANCH  24  27
ATOM     27  C   UNL     1      53.007   3.433  18.836  0.00  0.00    +0.000 A 
ATOM     28  C   UNL     1      54.117   3.904  19.524  0.00  0.00    +0.000 A 
ATOM     29  S   UNL     1      55.378   2.766  19.652  0.00  0.00    +0.000 S 
ATOM     30  C   UNL     1      54.503   1.617  18.751  0.00  0.00    +0.000 A 
ATOM     31  N   UNL     1      55.042   0.402  18.462  0.00  0.00    +0.000 NA
ATOM     32  C   UNL     1      54.284  -0.360  17.745  0.00  0.00    +0.000 A 
ATOM     33  N   UNL     1      53.033  -0.018  17.300  0.00  0.00    +0.000 N 
ATOM     34  C   UNL     1      52.434   1.186  17.598  0.00  0.00    +0.000 A 
ATOM     35  O   UNL     1      51.295   1.439  17.224  0.00  0.00    +0.000 OA
ATOM     36  C   UNL     1      53.255   2.087  18.383  0.00  0.00    +0.000 A 
ATOM     37  H   UNL     1      52.487  -0.666  16.752  0.00  0.00    +0.000 HD
ENDBRANCH  24  27
ENDBRANCH  22  23
ENDBRANCH   4  22
TORSDOF 10
ENDMDL
MODEL 9
REMARK VINA RESULT:    -4.961     10.894     12.173
REMARK INTER + INTRA:          -9.042
REMARK INTER:                  -7.946
REMARK INTRA:                  -1.096
REMARK UNBOUND:                -1.326
REMARK  Name = 
REMARK  10 active torsions:
REMARK  status: ('A' for Active; 'I' for Inactive)
REMARK    1  A    between atoms: N_1  and  C_2
REMARK    2  A    between atoms: C_2  and  C_3
REMARK    3  A    between atoms: C_3  and  N_4
REMARK    4  A    between atoms: N_4  and  C_5
REMARK    5  A    between atoms: C_5  and  C_6
REMARK    6  A    between atoms: C_9  and  C_10
REMARK    7  A    between atoms: C_10  and  C_11
REMARK    8  A    between atoms: C_14  and  C_15
REMARK    9  A    between atoms: C_15  and  N_16
REMARK   10  A    between atoms: C_17  and  C_19
REMARK                            x       y       z     vdW  Elec       q    Type
REMARK                         _______ _______ _______ _____ _____    ______ ____
ROOT
ATOM      1  C   UNL     1      41.464  -3.839  15.226  0.00  0.00    +0.000 A 
ATOM      2  C   UNL     1      41.911  -4.584  16.325  0.00  0.00    +0.000 A 
ATOM      3  C   UNL     1      41.610  -4.179  17.629  0.00  0.00    +0.000 A 
ATOM      4  C   UNL     1      40.846  -3.027  17.857  0.00  0.00    +0.000 A 
ATOM      5  C   UNL     1      40.455  -2.248  16.761  0.00  0.00    +0.000 A 
ATOM      6  C   UNL     1      40.753  -2.653  15.458  0.00  0.00    +0.000 A 
ENDROOT
BRANCH   1   7
ATOM      7  C   UNL     1      41.694  -4.335  13.817  0.00  0.00    +0.000 C 
BRANCH   7  11
ATOM      8  C   UNL     1      39.052  -2.601  10.948  0.00  0.00    +0.000 A 
ATOM      9  C   UNL     1      38.626  -3.724  11.651  0.00  0.00    +0.000 A 
ATOM     10  C   UNL     1      39.475  -4.298  12.591  0.00  0.00    +0.000 A 
ATOM     11  C   UNL     1      40.741  -3.747  12.809  0.00  0.00    +0.000 A 
ATOM     12  C   UNL     1      41.076  -2.616  12.072  0.00  0.00    +0.000 A 
ATOM     13  N   UNL     1      40.271  -2.036  11.153  0.00  0.00    +0.000 NA
BRANCH   8  14
ATOM     14  C   UNL     1      38.121  -1.926   9.958  0.00  0.00    +0.000 C 
BRANCH  14  15
ATOM     15  N   UNL     1      37.349  -0.794  10.512  0.00  0.00    +0.000 NA
ATOM     16  H   UNL     1      36.712  -1.195  11.207  0.00  0.00    +0.000 HD
BRANCH  15  17
ATOM     17  C   UNL     1      36.483  -0.162   9.498  0.00  0.00    +0.000 C 
BRANCH  17  18
ATOM     18  C   UNL     1      36.838   1.308   9.204  0.00  0.00    +0.000 C 
BRANCH  18  19
ATOM     19  N   UNL     1      37.783   1.837  10.198  0.00  0.00    +0.000 NA
ATOM     20  H   UNL     1      37.260   2.113  11.028  0.00  0.00    +0.000 HD
ATOM     21  H   UNL     1      38.199   2.692   9.829  0.00  0.00    +0.000 HD
ENDBRANCH  18  19
ENDBRANCH  17  18
ENDBRANCH  15  17
ENDBRANCH  14  15
ENDBRANCH   8  14
ENDBRANCH   7  11
ENDBRANCH   1   7
BRANCH   4  22
ATOM     22  C   UNL     1      40.430  -2.642  19.250  0.00  0.00    +0.000 C 
BRANCH  22  23
ATOM     23  N   UNL     1      40.169  -1.232  19.377  0.00  0.00    +0.000 N 
ATOM     24  C   UNL     1      38.892  -0.791  19.625  0.00  0.00    +0.000 C 
ATOM     25  O   UNL     1      37.961  -1.573  19.797  0.00  0.00    +0.000 OA
ATOM     26  H   UNL     1      40.869  -0.587  19.022  0.00  0.00    +0.000 HD
BRANCH  24  27
ATOM     27  C   UNL     1      38.694   0.659  19.731  0.00  0.00    +0.000 A 
ATOM     28  C   UNL     1      38.755   1.265  20.979  0.00  0.00    +0.000 A 
ATOM     29  S   UNL     1      38.528   2.952  20.934  0.00  0.00    +0.000 S 
ATOM     30  C   UNL     1      38.293   2.928  19.249  0.00  0.00    +0.000 A 
ATOM     31  N   UNL     1      38.014   4.072  18.568  0.00  0.00    +0.000 NA
ATOM     32  C   UNL     1      37.827   3.907  17.301  0.00  0.00    +0.000 A 
ATOM     33  N   UNL     1      37.904   2.701  16.654  0.00  0.00    +0.000 N 
ATOM     34  C   UNL     1      38.217   1.524  17.295  0.00  0.00    +0.000 A 
ATOM     35  O   UNL     1      38.324   0.471  16.676  0.00  0.00    +0.000 OA
ATOM     36  C   UNL     1      38.414   1.653  18.726  0.00  0.00    +0.000 A 
ATOM     37  H   UNL     1      37.758   2.642  15.656  0.00  0.00    +0.000 HD
ENDBRANCH  24  27
ENDBRANCH  22  23
ENDBRANCH   4  22
TORSDOF 10
ENDMDL
