MODEL 1
REMARK VINA RESULT:    -7.389      0.000      0.000
REMARK INTER + INTRA:         -12.013
REMARK INTER:                 -10.413
REMARK INTRA:                  -1.600
REMARK UNBOUND:                -1.600
REMARK  Name = 
REMARK  10 active torsions:
REMARK  status: ('A' for Active; 'I' for Inactive)
REMARK    1  A    between atoms: C_1  and  N_2
REMARK    2  A    between atoms: C_8  and  C_9
REMARK    3  A    between atoms: N_11  and  C_12
REMARK    4  A    between atoms: C_12  and  C_13
REMARK    5  A    between atoms: C_16  and  C_17
REMARK    6  A    between atoms: C_17  and  N_18
REMARK    7  A    between atoms: N_18  and  C_19
REMARK    8  A    between atoms: C_19  and  C_20
REMARK    9  A    between atoms: C_19  and  C_21
REMARK   10  A    between atoms: C_19  and  C_22
REMARK                            x       y       z     vdW  Elec       q    Type
REMARK                         _______ _______ _______ _____ _____    ______ ____
ROOT
ATOM      1  C   UNL     1      47.909   7.776  13.390  0.00  0.00    +0.000 A 
ATOM      2  C   UNL     1      48.310   6.626  14.085  0.00  0.00    +0.000 A 
ATOM      3  C   UNL     1      48.674   6.698  15.431  0.00  0.00    +0.000 A 
ATOM      4  C   UNL     1      48.650   7.927  16.100  0.00  0.00    +0.000 A 
ATOM      5  C   UNL     1      48.243   9.070  15.412  0.00  0.00    +0.000 A 
ATOM      6  C   UNL     1      47.870   8.996  14.074  0.00  0.00    +0.000 A 
ENDROOT
BRANCH   1   7
ATOM      7  C   UNL     1      47.525   7.646  11.942  0.00  0.00    +0.000 C 
BRANCH   7  10
ATOM      8  C   UNL     1      45.401   6.457  11.577  0.00  0.00    +0.000 C 
ATOM      9  O   UNL     1      44.740   7.505  11.604  0.00  0.00    +0.000 OA
ATOM     10  N   UNL     1      46.758   6.452  11.699  0.00  0.00    +0.000 N 
ATOM     11  H   UNL     1      47.255   5.577  11.633  0.00  0.00    +0.000 HD
BRANCH   8  19
ATOM     12  C   UNL     1      46.301   3.616   6.821  0.00  0.00    +0.000 C 
ATOM     13  N   UNL     1      45.573   3.467   8.059  0.00  0.00    +0.000 N 
ATOM     14  C   UNL     1      44.814   2.347   8.310  0.00  0.00    +0.000 A 
ATOM     15  N   UNL     1      44.133   2.126   9.389  0.00  0.00    +0.000 NA
ATOM     16  C   UNL     1      44.212   3.116  10.310  0.00  0.00    +0.000 A 
ATOM     17  S   UNL     1      43.382   2.988  11.785  0.00  0.00    +0.000 S 
ATOM     18  C   UNL     1      43.969   4.511  12.305  0.00  0.00    +0.000 A 
ATOM     19  C   UNL     1      44.785   5.140  11.374  0.00  0.00    +0.000 A 
ATOM     20  C   UNL     1      44.925   4.295  10.205  0.00  0.00    +0.000 A 
ATOM     21  C   UNL     1      45.684   4.490   8.985  0.00  0.00    +0.000 A 
ATOM     22  O   UNL     1      46.362   5.502   8.747  0.00  0.00    +0.000 OA
ENDBRANCH   8  19
ENDBRANCH   7  10
ENDBRANCH   1   7
BRANCH   4  23
ATOM     23  C   UNL     1      49.017   8.091  17.546  0.00  0.00    +0.000 C 
BRANCH  23  24
ATOM     24  N   UNL     1      47.983   7.605  18.441  0.00  0.00    +0.000 NA
ATOM     25  H   UNL     1      47.145   7.335  17.917  0.00  0.00    +0.000 HD
BRANCH  24  26
ATOM     26  C   UNL     1      48.372   6.436  19.280  0.00  0.00    +0.000 C 
ATOM     27  C   UNL     1      49.822   6.590  19.789  0.00  0.00    +0.000 C 
ATOM     28  C   UNL     1      47.395   6.308  20.467  0.00  0.00    +0.000 C 
BRANCH  26  29
ATOM     29  C   UNL     1      48.301   5.127  18.454  0.00  0.00    +0.000 A 
ATOM     30  N   UNL     1      47.089   4.701  18.029  0.00  0.00    +0.000 NA
ATOM     31  C   UNL     1      47.063   3.546  17.338  0.00  0.00    +0.000 A 
ATOM     32  C   UNL     1      48.190   2.827  17.021  0.00  0.00    +0.000 A 
ATOM     33  C   UNL     1      49.375   3.356  17.462  0.00  0.00    +0.000 A 
ATOM     34  N   UNL     1      49.461   4.494  18.169  0.00  0.00    +0.000 NA
ENDBRANCH  26  29
ENDBRANCH  24  26
ENDBRANCH  23  24
ENDBRANCH   4  23
TORSDOF 7
ENDMDL
MODEL 2
REMARK VINA RESULT:    -7.235      4.563      6.675
REMARK INTER + INTRA:         -11.795
REMARK INTER:                 -10.782
REMARK INTRA:                  -1.013
REMARK UNBOUND:                -1.600
REMARK  Name = 
REMARK  10 active torsions:
REMARK  status: ('A' for Active; 'I' for Inactive)
REMARK    1  A    between atoms: C_1  and  N_2
REMARK    2  A    between atoms: C_8  and  C_9
REMARK    3  A    between atoms: N_11  and  C_12
REMARK    4  A    between atoms: C_12  and  C_13
REMARK    5  A    between atoms: C_16  and  C_17
REMARK    6  A    between atoms: C_17  and  N_18
REMARK    7  A    between atoms: N_18  and  C_19
REMARK    8  A    between atoms: C_19  and  C_20
REMARK    9  A    between atoms: C_19  and  C_21
REMARK   10  A    between atoms: C_19  and  C_22
REMARK                            x       y       z     vdW  Elec       q    Type
REMARK                         _______ _______ _______ _____ _____    ______ ____
ROOT
ATOM      1  C   UNL     1      48.645   3.351  17.203  0.00  0.00    +0.000 A 
ATOM      2  C   UNL     1      49.204   2.130  16.800  0.00  0.00    +0.000 A 
ATOM      3  C   UNL     1      50.539   1.831  17.077  0.00  0.00    +0.000 A 
ATOM      4  C   UNL     1      51.338   2.757  17.757  0.00  0.00    +0.000 A 
ATOM      5  C   UNL     1      50.782   3.969  18.166  0.00  0.00    +0.000 A 
ATOM      6  C   UNL     1      49.448   4.261  17.899  0.00  0.00    +0.000 A 
ENDROOT
BRANCH   1   7
ATOM      7  C   UNL     1      47.202   3.624  16.883  0.00  0.00    +0.000 C 
BRANCH   7  10
ATOM      8  C   UNL     1      47.137   4.387  14.544  0.00  0.00    +0.000 C 
ATOM      9  O   UNL     1      47.268   3.235  14.102  0.00  0.00    +0.000 OA
ATOM     10  N   UNL     1      47.062   4.646  15.879  0.00  0.00    +0.000 N 
ATOM     11  H   UNL     1      46.919   5.596  16.188  0.00  0.00    +0.000 HD
BRANCH   8  19
ATOM     12  C   UNL     1      42.333   5.398  11.824  0.00  0.00    +0.000 C 
ATOM     13  N   UNL     1      43.650   5.973  11.963  0.00  0.00    +0.000 N 
ATOM     14  C   UNL     1      44.002   7.119  11.287  0.00  0.00    +0.000 A 
ATOM     15  N   UNL     1      45.153   7.707  11.352  0.00  0.00    +0.000 NA
ATOM     16  C   UNL     1      46.046   7.096  12.167  0.00  0.00    +0.000 A 
ATOM     17  S   UNL     1      47.605   7.735  12.371  0.00  0.00    +0.000 S 
ATOM     18  C   UNL     1      48.032   6.479  13.455  0.00  0.00    +0.000 A 
ATOM     19  C   UNL     1      47.015   5.559  13.669  0.00  0.00    +0.000 A 
ATOM     20  C   UNL     1      45.845   5.946  12.905  0.00  0.00    +0.000 A 
ATOM     21  C   UNL     1      44.534   5.332  12.812  0.00  0.00    +0.000 A 
ATOM     22  O   UNL     1      44.213   4.293  13.410  0.00  0.00    +0.000 OA
ENDBRANCH   8  19
ENDBRANCH   7  10
ENDBRANCH   1   7
BRANCH   4  23
ATOM     23  C   UNL     1      52.779   2.513  18.103  0.00  0.00    +0.000 C 
BRANCH  23  24
ATOM     24  N   UNL     1      53.016   1.161  18.575  0.00  0.00    +0.000 NA
ATOM     25  H   UNL     1      52.359   0.504  18.144  0.00  0.00    +0.000 HD
BRANCH  24  26
ATOM     26  C   UNL     1      54.389   0.637  18.326  0.00  0.00    +0.000 C 
ATOM     27  C   UNL     1      54.899   1.084  16.938  0.00  0.00    +0.000 C 
ATOM     28  C   UNL     1      55.338   1.135  19.434  0.00  0.00    +0.000 C 
BRANCH  26  29
ATOM     29  C   UNL     1      54.391  -0.913  18.349  0.00  0.00    +0.000 A 
ATOM     30  N   UNL     1      55.074  -1.568  17.381  0.00  0.00    +0.000 NA
ATOM     31  C   UNL     1      55.031  -2.913  17.417  0.00  0.00    +0.000 A 
ATOM     32  C   UNL     1      54.377  -3.625  18.394  0.00  0.00    +0.000 A 
ATOM     33  C   UNL     1      53.745  -2.875  19.352  0.00  0.00    +0.000 A 
ATOM     34  N   UNL     1      53.740  -1.532  19.358  0.00  0.00    +0.000 NA
ENDBRANCH  26  29
ENDBRANCH  24  26
ENDBRANCH  23  24
ENDBRANCH   4  23
TORSDOF 7
ENDMDL
MODEL 3
REMARK VINA RESULT:    -6.826      3.313      8.377
REMARK INTER + INTRA:         -11.220
REMARK INTER:                  -9.894
REMARK INTRA:                  -1.326
REMARK UNBOUND:                -1.600
REMARK  Name = 
REMARK  10 active torsions:
REMARK  status: ('A' for Active; 'I' for Inactive)
REMARK    1  A    between atoms: C_1  and  N_2
REMARK    2  A    between atoms: C_8  and  C_9
REMARK    3  A    between atoms: N_11  and  C_12
REMARK    4  A    between atoms: C_12  and  C_13
REMARK    5  A    between atoms: C_16  and  C_17
REMARK    6  A    between atoms: C_17  and  N_18
REMARK    7  A    between atoms: N_18  and  C_19
REMARK    8  A    between atoms: C_19  and  C_20
REMARK    9  A    between atoms: C_19  and  C_21
REMARK   10  A    between atoms: C_19  and  C_22
REMARK                            x       y       z     vdW  Elec       q    Type
REMARK                         _______ _______ _______ _____ _____    ______ ____
ROOT
ATOM      1  C   UNL     1      49.029   8.245  13.012  0.00  0.00    +0.000 A 
ATOM      2  C   UNL     1      47.956   8.724  13.778  0.00  0.00    +0.000 A 
ATOM      3  C   UNL     1      46.638   8.469  13.397  0.00  0.00    +0.000 A 
ATOM      4  C   UNL     1      46.373   7.737  12.234  0.00  0.00    +0.000 A 
ATOM      5  C   UNL     1      47.438   7.253  11.475  0.00  0.00    +0.000 A 
ATOM      6  C   UNL     1      48.752   7.498  11.862  0.00  0.00    +0.000 A 
ENDROOT
BRANCH   1   7
ATOM      7  C   UNL     1      50.430   8.545  13.467  0.00  0.00    +0.000 C 
BRANCH   7  10
ATOM      8  C   UNL     1      51.015   7.796  15.737  0.00  0.00    +0.000 C 
ATOM      9  O   UNL     1      50.640   8.861  16.249  0.00  0.00    +0.000 OA
ATOM     10  N   UNL     1      50.910   7.559  14.399  0.00  0.00    +0.000 N 
ATOM     11  H   UNL     1      51.194   6.662  14.035  0.00  0.00    +0.000 HD
BRANCH   8  19
ATOM     12  C   UNL     1      47.842   3.324  16.935  0.00  0.00    +0.000 C 
ATOM     13  N   UNL     1      49.179   3.810  17.180  0.00  0.00    +0.000 N 
ATOM     14  C   UNL     1      50.079   3.077  17.920  0.00  0.00    +0.000 A 
ATOM     15  N   UNL     1      51.296   3.429  18.187  0.00  0.00    +0.000 NA
ATOM     16  C   UNL     1      51.655   4.629  17.671  0.00  0.00    +0.000 A 
ATOM     17  S   UNL     1      53.217   5.243  17.924  0.00  0.00    +0.000 S 
ATOM     18  C   UNL     1      52.862   6.655  17.021  0.00  0.00    +0.000 A 
ATOM     19  C   UNL     1      51.565   6.689  16.529  0.00  0.00    +0.000 A 
ATOM     20  C   UNL     1      50.869   5.478  16.916  0.00  0.00    +0.000 A 
ATOM     21  C   UNL     1      49.519   5.033  16.629  0.00  0.00    +0.000 A 
ATOM     22  O   UNL     1      48.698   5.693  15.972  0.00  0.00    +0.000 OA
ENDBRANCH   8  19
ENDBRANCH   7  10
ENDBRANCH   1   7
BRANCH   4  23
ATOM     23  C   UNL     1      44.988   7.411  11.757  0.00  0.00    +0.000 C 
BRANCH  23  24
ATOM     24  N   UNL     1      44.990   6.523  10.609  0.00  0.00    +0.000 NA
ATOM     25  H   UNL     1      45.918   6.490  10.175  0.00  0.00    +0.000 HD
BRANCH  24  26
ATOM     26  C   UNL     1      44.589   5.117  10.896  0.00  0.00    +0.000 C 
ATOM     27  C   UNL     1      45.211   4.634  12.226  0.00  0.00    +0.000 C 
ATOM     28  C   UNL     1      43.051   5.022  10.955  0.00  0.00    +0.000 C 
BRANCH  26  29
ATOM     29  C   UNL     1      45.088   4.169   9.775  0.00  0.00    +0.000 A 
ATOM     30  N   UNL     1      44.848   2.843   9.902  0.00  0.00    +0.000 NA
ATOM     31  C   UNL     1      45.319   2.049   8.923  0.00  0.00    +0.000 A 
ATOM     32  C   UNL     1      45.976   2.521   7.813  0.00  0.00    +0.000 A 
ATOM     33  C   UNL     1      46.140   3.882   7.754  0.00  0.00    +0.000 A 
ATOM     34  N   UNL     1      45.706   4.722   8.708  0.00  0.00    +0.000 NA
ENDBRANCH  26  29
ENDBRANCH  24  26
ENDBRANCH  23  24
ENDBRANCH   4  23
TORSDOF 7
ENDMDL
MODEL 4
REMARK VINA RESULT:    -6.577      2.981      9.160
REMARK INTER + INTRA:         -10.868
REMARK INTER:                  -9.792
REMARK INTRA:                  -1.076
REMARK UNBOUND:                -1.600
REMARK  Name = 
REMARK  10 active torsions:
REMARK  status: ('A' for Active; 'I' for Inactive)
REMARK    1  A    between atoms: C_1  and  N_2
REMARK    2  A    between atoms: C_8  and  C_9
REMARK    3  A    between atoms: N_11  and  C_12
REMARK    4  A    between atoms: C_12  and  C_13
REMARK    5  A    between atoms: C_16  and  C_17
REMARK    6  A    between atoms: C_17  and  N_18
REMARK    7  A    between atoms: N_18  and  C_19
REMARK    8  A    between atoms: C_19  and  C_20
REMARK    9  A    between atoms: C_19  and  C_21
REMARK   10  A    between atoms: C_19  and  C_22
REMARK                            x       y       z     vdW  Elec       q    Type
REMARK                         _______ _______ _______ _____ _____    ______ ____
ROOT
ATOM      1  C   UNL     1      47.001   6.977  12.952  0.00  0.00    +0.000 A 
ATOM      2  C   UNL     1      46.658   5.950  13.844  0.00  0.00    +0.000 A 
ATOM      3  C   UNL     1      45.946   4.833  13.404  0.00  0.00    +0.000 A 
ATOM      4  C   UNL     1      45.559   4.731  12.063  0.00  0.00    +0.000 A 
ATOM      5  C   UNL     1      45.906   5.747  11.173  0.00  0.00    +0.000 A 
ATOM      6  C   UNL     1      46.625   6.855  11.611  0.00  0.00    +0.000 A 
ENDROOT
BRANCH   1   7
ATOM      7  C   UNL     1      47.770   8.158  13.475  0.00  0.00    +0.000 C 
BRANCH   7  10
ATOM      8  C   UNL     1      49.121   7.793  15.499  0.00  0.00    +0.000 C 
ATOM      9  O   UNL     1      50.159   7.608  14.845  0.00  0.00    +0.000 OA
ATOM     10  N   UNL     1      47.935   8.098  14.903  0.00  0.00    +0.000 N 
ATOM     11  H   UNL     1      47.126   8.276  15.480  0.00  0.00    +0.000 HD
BRANCH   8  19
ATOM     12  C   UNL     1      48.473   2.876  18.126  0.00  0.00    +0.000 C 
ATOM     13  N   UNL     1      48.634   4.273  18.451  0.00  0.00    +0.000 N 
ATOM     14  C   UNL     1      48.653   4.704  19.759  0.00  0.00    +0.000 A 
ATOM     15  N   UNL     1      48.796   5.931  20.144  0.00  0.00    +0.000 NA
ATOM     16  C   UNL     1      48.932   6.821  19.132  0.00  0.00    +0.000 A 
ATOM     17  S   UNL     1      49.131   8.475  19.459  0.00  0.00    +0.000 S 
ATOM     18  C   UNL     1      49.221   8.845  17.789  0.00  0.00    +0.000 A 
ATOM     19  C   UNL     1      49.091   7.736  16.965  0.00  0.00    +0.000 A 
ATOM     20  C   UNL     1      48.930   6.547  17.778  0.00  0.00    +0.000 A 
ATOM     21  C   UNL     1      48.783   5.155  17.396  0.00  0.00    +0.000 A 
ATOM     22  O   UNL     1      48.754   4.761  16.219  0.00  0.00    +0.000 OA
ENDBRANCH   8  19
ENDBRANCH   7  10
ENDBRANCH   1   7
BRANCH   4  23
ATOM     23  C   UNL     1      44.800   3.562  11.506  0.00  0.00    +0.000 C 
BRANCH  23  24
ATOM     24  N   UNL     1      45.553   2.841  10.496  0.00  0.00    +0.000 NA
ATOM     25  H   UNL     1      45.766   1.890  10.811  0.00  0.00    +0.000 HD
BRANCH  24  26
ATOM     26  C   UNL     1      44.882   2.724   9.170  0.00  0.00    +0.000 C 
ATOM     27  C   UNL     1      43.985   1.468   9.123  0.00  0.00    +0.000 C 
ATOM     28  C   UNL     1      44.046   3.993   8.904  0.00  0.00    +0.000 C 
BRANCH  26  29
ATOM     29  C   UNL     1      45.933   2.592   8.039  0.00  0.00    +0.000 A 
ATOM     30  N   UNL     1      46.607   1.425   7.922  0.00  0.00    +0.000 NA
ATOM     31  C   UNL     1      47.531   1.356   6.945  0.00  0.00    +0.000 A 
ATOM     32  C   UNL     1      47.778   2.380   6.063  0.00  0.00    +0.000 A 
ATOM     33  C   UNL     1      47.021   3.509   6.237  0.00  0.00    +0.000 A 
ATOM     34  N   UNL     1      46.097   3.641   7.202  0.00  0.00    +0.000 NA
ENDBRANCH  26  29
ENDBRANCH  24  26
ENDBRANCH  23  24
ENDBRANCH   4  23
TORSDOF 7
ENDMDL
MODEL 5
REMARK VINA RESULT:    -6.176      5.185      8.236
REMARK INTER + INTRA:         -10.303
REMARK INTER:                  -9.128
REMARK INTRA:                  -1.176
REMARK UNBOUND:                -1.600
REMARK  Name = 
REMARK  10 active torsions:
REMARK  status: ('A' for Active; 'I' for Inactive)
REMARK    1  A    between atoms: C_1  and  N_2
REMARK    2  A    between atoms: C_8  and  C_9
REMARK    3  A    between atoms: N_11  and  C_12
REMARK    4  A    between atoms: C_12  and  C_13
REMARK    5  A    between atoms: C_16  and  C_17
REMARK    6  A    between atoms: C_17  and  N_18
REMARK    7  A    between atoms: N_18  and  C_19
REMARK    8  A    between atoms: C_19  and  C_20
REMARK    9  A    between atoms: C_19  and  C_21
REMARK   10  A    between atoms: C_19  and  C_22
REMARK                            x       y       z     vdW  Elec       q    Type
REMARK                         _______ _______ _______ _____ _____    ______ ____
ROOT
ATOM      1  C   UNL     1      49.130   8.378  12.238  0.00  0.00    +0.000 A 
ATOM      2  C   UNL     1      49.195   7.034  12.632  0.00  0.00    +0.000 A 
ATOM      3  C   UNL     1      48.029   6.286  12.810  0.00  0.00    +0.000 A 
ATOM      4  C   UNL     1      46.778   6.878  12.604  0.00  0.00    +0.000 A 
ATOM      5  C   UNL     1      46.712   8.213  12.205  0.00  0.00    +0.000 A 
ATOM      6  C   UNL     1      47.875   8.954  12.017  0.00  0.00    +0.000 A 
ENDROOT
BRANCH   1   7
ATOM      7  C   UNL     1      50.414   9.139  12.058  0.00  0.00    +0.000 C 
BRANCH   7  10
ATOM      8  C   UNL     1      52.682   8.544  11.311  0.00  0.00    +0.000 C 
ATOM      9  O   UNL     1      52.826   9.614  10.700  0.00  0.00    +0.000 OA
ATOM     10  N   UNL     1      51.553   8.261  12.019  0.00  0.00    +0.000 N 
ATOM     11  H   UNL     1      51.499   7.392  12.530  0.00  0.00    +0.000 HD
BRANCH   8  19
ATOM     12  C   UNL     1      53.320   4.986   7.017  0.00  0.00    +0.000 C 
ATOM     13  N   UNL     1      53.908   5.254   8.308  0.00  0.00    +0.000 N 
ATOM     14  C   UNL     1      54.952   4.496   8.787  0.00  0.00    +0.000 A 
ATOM     15  N   UNL     1      55.543   4.665   9.927  0.00  0.00    +0.000 NA
ATOM     16  C   UNL     1      55.047   5.685  10.667  0.00  0.00    +0.000 A 
ATOM     17  S   UNL     1      55.706   6.047  12.188  0.00  0.00    +0.000 S 
ATOM     18  C   UNL     1      54.607   7.342  12.412  0.00  0.00    +0.000 A 
ATOM     19  C   UNL     1      53.725   7.512  11.353  0.00  0.00    +0.000 A 
ATOM     20  C   UNL     1      54.006   6.529  10.327  0.00  0.00    +0.000 A 
ATOM     21  C   UNL     1      53.387   6.311   9.033  0.00  0.00    +0.000 A 
ATOM     22  O   UNL     1      52.439   6.984   8.599  0.00  0.00    +0.000 OA
ENDBRANCH   8  19
ENDBRANCH   7  10
ENDBRANCH   1   7
BRANCH   4  23
ATOM     23  C   UNL     1      45.478   6.146  12.765  0.00  0.00    +0.000 C 
BRANCH  23  24
ATOM     24  N   UNL     1      44.901   5.751  11.493  0.00  0.00    +0.000 NA
ATOM     25  H   UNL     1      45.520   6.005  10.718  0.00  0.00    +0.000 HD
BRANCH  24  26
ATOM     26  C   UNL     1      44.602   4.297  11.359  0.00  0.00    +0.000 C 
ATOM     27  C   UNL     1      45.306   3.491  12.473  0.00  0.00    +0.000 C 
ATOM     28  C   UNL     1      43.077   4.078  11.417  0.00  0.00    +0.000 C 
BRANCH  26  29
ATOM     29  C   UNL     1      45.115   3.761   9.998  0.00  0.00    +0.000 A 
ATOM     30  N   UNL     1      45.106   2.423   9.791  0.00  0.00    +0.000 NA
ATOM     31  C   UNL     1      45.583   1.992   8.608  0.00  0.00    +0.000 A 
ATOM     32  C   UNL     1      46.026   2.834   7.617  0.00  0.00    +0.000 A 
ATOM     33  C   UNL     1      45.963   4.174   7.904  0.00  0.00    +0.000 A 
ATOM     34  N   UNL     1      45.512   4.661   9.071  0.00  0.00    +0.000 NA
ENDBRANCH  26  29
ENDBRANCH  24  26
ENDBRANCH  23  24
ENDBRANCH   4  23
TORSDOF 7
ENDMDL
MODEL 6
REMARK VINA RESULT:    -6.070      3.150      5.490
REMARK INTER + INTRA:         -10.154
REMARK INTER:                  -8.670
REMARK INTRA:                  -1.484
REMARK UNBOUND:                -1.600
REMARK  Name = 
REMARK  10 active torsions:
REMARK  status: ('A' for Active; 'I' for Inactive)
REMARK    1  A    between atoms: C_1  and  N_2
REMARK    2  A    between atoms: C_8  and  C_9
REMARK    3  A    between atoms: N_11  and  C_12
REMARK    4  A    between atoms: C_12  and  C_13
REMARK    5  A    between atoms: C_16  and  C_17
REMARK    6  A    between atoms: C_17  and  N_18
REMARK    7  A    between atoms: N_18  and  C_19
REMARK    8  A    between atoms: C_19  and  C_20
REMARK    9  A    between atoms: C_19  and  C_21
REMARK   10  A    between atoms: C_19  and  C_22
REMARK                            x       y       z     vdW  Elec       q    Type
REMARK                         _______ _______ _______ _____ _____    ______ ____
ROOT
ATOM      1  C   UNL     1      48.821   3.749  17.785  0.00  0.00    +0.000 A 
ATOM      2  C   UNL     1      49.779   2.894  17.223  0.00  0.00    +0.000 A 
ATOM      3  C   UNL     1      51.100   2.909  17.674  0.00  0.00    +0.000 A 
ATOM      4  C   UNL     1      51.483   3.790  18.693  0.00  0.00    +0.000 A 
ATOM      5  C   UNL     1      50.529   4.636  19.258  0.00  0.00    +0.000 A 
ATOM      6  C   UNL     1      49.211   4.611  18.814  0.00  0.00    +0.000 A 
ENDROOT
BRANCH   1   7
ATOM      7  C   UNL     1      47.411   3.692  17.265  0.00  0.00    +0.000 C 
BRANCH   7  10
ATOM      8  C   UNL     1      47.294   4.399  14.910  0.00  0.00    +0.000 C 
ATOM      9  O   UNL     1      47.543   3.258  14.493  0.00  0.00    +0.000 OA
ATOM     10  N   UNL     1      47.180   4.676  16.240  0.00  0.00    +0.000 N 
ATOM     11  H   UNL     1      46.940   5.612  16.528  0.00  0.00    +0.000 HD
BRANCH   8  19
ATOM     12  C   UNL     1      42.778   4.503  11.580  0.00  0.00    +0.000 C 
ATOM     13  N   UNL     1      43.931   5.319  11.880  0.00  0.00    +0.000 N 
ATOM     14  C   UNL     1      44.142   6.519  11.239  0.00  0.00    +0.000 A 
ATOM     15  N   UNL     1      45.141   7.315  11.445  0.00  0.00    +0.000 NA
ATOM     16  C   UNL     1      46.021   6.877  12.377  0.00  0.00    +0.000 A 
ATOM     17  S   UNL     1      47.390   7.800  12.771  0.00  0.00    +0.000 S 
ATOM     18  C   UNL     1      47.906   6.636  13.918  0.00  0.00    +0.000 A 
ATOM     19  C   UNL     1      47.064   5.536  14.011  0.00  0.00    +0.000 A 
ATOM     20  C   UNL     1      45.950   5.701  13.098  0.00  0.00    +0.000 A 
ATOM     21  C   UNL     1      44.804   4.849  12.845  0.00  0.00    +0.000 A 
ATOM     22  O   UNL     1      44.613   3.761  13.411  0.00  0.00    +0.000 OA
ENDBRANCH   8  19
ENDBRANCH   7  10
ENDBRANCH   1   7
BRANCH   4  23
ATOM     23  C   UNL     1      52.878   3.866  19.242  0.00  0.00    +0.000 C 
BRANCH  23  24
ATOM     24  N   UNL     1      53.826   4.401  18.282  0.00  0.00    +0.000 NA
ATOM     25  H   UNL     1      53.526   4.199  17.324  0.00  0.00    +0.000 HD
BRANCH  24  26
ATOM     26  C   UNL     1      54.053   5.872  18.371  0.00  0.00    +0.000 C 
ATOM     27  C   UNL     1      54.121   6.324  19.847  0.00  0.00    +0.000 C 
ATOM     28  C   UNL     1      55.359   6.235  17.636  0.00  0.00    +0.000 C 
BRANCH  26  29
ATOM     29  C   UNL     1      52.890   6.643  17.698  0.00  0.00    +0.000 A 
ATOM     30  N   UNL     1      52.324   7.670  18.375  0.00  0.00    +0.000 NA
ATOM     31  C   UNL     1      51.299   8.299  17.771  0.00  0.00    +0.000 A 
ATOM     32  C   UNL     1      50.847   7.977  16.514  0.00  0.00    +0.000 A 
ATOM     33  C   UNL     1      51.506   6.948  15.891  0.00  0.00    +0.000 A 
ATOM     34  N   UNL     1      52.523   6.274  16.451  0.00  0.00    +0.000 NA
ENDBRANCH  26  29
ENDBRANCH  24  26
ENDBRANCH  23  24
ENDBRANCH   4  23
TORSDOF 7
ENDMDL
MODEL 7
REMARK VINA RESULT:    -6.038      2.763      4.596
REMARK INTER + INTRA:         -10.110
REMARK INTER:                  -8.542
REMARK INTRA:                  -1.568
REMARK UNBOUND:                -1.600
REMARK  Name = 
REMARK  10 active torsions:
REMARK  status: ('A' for Active; 'I' for Inactive)
REMARK    1  A    between atoms: C_1  and  N_2
REMARK    2  A    between atoms: C_8  and  C_9
REMARK    3  A    between atoms: N_11  and  C_12
REMARK    4  A    between atoms: C_12  and  C_13
REMARK    5  A    between atoms: C_16  and  C_17
REMARK    6  A    between atoms: C_17  and  N_18
REMARK    7  A    between atoms: N_18  and  C_19
REMARK    8  A    between atoms: C_19  and  C_20
REMARK    9  A    between atoms: C_19  and  C_21
REMARK   10  A    between atoms: C_19  and  C_22
REMARK                            x       y       z     vdW  Elec       q    Type
REMARK                         _______ _______ _______ _____ _____    ______ ____
ROOT
ATOM      1  C   UNL     1      48.007   5.028  17.194  0.00  0.00    +0.000 A 
ATOM      2  C   UNL     1      49.322   5.485  17.357  0.00  0.00    +0.000 A 
ATOM      3  C   UNL     1      49.667   6.292  18.443  0.00  0.00    +0.000 A 
ATOM      4  C   UNL     1      48.694   6.659  19.380  0.00  0.00    +0.000 A 
ATOM      5  C   UNL     1      47.386   6.199  19.223  0.00  0.00    +0.000 A 
ATOM      6  C   UNL     1      47.047   5.387  18.146  0.00  0.00    +0.000 A 
ENDROOT
BRANCH   1   7
ATOM      7  C   UNL     1      47.687   4.160  16.008  0.00  0.00    +0.000 C 
BRANCH   7  10
ATOM      8  C   UNL     1      47.309   5.631  14.072  0.00  0.00    +0.000 C 
ATOM      9  O   UNL     1      48.524   5.776  13.869  0.00  0.00    +0.000 OA
ATOM     10  N   UNL     1      46.831   4.835  15.068  0.00  0.00    +0.000 N 
ATOM     11  H   UNL     1      45.834   4.720  15.170  0.00  0.00    +0.000 HD
BRANCH   8  19
ATOM     12  C   UNL     1      43.304   2.544  11.638  0.00  0.00    +0.000 C 
ATOM     13  N   UNL     1      43.717   3.925  11.721  0.00  0.00    +0.000 N 
ATOM     14  C   UNL     1      43.030   4.916  11.058  0.00  0.00    +0.000 A 
ATOM     15  N   UNL     1      43.324   6.177  11.078  0.00  0.00    +0.000 NA
ATOM     16  C   UNL     1      44.408   6.485  11.828  0.00  0.00    +0.000 A 
ATOM     17  S   UNL     1      44.932   8.094  11.965  0.00  0.00    +0.000 S 
ATOM     18  C   UNL     1      46.226   7.637  12.992  0.00  0.00    +0.000 A 
ATOM     19  C   UNL     1      46.287   6.272  13.235  0.00  0.00    +0.000 A 
ATOM     20  C   UNL     1      45.199   5.608  12.545  0.00  0.00    +0.000 A 
ATOM     21  C   UNL     1      44.820   4.209  12.506  0.00  0.00    +0.000 A 
ATOM     22  O   UNL     1      45.441   3.308  13.093  0.00  0.00    +0.000 OA
ENDBRANCH   8  19
ENDBRANCH   7  10
ENDBRANCH   1   7
BRANCH   4  23
ATOM     23  C   UNL     1      48.980   7.515  20.580  0.00  0.00    +0.000 C 
BRANCH  23  24
ATOM     24  N   UNL     1      49.788   8.676  20.255  0.00  0.00    +0.000 NA
ATOM     25  H   UNL     1      50.564   8.418  19.638  0.00  0.00    +0.000 HD
BRANCH  24  26
ATOM     26  C   UNL     1      49.054   9.793  19.596  0.00  0.00    +0.000 C 
ATOM     27  C   UNL     1      47.569   9.794  20.021  0.00  0.00    +0.000 C 
ATOM     28  C   UNL     1      49.721  11.134  19.965  0.00  0.00    +0.000 C 
BRANCH  26  29
ATOM     29  C   UNL     1      49.101   9.639  18.055  0.00  0.00    +0.000 A 
ATOM     30  N   UNL     1      50.301   9.739  17.436  0.00  0.00    +0.000 NA
ATOM     31  C   UNL     1      50.299   9.627  16.094  0.00  0.00    +0.000 A 
ATOM     32  C   UNL     1      49.167   9.381  15.356  0.00  0.00    +0.000 A 
ATOM     33  C   UNL     1      48.005   9.259  16.073  0.00  0.00    +0.000 A 
ATOM     34  N   UNL     1      47.943   9.377  17.409  0.00  0.00    +0.000 NA
ENDBRANCH  26  29
ENDBRANCH  24  26
ENDBRANCH  23  24
ENDBRANCH   4  23
TORSDOF 7
ENDMDL
MODEL 8
REMARK VINA RESULT:    -6.007      5.281      8.348
REMARK INTER + INTRA:         -10.065
REMARK INTER:                  -8.903
REMARK INTRA:                  -1.162
REMARK UNBOUND:                -1.600
REMARK  Name = 
REMARK  10 active torsions:
REMARK  status: ('A' for Active; 'I' for Inactive)
REMARK    1  A    between atoms: C_1  and  N_2
REMARK    2  A    between atoms: C_8  and  C_9
REMARK    3  A    between atoms: N_11  and  C_12
REMARK    4  A    between atoms: C_12  and  C_13
REMARK    5  A    between atoms: C_16  and  C_17
REMARK    6  A    between atoms: C_17  and  N_18
REMARK    7  A    between atoms: N_18  and  C_19
REMARK    8  A    between atoms: C_19  and  C_20
REMARK    9  A    between atoms: C_19  and  C_21
REMARK   10  A    between atoms: C_19  and  C_22
REMARK                            x       y       z     vdW  Elec       q    Type
REMARK                         _______ _______ _______ _____ _____    ______ ____
ROOT
ATOM      1  C   UNL     1      49.186   8.555  12.385  0.00  0.00    +0.000 A 
ATOM      2  C   UNL     1      48.220   9.245  13.132  0.00  0.00    +0.000 A 
ATOM      3  C   UNL     1      46.899   8.794  13.178  0.00  0.00    +0.000 A 
ATOM      4  C   UNL     1      46.524   7.649  12.467  0.00  0.00    +0.000 A 
ATOM      5  C   UNL     1      47.485   6.957  11.730  0.00  0.00    +0.000 A 
ATOM      6  C   UNL     1      48.804   7.401  11.694  0.00  0.00    +0.000 A 
ENDROOT
BRANCH   1   7
ATOM      7  C   UNL     1      50.595   9.080  12.371  0.00  0.00    +0.000 C 
BRANCH   7  10
ATOM      8  C   UNL     1      52.426   9.225  10.733  0.00  0.00    +0.000 C 
ATOM      9  O   UNL     1      53.295   9.033  11.597  0.00  0.00    +0.000 OA
ATOM     10  N   UNL     1      51.096   9.225  11.029  0.00  0.00    +0.000 N 
ATOM     11  H   UNL     1      50.426   9.348  10.285  0.00  0.00    +0.000 HD
BRANCH   8  19
ATOM     12  C   UNL     1      53.788   4.852   7.489  0.00  0.00    +0.000 C 
ATOM     13  N   UNL     1      53.639   6.284   7.383  0.00  0.00    +0.000 N 
ATOM     14  C   UNL     1      53.867   6.938   6.194  0.00  0.00    +0.000 A 
ATOM     15  N   UNL     1      53.755   8.214   6.004  0.00  0.00    +0.000 NA
ATOM     16  C   UNL     1      53.383   8.911   7.104  0.00  0.00    +0.000 A 
ATOM     17  S   UNL     1      53.186  10.595   7.032  0.00  0.00    +0.000 S 
ATOM     18  C   UNL     1      52.748  10.665   8.687  0.00  0.00    +0.000 A 
ATOM     19  C   UNL     1      52.753   9.428   9.316  0.00  0.00    +0.000 A 
ATOM     20  C   UNL     1      53.123   8.401   8.362  0.00  0.00    +0.000 A 
ATOM     21  C   UNL     1      53.246   6.965   8.521  0.00  0.00    +0.000 A 
ATOM     22  O   UNL     1      53.053   6.369   9.593  0.00  0.00    +0.000 OA
ENDBRANCH   8  19
ENDBRANCH   7  10
ENDBRANCH   1   7
BRANCH   4  23
ATOM     23  C   UNL     1      45.130   7.092  12.468  0.00  0.00    +0.000 C 
BRANCH  23  24
ATOM     24  N   UNL     1      44.792   6.437  11.217  0.00  0.00    +0.000 NA
ATOM     25  H   UNL     1      45.590   6.447  10.574  0.00  0.00    +0.000 HD
BRANCH  24  26
ATOM     26  C   UNL     1      44.348   5.020  11.345  0.00  0.00    +0.000 C 
ATOM     27  C   UNL     1      44.941   4.376  12.617  0.00  0.00    +0.000 C 
ATOM     28  C   UNL     1      42.807   4.967  11.383  0.00  0.00    +0.000 C 
BRANCH  26  29
ATOM     29  C   UNL     1      44.829   4.188  10.129  0.00  0.00    +0.000 A 
ATOM     30  N   UNL     1      45.480   4.828   9.130  0.00  0.00    +0.000 NA
ATOM     31  C   UNL     1      45.859   4.078   8.079  0.00  0.00    +0.000 A 
ATOM     32  C   UNL     1      45.655   2.722   8.002  0.00  0.00    +0.000 A 
ATOM     33  C   UNL     1      45.020   2.155   9.078  0.00  0.00    +0.000 A 
ATOM     34  N   UNL     1      44.605   2.855  10.146  0.00  0.00    +0.000 NA
ENDBRANCH  26  29
ENDBRANCH  24  26
ENDBRANCH  23  24
ENDBRANCH   4  23
TORSDOF 7
ENDMDL
MODEL 9
REMARK VINA RESULT:    -5.962      3.546      9.128
REMARK INTER + INTRA:         -10.002
REMARK INTER:                  -9.057
REMARK INTRA:                  -0.945
REMARK UNBOUND:                -1.600
REMARK  Name = 
REMARK  10 active torsions:
REMARK  status: ('A' for Active; 'I' for Inactive)
REMARK    1  A    between atoms: C_1  and  N_2
REMARK    2  A    between atoms: C_8  and  C_9
REMARK    3  A    between atoms: N_11  and  C_12
REMARK    4  A    between atoms: C_12  and  C_13
REMARK    5  A    between atoms: C_16  and  C_17
REMARK    6  A    between atoms: C_17  and  N_18
REMARK    7  A    between atoms: N_18  and  C_19
REMARK    8  A    between atoms: C_19  and  C_20
REMARK    9  A    between atoms: C_19  and  C_21
REMARK   10  A    between atoms: C_19  and  C_22
REMARK                            x       y       z     vdW  Elec       q    Type
REMARK                         _______ _______ _______ _____ _____    ______ ____
ROOT
ATOM      1  C   UNL     1      49.050   7.972  13.710  0.00  0.00    +0.000 A 
ATOM      2  C   UNL     1      47.925   8.665  14.176  0.00  0.00    +0.000 A 
ATOM      3  C   UNL     1      46.682   8.503  13.561  0.00  0.00    +0.000 A 
ATOM      4  C   UNL     1      46.550   7.647  12.461  0.00  0.00    +0.000 A 
ATOM      5  C   UNL     1      47.668   6.950  12.001  0.00  0.00    +0.000 A 
ATOM      6  C   UNL     1      48.903   7.105  12.622  0.00  0.00    +0.000 A 
ENDROOT
BRANCH   1   7
ATOM      7  C   UNL     1      50.365   8.179  14.409  0.00  0.00    +0.000 C 
BRANCH   7  10
ATOM      8  C   UNL     1      51.683   7.159  16.219  0.00  0.00    +0.000 C 
ATOM      9  O   UNL     1      52.696   7.816  15.934  0.00  0.00    +0.000 OA
ATOM     10  N   UNL     1      50.508   7.308  15.545  0.00  0.00    +0.000 N 
ATOM     11  H   UNL     1      49.702   6.777  15.839  0.00  0.00    +0.000 HD
BRANCH   8  19
ATOM     12  C   UNL     1      47.798   7.595  20.245  0.00  0.00    +0.000 C 
ATOM     13  N   UNL     1      48.917   6.752  19.896  0.00  0.00    +0.000 N 
ATOM     14  C   UNL     1      49.280   5.686  20.687  0.00  0.00    +0.000 A 
ATOM     15  N   UNL     1      50.263   4.876  20.452  0.00  0.00    +0.000 NA
ATOM     16  C   UNL     1      50.955   5.153  19.322  0.00  0.00    +0.000 A 
ATOM     17  S   UNL     1      52.275   4.189  18.861  0.00  0.00    +0.000 S 
ATOM     18  C   UNL     1      52.543   5.138  17.461  0.00  0.00    +0.000 A 
ATOM     19  C   UNL     1      51.654   6.196  17.326  0.00  0.00    +0.000 A 
ATOM     20  C   UNL     1      50.717   6.183  18.432  0.00  0.00    +0.000 A 
ATOM     21  C   UNL     1      49.595   7.053  18.729  0.00  0.00    +0.000 A 
ATOM     22  O   UNL     1      49.268   8.023  18.026  0.00  0.00    +0.000 OA
ENDBRANCH   8  19
ENDBRANCH   7  10
ENDBRANCH   1   7
BRANCH   4  23
ATOM     23  C   UNL     1      45.252   7.408  11.747  0.00  0.00    +0.000 C 
BRANCH  23  24
ATOM     24  N   UNL     1      45.384   6.461  10.655  0.00  0.00    +0.000 NA
ATOM     25  H   UNL     1      46.371   6.282  10.446  0.00  0.00    +0.000 HD
BRANCH  24  26
ATOM     26  C   UNL     1      44.736   5.138  10.884  0.00  0.00    +0.000 C 
ATOM     27  C   UNL     1      45.208   4.525  12.221  0.00  0.00    +0.000 C 
ATOM     28  C   UNL     1      43.203   5.310  10.882  0.00  0.00    +0.000 C 
BRANCH  26  29
ATOM     29  C   UNL     1      45.112   4.146   9.754  0.00  0.00    +0.000 A 
ATOM     30  N   UNL     1      45.609   4.647   8.599  0.00  0.00    +0.000 NA
ATOM     31  C   UNL     1      45.898   3.758   7.631  0.00  0.00    +0.000 A 
ATOM     32  C   UNL     1      45.753   2.400   7.781  0.00  0.00    +0.000 A 
ATOM     33  C   UNL     1      45.278   1.984   8.998  0.00  0.00    +0.000 A 
ATOM     34  N   UNL     1      44.957   2.825   9.995  0.00  0.00    +0.000 NA
ENDBRANCH  26  29
ENDBRANCH  24  26
ENDBRANCH  23  24
ENDBRANCH   4  23
TORSDOF 7
ENDMDL
