MODEL 1
REMARK VINA RESULT:    -7.951      0.000      0.000
REMARK INTER + INTRA:         -12.447
REMARK INTER:                 -11.204
REMARK INTRA:                  -1.243
REMARK UNBOUND:                -1.243
REMARK  Name = 
REMARK  8 active torsions:
REMARK  status: ('A' for Active; 'I' for Inactive)
REMARK    1  A    between atoms: C_1  and  O_2
REMARK    2  A    between atoms: O_2  and  C_3
REMARK    3  A    between atoms: C_10  and  C_11
REMARK    4  A    between atoms: N_13  and  C_14
REMARK    5  A    between atoms: C_14  and  C_15
REMARK    6  A    between atoms: C_18  and  C_19
REMARK    7  A    between atoms: C_19  and  C_20
REMARK    8  A    between atoms: C_20  and  N_21
REMARK                            x       y       z     vdW  Elec       q    Type
REMARK                         _______ _______ _______ _____ _____    ______ ____
ROOT
ATOM      1  C   UNL     1      47.636   6.697  12.965  0.00  0.00    +0.000 A 
ATOM      2  C   UNL     1      46.860   7.540  12.163  0.00  0.00    +0.000 A 
ATOM      3  C   UNL     1      45.549   7.196  11.822  0.00  0.00    +0.000 A 
ATOM      4  C   UNL     1      44.971   6.004  12.282  0.00  0.00    +0.000 A 
ATOM      5  C   UNL     1      45.761   5.150  13.067  0.00  0.00    +0.000 A 
ATOM      6  C   UNL     1      47.076   5.492  13.409  0.00  0.00    +0.000 A 
ENDROOT
BRANCH   1   7
ATOM      7  C   UNL     1      49.018   7.115  13.390  0.00  0.00    +0.000 C 
BRANCH   7  10
ATOM      8  C   UNL     1      48.801   7.911  15.703  0.00  0.00    +0.000 C 
ATOM      9  O   UNL     1      48.301   8.965  15.311  0.00  0.00    +0.000 OA
ATOM     10  N   UNL     1      49.192   6.946  14.814  0.00  0.00    +0.000 N 
ATOM     11  H   UNL     1      49.588   6.077  15.144  0.00  0.00    +0.000 HD
BRANCH   8  19
ATOM     12  C   UNL     1      48.652   5.068  17.655  0.00  0.00    +0.000 A 
ATOM     13  N   UNL     1      48.608   4.151  18.643  0.00  0.00    +0.000 NA
ATOM     14  C   UNL     1      48.839   4.560  19.894  0.00  0.00    +0.000 A 
ATOM     15  N   UNL     1      49.121   5.797  20.289  0.00  0.00    +0.000 NA
ATOM     16  C   UNL     1      49.141   6.681  19.277  0.00  0.00    +0.000 A 
ATOM     17  S   UNL     1      49.495   8.310  19.600  0.00  0.00    +0.000 S 
ATOM     18  C   UNL     1      49.320   8.722  17.962  0.00  0.00    +0.000 A 
ATOM     19  C   UNL     1      48.992   7.649  17.140  0.00  0.00    +0.000 A 
ATOM     20  C   UNL     1      48.904   6.423  17.929  0.00  0.00    +0.000 A 
BRANCH  12  22
ATOM     21  C   UNL     1      47.769   3.370  16.325  0.00  0.00    +0.000 C 
ATOM     22  O   UNL     1      48.419   4.640  16.364  0.00  0.00    +0.000 OA
ENDBRANCH  12  22
ENDBRANCH   8  19
ENDBRANCH   7  10
ENDBRANCH   1   7
BRANCH   4  23
ATOM     23  C   UNL     1      43.535   5.606  11.989  0.00  0.00    +0.000 C 
BRANCH  23  24
ATOM     24  C   UNL     1      43.352   4.447  10.999  0.00  0.00    +0.000 C 
BRANCH  24  25
ATOM     25  N   UNL     1      43.730   4.839   9.647  0.00  0.00    +0.000 N 
ATOM     26  C   UNL     1      44.623   3.955   9.048  0.00  0.00    +0.000 A 
ATOM     27  N   UNL     1      44.595   2.649   9.358  0.00  0.00    +0.000 NA
ATOM     28  C   UNL     1      45.488   1.844   8.742  0.00  0.00    +0.000 A 
ATOM     29  C   UNL     1      46.408   2.296   7.831  0.00  0.00    +0.000 A 
ATOM     30 CL   UNL     1      47.525   1.254   7.065  0.00  0.00    +0.000 Cl
ATOM     31  C   UNL     1      46.365   3.646   7.586  0.00  0.00    +0.000 A 
ATOM     32  N   UNL     1      45.494   4.494   8.182  0.00  0.00    +0.000 NA
ATOM     33  H   UNL     1      44.138   5.762   9.545  0.00  0.00    +0.000 HD
ENDBRANCH  24  25
ENDBRANCH  23  24
ENDBRANCH   4  23
TORSDOF 7
ENDMDL
MODEL 2
REMARK VINA RESULT:    -7.152      5.398      9.667
REMARK INTER + INTRA:         -11.322
REMARK INTER:                 -10.434
REMARK INTRA:                  -0.888
REMARK UNBOUND:                -1.243
REMARK  Name = 
REMARK  8 active torsions:
REMARK  status: ('A' for Active; 'I' for Inactive)
REMARK    1  A    between atoms: C_1  and  O_2
REMARK    2  A    between atoms: O_2  and  C_3
REMARK    3  A    between atoms: C_10  and  C_11
REMARK    4  A    between atoms: N_13  and  C_14
REMARK    5  A    between atoms: C_14  and  C_15
REMARK    6  A    between atoms: C_18  and  C_19
REMARK    7  A    between atoms: C_19  and  C_20
REMARK    8  A    between atoms: C_20  and  N_21
REMARK                            x       y       z     vdW  Elec       q    Type
REMARK                         _______ _______ _______ _____ _____    ______ ____
ROOT
ATOM      1  C   UNL     1      48.686   3.252  17.236  0.00  0.00    +0.000 A 
ATOM      2  C   UNL     1      49.353   4.348  17.793  0.00  0.00    +0.000 A 
ATOM      3  C   UNL     1      50.727   4.295  18.047  0.00  0.00    +0.000 A 
ATOM      4  C   UNL     1      51.475   3.150  17.742  0.00  0.00    +0.000 A 
ATOM      5  C   UNL     1      50.797   2.044  17.206  0.00  0.00    +0.000 A 
ATOM      6  C   UNL     1      49.420   2.095  16.951  0.00  0.00    +0.000 A 
ENDROOT
BRANCH   1   7
ATOM      7  C   UNL     1      47.223   3.349  16.894  0.00  0.00    +0.000 C 
BRANCH   7  10
ATOM      8  C   UNL     1      46.991   4.210  14.607  0.00  0.00    +0.000 C 
ATOM      9  O   UNL     1      47.222   3.094  14.145  0.00  0.00    +0.000 OA
ATOM     10  N   UNL     1      46.982   4.423  15.959  0.00  0.00    +0.000 N 
ATOM     11  H   UNL     1      46.776   5.340  16.331  0.00  0.00    +0.000 HD
BRANCH   8  19
ATOM     12  C   UNL     1      44.257   5.169  12.728  0.00  0.00    +0.000 A 
ATOM     13  N   UNL     1      43.379   5.743  11.881  0.00  0.00    +0.000 NA
ATOM     14  C   UNL     1      43.747   6.865  11.256  0.00  0.00    +0.000 A 
ATOM     15  N   UNL     1      44.905   7.504  11.381  0.00  0.00    +0.000 NA
ATOM     16  C   UNL     1      45.757   6.892  12.222  0.00  0.00    +0.000 A 
ATOM     17  S   UNL     1      47.284   7.577  12.506  0.00  0.00    +0.000 S 
ATOM     18  C   UNL     1      47.705   6.315  13.562  0.00  0.00    +0.000 A 
ATOM     19  C   UNL     1      46.711   5.355  13.722  0.00  0.00    +0.000 A 
ATOM     20  C   UNL     1      45.537   5.714  12.932  0.00  0.00    +0.000 A 
BRANCH  12  22
ATOM     21  C   UNL     1      43.692   2.922  12.473  0.00  0.00    +0.000 C 
ATOM     22  O   UNL     1      43.871   4.013  13.376  0.00  0.00    +0.000 OA
ENDBRANCH  12  22
ENDBRANCH   8  19
ENDBRANCH   7  10
ENDBRANCH   1   7
BRANCH   4  23
ATOM     23  C   UNL     1      52.978   3.056  17.945  0.00  0.00    +0.000 C 
BRANCH  23  24
ATOM     24  C   UNL     1      53.623   1.721  17.545  0.00  0.00    +0.000 C 
BRANCH  24  25
ATOM     25  N   UNL     1      53.873   0.883  18.711  0.00  0.00    +0.000 N 
ATOM     26  C   UNL     1      54.190  -0.432  18.384  0.00  0.00    +0.000 A 
ATOM     27  N   UNL     1      54.832  -0.711  17.238  0.00  0.00    +0.000 NA
ATOM     28  C   UNL     1      55.109  -2.007  16.979  0.00  0.00    +0.000 A 
ATOM     29  C   UNL     1      54.767  -3.035  17.822  0.00  0.00    +0.000 A 
ATOM     30 CL   UNL     1      55.133  -4.666  17.471  0.00  0.00    +0.000 Cl
ATOM     31  C   UNL     1      54.107  -2.652  18.964  0.00  0.00    +0.000 A 
ATOM     32  N   UNL     1      53.801  -1.368  19.264  0.00  0.00    +0.000 NA
ATOM     33  H   UNL     1      53.126   0.830  19.395  0.00  0.00    +0.000 HD
ENDBRANCH  24  25
ENDBRANCH  23  24
ENDBRANCH   4  23
TORSDOF 7
ENDMDL
MODEL 3
REMARK VINA RESULT:    -6.931      1.716      2.087
REMARK INTER + INTRA:         -11.010
REMARK INTER:                  -9.794
REMARK INTRA:                  -1.217
REMARK UNBOUND:                -1.243
REMARK  Name = 
REMARK  8 active torsions:
REMARK  status: ('A' for Active; 'I' for Inactive)
REMARK    1  A    between atoms: C_1  and  O_2
REMARK    2  A    between atoms: O_2  and  C_3
REMARK    3  A    between atoms: C_10  and  C_11
REMARK    4  A    between atoms: N_13  and  C_14
REMARK    5  A    between atoms: C_14  and  C_15
REMARK    6  A    between atoms: C_18  and  C_19
REMARK    7  A    between atoms: C_19  and  C_20
REMARK    8  A    between atoms: C_20  and  N_21
REMARK                            x       y       z     vdW  Elec       q    Type
REMARK                         _______ _______ _______ _____ _____    ______ ____
ROOT
ATOM      1  C   UNL     1      46.769   7.888  12.284  0.00  0.00    +0.000 A 
ATOM      2  C   UNL     1      45.481   8.382  12.056  0.00  0.00    +0.000 A 
ATOM      3  C   UNL     1      44.434   7.522  11.710  0.00  0.00    +0.000 A 
ATOM      4  C   UNL     1      44.644   6.141  11.593  0.00  0.00    +0.000 A 
ATOM      5  C   UNL     1      45.943   5.652  11.800  0.00  0.00    +0.000 A 
ATOM      6  C   UNL     1      46.992   6.512  12.145  0.00  0.00    +0.000 A 
ENDROOT
BRANCH   1   7
ATOM      7  C   UNL     1      47.868   8.813  12.733  0.00  0.00    +0.000 C 
BRANCH   7  10
ATOM      8  C   UNL     1      49.807   7.856  13.896  0.00  0.00    +0.000 C 
ATOM      9  O   UNL     1      50.453   7.853  12.850  0.00  0.00    +0.000 OA
ATOM     10  N   UNL     1      48.515   8.308  13.921  0.00  0.00    +0.000 N 
ATOM     11  H   UNL     1      47.995   8.322  14.788  0.00  0.00    +0.000 HD
BRANCH   8  19
ATOM     12  C   UNL     1      48.757   5.678  16.361  0.00  0.00    +0.000 A 
ATOM     13  N   UNL     1      48.581   4.935  17.472  0.00  0.00    +0.000 NA
ATOM     14  C   UNL     1      49.548   4.941  18.394  0.00  0.00    +0.000 A 
ATOM     15  N   UNL     1      50.697   5.606  18.340  0.00  0.00    +0.000 NA
ATOM     16  C   UNL     1      50.826   6.345  17.225  0.00  0.00    +0.000 A 
ATOM     17  S   UNL     1      52.239   7.254  16.986  0.00  0.00    +0.000 S 
ATOM     18  C   UNL     1      51.663   7.849  15.504  0.00  0.00    +0.000 A 
ATOM     19  C   UNL     1      50.400   7.380  15.158  0.00  0.00    +0.000 A 
ATOM     20  C   UNL     1      49.909   6.464  16.183  0.00  0.00    +0.000 A 
BRANCH  12  22
ATOM     21  C   UNL     1      47.171   4.372  15.259  0.00  0.00    +0.000 C 
ATOM     22  O   UNL     1      47.758   5.665  15.408  0.00  0.00    +0.000 OA
ENDBRANCH  12  22
ENDBRANCH   8  19
ENDBRANCH   7  10
ENDBRANCH   1   7
BRANCH   4  23
ATOM     23  C   UNL     1      43.534   5.153  11.275  0.00  0.00    +0.000 C 
BRANCH  23  24
ATOM     24  C   UNL     1      43.676   4.395   9.947  0.00  0.00    +0.000 C 
BRANCH  24  25
ATOM     25  N   UNL     1      44.543   3.233  10.089  0.00  0.00    +0.000 N 
ATOM     26  C   UNL     1      45.379   3.033   8.994  0.00  0.00    +0.000 A 
ATOM     27  N   UNL     1      45.813   4.079   8.272  0.00  0.00    +0.000 NA
ATOM     28  C   UNL     1      46.620   3.817   7.221  0.00  0.00    +0.000 A 
ATOM     29  C   UNL     1      47.007   2.551   6.864  0.00  0.00    +0.000 A 
ATOM     30 CL   UNL     1      48.032   2.249   5.531  0.00  0.00    +0.000 Cl
ATOM     31  C   UNL     1      46.506   1.547   7.656  0.00  0.00    +0.000 A 
ATOM     32  N   UNL     1      45.690   1.758   8.715  0.00  0.00    +0.000 NA
ATOM     33  H   UNL     1      44.082   2.345  10.256  0.00  0.00    +0.000 HD
ENDBRANCH  24  25
ENDBRANCH  23  24
ENDBRANCH   4  23
TORSDOF 7
ENDMDL
MODEL 4
REMARK VINA RESULT:    -6.555      4.546      5.973
REMARK INTER + INTRA:         -10.481
REMARK INTER:                  -9.532
REMARK INTRA:                  -0.949
REMARK UNBOUND:                -1.243
REMARK  Name = 
REMARK  8 active torsions:
REMARK  status: ('A' for Active; 'I' for Inactive)
REMARK    1  A    between atoms: C_1  and  O_2
REMARK    2  A    between atoms: O_2  and  C_3
REMARK    3  A    between atoms: C_10  and  C_11
REMARK    4  A    between atoms: N_13  and  C_14
REMARK    5  A    between atoms: C_14  and  C_15
REMARK    6  A    between atoms: C_18  and  C_19
REMARK    7  A    between atoms: C_19  and  C_20
REMARK    8  A    between atoms: C_20  and  N_21
REMARK                            x       y       z     vdW  Elec       q    Type
REMARK                         _______ _______ _______ _____ _____    ______ ____
ROOT
ATOM      1  C   UNL     1      47.779   8.436  12.012  0.00  0.00    +0.000 A 
ATOM      2  C   UNL     1      47.975   7.056  12.117  0.00  0.00    +0.000 A 
ATOM      3  C   UNL     1      46.897   6.194  12.338  0.00  0.00    +0.000 A 
ATOM      4  C   UNL     1      45.589   6.688  12.448  0.00  0.00    +0.000 A 
ATOM      5  C   UNL     1      45.400   8.076  12.366  0.00  0.00    +0.000 A 
ATOM      6  C   UNL     1      46.480   8.940  12.146  0.00  0.00    +0.000 A 
ENDROOT
BRANCH   1   7
ATOM      7  C   UNL     1      48.937   9.345  11.695  0.00  0.00    +0.000 C 
BRANCH   7  10
ATOM      8  C   UNL     1      51.324   9.029  11.215  0.00  0.00    +0.000 C 
ATOM      9  O   UNL     1      51.295   9.938  10.387  0.00  0.00    +0.000 OA
ATOM     10  N   UNL     1      50.196   8.667  11.901  0.00  0.00    +0.000 N 
ATOM     11  H   UNL     1      50.231   7.930  12.591  0.00  0.00    +0.000 HD
BRANCH   8  19
ATOM     12  C   UNL     1      53.141   6.632   9.519  0.00  0.00    +0.000 A 
ATOM     13  N   UNL     1      54.001   5.676   9.113  0.00  0.00    +0.000 NA
ATOM     14  C   UNL     1      55.031   5.375   9.909  0.00  0.00    +0.000 A 
ATOM     15  N   UNL     1      55.321   5.929  11.082  0.00  0.00    +0.000 NA
ATOM     16  C   UNL     1      54.433   6.865  11.456  0.00  0.00    +0.000 A 
ATOM     17  S   UNL     1      54.654   7.682  12.927  0.00  0.00    +0.000 S 
ATOM     18  C   UNL     1      53.240   8.593  12.688  0.00  0.00    +0.000 A 
ATOM     19  C   UNL     1      52.573   8.302  11.502  0.00  0.00    +0.000 A 
ATOM     20  C   UNL     1      53.302   7.279  10.757  0.00  0.00    +0.000 A 
BRANCH  12  22
ATOM     21  C   UNL     1      52.454   6.946   7.314  0.00  0.00    +0.000 C 
ATOM     22  O   UNL     1      52.081   6.943   8.692  0.00  0.00    +0.000 OA
ENDBRANCH  12  22
ENDBRANCH   8  19
ENDBRANCH   7  10
ENDBRANCH   1   7
BRANCH   4  23
ATOM     23  C   UNL     1      44.374   5.795  12.633  0.00  0.00    +0.000 C 
BRANCH  23  24
ATOM     24  C   UNL     1      44.228   4.648  11.622  0.00  0.00    +0.000 C 
BRANCH  24  25
ATOM     25  N   UNL     1      44.371   5.126  10.253  0.00  0.00    +0.000 N 
ATOM     26  C   UNL     1      45.005   4.214   9.415  0.00  0.00    +0.000 A 
ATOM     27  N   UNL     1      44.878   2.894   9.629  0.00  0.00    +0.000 NA
ATOM     28  C   UNL     1      45.519   2.061   8.781  0.00  0.00    +0.000 A 
ATOM     29  C   UNL     1      46.285   2.498   7.730  0.00  0.00    +0.000 A 
ATOM     30 CL   UNL     1      47.083   1.422   6.671  0.00  0.00    +0.000 Cl
ATOM     31  C   UNL     1      46.362   3.863   7.597  0.00  0.00    +0.000 A 
ATOM     32  N   UNL     1      45.743   4.737   8.424  0.00  0.00    +0.000 NA
ATOM     33  H   UNL     1      44.861   6.006  10.133  0.00  0.00    +0.000 HD
ENDBRANCH  24  25
ENDBRANCH  23  24
ENDBRANCH   4  23
TORSDOF 7
ENDMDL
MODEL 5
REMARK VINA RESULT:    -6.392      1.601      2.881
REMARK INTER + INTRA:         -10.251
REMARK INTER:                 -10.042
REMARK INTRA:                  -0.209
REMARK UNBOUND:                -1.243
REMARK  Name = 
REMARK  8 active torsions:
REMARK  status: ('A' for Active; 'I' for Inactive)
REMARK    1  A    between atoms: C_1  and  O_2
REMARK    2  A    between atoms: O_2  and  C_3
REMARK    3  A    between atoms: C_10  and  C_11
REMARK    4  A    between atoms: N_13  and  C_14
REMARK    5  A    between atoms: C_14  and  C_15
REMARK    6  A    between atoms: C_18  and  C_19
REMARK    7  A    between atoms: C_19  and  C_20
REMARK    8  A    between atoms: C_20  and  N_21
REMARK                            x       y       z     vdW  Elec       q    Type
REMARK                         _______ _______ _______ _____ _____    ______ ____
ROOT
ATOM      1  C   UNL     1      47.300   5.933  13.766  0.00  0.00    +0.000 A 
ATOM      2  C   UNL     1      47.365   4.537  13.722  0.00  0.00    +0.000 A 
ATOM      3  C   UNL     1      46.333   3.791  13.145  0.00  0.00    +0.000 A 
ATOM      4  C   UNL     1      45.212   4.419  12.587  0.00  0.00    +0.000 A 
ATOM      5  C   UNL     1      45.139   5.819  12.655  0.00  0.00    +0.000 A 
ATOM      6  C   UNL     1      46.172   6.569  13.233  0.00  0.00    +0.000 A 
ENDROOT
BRANCH   1   7
ATOM      7  C   UNL     1      48.452   6.729  14.317  0.00  0.00    +0.000 C 
BRANCH   7  10
ATOM      8  C   UNL     1      48.749   6.232  16.703  0.00  0.00    +0.000 C 
ATOM      9  O   UNL     1      49.379   5.212  16.430  0.00  0.00    +0.000 OA
ATOM     10  N   UNL     1      48.247   7.034  15.715  0.00  0.00    +0.000 N 
ATOM     11  H   UNL     1      47.744   7.879  15.947  0.00  0.00    +0.000 HD
BRANCH   8  19
ATOM     12  C   UNL     1      49.370   9.109  18.509  0.00  0.00    +0.000 A 
ATOM     13  N   UNL     1      49.541  10.062  19.447  0.00  0.00    +0.000 NA
ATOM     14  C   UNL     1      49.137   9.800  20.693  0.00  0.00    +0.000 A 
ATOM     15  N   UNL     1      48.565   8.682  21.127  0.00  0.00    +0.000 NA
ATOM     16  C   UNL     1      48.427   7.753  20.166  0.00  0.00    +0.000 A 
ATOM     17  S   UNL     1      47.706   6.264  20.543  0.00  0.00    +0.000 S 
ATOM     18  C   UNL     1      47.905   5.710  18.950  0.00  0.00    +0.000 A 
ATOM     19  C   UNL     1      48.516   6.629  18.103  0.00  0.00    +0.000 A 
ATOM     20  C   UNL     1      48.811   7.860  18.831  0.00  0.00    +0.000 A 
BRANCH  12  22
ATOM     21  C   UNL     1      49.016  10.428  16.620  0.00  0.00    +0.000 C 
ATOM     22  O   UNL     1      49.784   9.386  17.222  0.00  0.00    +0.000 OA
ENDBRANCH  12  22
ENDBRANCH   8  19
ENDBRANCH   7  10
ENDBRANCH   1   7
BRANCH   4  23
ATOM     23  C   UNL     1      44.088   3.663  11.899  0.00  0.00    +0.000 C 
BRANCH  23  24
ATOM     24  C   UNL     1      43.127   4.515  11.057  0.00  0.00    +0.000 C 
BRANCH  24  25
ATOM     25  N   UNL     1      43.760   4.971   9.827  0.00  0.00    +0.000 N 
ATOM     26  C   UNL     1      44.539   3.994   9.215  0.00  0.00    +0.000 A 
ATOM     27  N   UNL     1      44.216   2.695   9.334  0.00  0.00    +0.000 NA
ATOM     28  C   UNL     1      45.014   1.796   8.718  0.00  0.00    +0.000 A 
ATOM     29  C   UNL     1      46.123   2.146   7.990  0.00  0.00    +0.000 A 
ATOM     30 CL   UNL     1      47.113   0.988   7.218  0.00  0.00    +0.000 Cl
ATOM     31  C   UNL     1      46.377   3.494   7.933  0.00  0.00    +0.000 A 
ATOM     32  N   UNL     1      45.611   4.433   8.538  0.00  0.00    +0.000 NA
ATOM     33  H   UNL     1      44.349   5.793   9.902  0.00  0.00    +0.000 HD
ENDBRANCH  24  25
ENDBRANCH  23  24
ENDBRANCH   4  23
TORSDOF 7
ENDMDL
MODEL 6
REMARK VINA RESULT:    -6.097      5.304      7.538
REMARK INTER + INTRA:          -9.835
REMARK INTER:                  -8.588
REMARK INTRA:                  -1.247
REMARK UNBOUND:                -1.243
REMARK  Name = 
REMARK  8 active torsions:
REMARK  status: ('A' for Active; 'I' for Inactive)
REMARK    1  A    between atoms: C_1  and  O_2
REMARK    2  A    between atoms: O_2  and  C_3
REMARK    3  A    between atoms: C_10  and  C_11
REMARK    4  A    between atoms: N_13  and  C_14
REMARK    5  A    between atoms: C_14  and  C_15
REMARK    6  A    between atoms: C_18  and  C_19
REMARK    7  A    between atoms: C_19  and  C_20
REMARK    8  A    between atoms: C_20  and  N_21
REMARK                            x       y       z     vdW  Elec       q    Type
REMARK                         _______ _______ _______ _____ _____    ______ ____
ROOT
ATOM      1  C   UNL     1      49.625   8.756  11.549  0.00  0.00    +0.000 A 
ATOM      2  C   UNL     1      49.330   7.401  11.728  0.00  0.00    +0.000 A 
ATOM      3  C   UNL     1      48.052   6.993  12.124  0.00  0.00    +0.000 A 
ATOM      4  C   UNL     1      47.031   7.928  12.341  0.00  0.00    +0.000 A 
ATOM      5  C   UNL     1      47.339   9.288  12.184  0.00  0.00    +0.000 A 
ATOM      6  C   UNL     1      48.618   9.698  11.788  0.00  0.00    +0.000 A 
ENDROOT
BRANCH   1   7
ATOM      7  C   UNL     1      50.980   9.176  11.046  0.00  0.00    +0.000 C 
BRANCH   7  10
ATOM      8  C   UNL     1      53.084   8.069  10.430  0.00  0.00    +0.000 C 
ATOM      9  O   UNL     1      53.722   9.075  10.737  0.00  0.00    +0.000 OA
ATOM     10  N   UNL     1      51.720   8.041  10.545  0.00  0.00    +0.000 N 
ATOM     11  H   UNL     1      51.204   7.205  10.307  0.00  0.00    +0.000 HD
BRANCH   8  19
ATOM     12  C   UNL     1      52.957   6.298   7.469  0.00  0.00    +0.000 A 
ATOM     13  N   UNL     1      53.065   5.405   6.464  0.00  0.00    +0.000 NA
ATOM     14  C   UNL     1      53.891   4.368   6.630  0.00  0.00    +0.000 A 
ATOM     15  N   UNL     1      54.643   4.109   7.694  0.00  0.00    +0.000 NA
ATOM     16  C   UNL     1      54.495   5.013   8.677  0.00  0.00    +0.000 A 
ATOM     17  S   UNL     1      55.389   4.842  10.109  0.00  0.00    +0.000 S 
ATOM     18  C   UNL     1      54.683   6.238  10.772  0.00  0.00    +0.000 A 
ATOM     19  C   UNL     1      53.763   6.860   9.935  0.00  0.00    +0.000 A 
ATOM     20  C   UNL     1      53.666   6.133   8.671  0.00  0.00    +0.000 A 
BRANCH  12  22
ATOM     21  C   UNL     1      52.683   8.387   6.471  0.00  0.00    +0.000 C 
ATOM     22  O   UNL     1      52.107   7.371   7.292  0.00  0.00    +0.000 OA
ENDBRANCH  12  22
ENDBRANCH   8  19
ENDBRANCH   7  10
ENDBRANCH   1   7
BRANCH   4  23
ATOM     23  C   UNL     1      45.611   7.540  12.719  0.00  0.00    +0.000 C 
BRANCH  23  24
ATOM     24  C   UNL     1      44.742   6.996  11.576  0.00  0.00    +0.000 C 
BRANCH  24  25
ATOM     25  N   UNL     1      44.667   5.541  11.612  0.00  0.00    +0.000 N 
ATOM     26  C   UNL     1      45.004   4.943  10.402  0.00  0.00    +0.000 A 
ATOM     27  N   UNL     1      45.897   5.524   9.583  0.00  0.00    +0.000 NA
ATOM     28  C   UNL     1      46.180   4.893   8.423  0.00  0.00    +0.000 A 
ATOM     29  C   UNL     1      45.603   3.705   8.049  0.00  0.00    +0.000 A 
ATOM     30 CL   UNL     1      45.982   2.928   6.576  0.00  0.00    +0.000 Cl
ATOM     31  C   UNL     1      44.698   3.194   8.946  0.00  0.00    +0.000 A 
ATOM     32  N   UNL     1      44.377   3.791  10.118  0.00  0.00    +0.000 NA
ATOM     33  H   UNL     1      43.773   5.144  11.882  0.00  0.00    +0.000 HD
ENDBRANCH  24  25
ENDBRANCH  23  24
ENDBRANCH   4  23
TORSDOF 7
ENDMDL
MODEL 7
REMARK VINA RESULT:    -6.029      3.422      8.211
REMARK INTER + INTRA:          -9.739
REMARK INTER:                  -8.333
REMARK INTRA:                  -1.406
REMARK UNBOUND:                -1.243
REMARK  Name = 
REMARK  8 active torsions:
REMARK  status: ('A' for Active; 'I' for Inactive)
REMARK    1  A    between atoms: C_1  and  O_2
REMARK    2  A    between atoms: O_2  and  C_3
REMARK    3  A    between atoms: C_10  and  C_11
REMARK    4  A    between atoms: N_13  and  C_14
REMARK    5  A    between atoms: C_14  and  C_15
REMARK    6  A    between atoms: C_18  and  C_19
REMARK    7  A    between atoms: C_19  and  C_20
REMARK    8  A    between atoms: C_20  and  N_21
REMARK                            x       y       z     vdW  Elec       q    Type
REMARK                         _______ _______ _______ _____ _____    ______ ____
ROOT
ATOM      1  C   UNL     1      49.423   8.683  15.365  0.00  0.00    +0.000 A 
ATOM      2  C   UNL     1      48.311   8.953  16.168  0.00  0.00    +0.000 A 
ATOM      3  C   UNL     1      48.401   8.889  17.562  0.00  0.00    +0.000 A 
ATOM      4  C   UNL     1      49.610   8.565  18.193  0.00  0.00    +0.000 A 
ATOM      5  C   UNL     1      50.718   8.271  17.382  0.00  0.00    +0.000 A 
ATOM      6  C   UNL     1      50.628   8.333  15.986  0.00  0.00    +0.000 A 
ENDROOT
BRANCH   1   7
ATOM      7  C   UNL     1      49.332   8.832  13.870  0.00  0.00    +0.000 C 
BRANCH   7  10
ATOM      8  C   UNL     1      47.907   7.067  12.931  0.00  0.00    +0.000 C 
ATOM      9  O   UNL     1      48.857   6.285  12.917  0.00  0.00    +0.000 OA
ATOM     10  N   UNL     1      48.062   8.351  13.379  0.00  0.00    +0.000 N 
ATOM     11  H   UNL     1      47.274   8.983  13.403  0.00  0.00    +0.000 HD
BRANCH   8  19
ATOM     12  C   UNL     1      46.138   4.107  13.097  0.00  0.00    +0.000 A 
ATOM     13  N   UNL     1      45.261   3.089  12.975  0.00  0.00    +0.000 NA
ATOM     14  C   UNL     1      44.109   3.322  12.341  0.00  0.00    +0.000 A 
ATOM     15  N   UNL     1      43.710   4.473  11.809  0.00  0.00    +0.000 NA
ATOM     16  C   UNL     1      44.617   5.456  11.940  0.00  0.00    +0.000 A 
ATOM     17  S   UNL     1      44.268   6.999  11.324  0.00  0.00    +0.000 S 
ATOM     18  C   UNL     1      45.776   7.593  11.831  0.00  0.00    +0.000 A 
ATOM     19  C   UNL     1      46.572   6.649  12.470  0.00  0.00    +0.000 A 
ATOM     20  C   UNL     1      45.866   5.373  12.551  0.00  0.00    +0.000 A 
BRANCH  12  22
ATOM     21  C   UNL     1      47.227   4.120  15.158  0.00  0.00    +0.000 C 
ATOM     22  O   UNL     1      47.325   3.863  13.758  0.00  0.00    +0.000 OA
ENDBRANCH  12  22
ENDBRANCH   8  19
ENDBRANCH   7  10
ENDBRANCH   1   7
BRANCH   4  23
ATOM     23  C   UNL     1      49.782   8.535  19.702  0.00  0.00    +0.000 C 
BRANCH  23  24
ATOM     24  C   UNL     1      50.577   7.345  20.260  0.00  0.00    +0.000 C 
BRANCH  24  25
ATOM     25  N   UNL     1      49.702   6.224  20.578  0.00  0.00    +0.000 N 
ATOM     26  C   UNL     1      49.754   5.202  19.635  0.00  0.00    +0.000 A 
ATOM     27  N   UNL     1      50.887   4.964  18.954  0.00  0.00    +0.000 NA
ATOM     28  C   UNL     1      50.872   3.958  18.053  0.00  0.00    +0.000 A 
ATOM     29  C   UNL     1      49.768   3.183  17.805  0.00  0.00    +0.000 A 
ATOM     30 CL   UNL     1      49.778   1.915  16.662  0.00  0.00    +0.000 Cl
ATOM     31  C   UNL     1      48.656   3.506  18.544  0.00  0.00    +0.000 A 
ATOM     32  N   UNL     1      48.620   4.508  19.454  0.00  0.00    +0.000 NA
ATOM     33  H   UNL     1      48.719   6.442  20.701  0.00  0.00    +0.000 HD
ENDBRANCH  24  25
ENDBRANCH  23  24
ENDBRANCH   4  23
TORSDOF 7
ENDMDL
MODEL 8
REMARK VINA RESULT:    -5.942      2.734      3.571
REMARK INTER + INTRA:          -9.617
REMARK INTER:                  -8.276
REMARK INTRA:                  -1.341
REMARK UNBOUND:                -1.243
REMARK  Name = 
REMARK  8 active torsions:
REMARK  status: ('A' for Active; 'I' for Inactive)
REMARK    1  A    between atoms: C_1  and  O_2
REMARK    2  A    between atoms: O_2  and  C_3
REMARK    3  A    between atoms: C_10  and  C_11
REMARK    4  A    between atoms: N_13  and  C_14
REMARK    5  A    between atoms: C_14  and  C_15
REMARK    6  A    between atoms: C_18  and  C_19
REMARK    7  A    between atoms: C_19  and  C_20
REMARK    8  A    between atoms: C_20  and  N_21
REMARK                            x       y       z     vdW  Elec       q    Type
REMARK                         _______ _______ _______ _____ _____    ______ ____
ROOT
ATOM      1  C   UNL     1      47.629   8.705  12.007  0.00  0.00    +0.000 A 
ATOM      2  C   UNL     1      46.369   9.231  12.309  0.00  0.00    +0.000 A 
ATOM      3  C   UNL     1      45.272   8.389  12.511  0.00  0.00    +0.000 A 
ATOM      4  C   UNL     1      45.405   6.996  12.428  0.00  0.00    +0.000 A 
ATOM      5  C   UNL     1      46.666   6.474  12.100  0.00  0.00    +0.000 A 
ATOM      6  C   UNL     1      47.766   7.316  11.896  0.00  0.00    +0.000 A 
ENDROOT
BRANCH   1   7
ATOM      7  C   UNL     1      48.818   9.618  11.870  0.00  0.00    +0.000 C 
BRANCH   7  10
ATOM      8  C   UNL     1      51.022   8.742  12.507  0.00  0.00    +0.000 C 
ATOM      9  O   UNL     1      51.270   8.468  11.334  0.00  0.00    +0.000 OA
ATOM     10  N   UNL     1      49.825   9.306  12.858  0.00  0.00    +0.000 N 
ATOM     11  H   UNL     1      49.633   9.543  13.822  0.00  0.00    +0.000 HD
BRANCH   8  19
ATOM     12  C   UNL     1      50.758   7.865  15.836  0.00  0.00    +0.000 A 
ATOM     13  N   UNL     1      50.947   7.581  17.141  0.00  0.00    +0.000 NA
ATOM     14  C   UNL     1      52.201   7.523  17.598  0.00  0.00    +0.000 A 
ATOM     15  N   UNL     1      53.315   7.709  16.898  0.00  0.00    +0.000 NA
ATOM     16  C   UNL     1      53.082   8.004  15.607  0.00  0.00    +0.000 A 
ATOM     17  S   UNL     1      54.394   8.265  14.563  0.00  0.00    +0.000 S 
ATOM     18  C   UNL     1      53.354   8.566  13.255  0.00  0.00    +0.000 A 
ATOM     19  C   UNL     1      52.003   8.478  13.574  0.00  0.00    +0.000 A 
ATOM     20  C   UNL     1      51.844   8.122  14.981  0.00  0.00    +0.000 A 
BRANCH  12  22
ATOM     21  C   UNL     1      48.811   6.651  15.429  0.00  0.00    +0.000 C 
ATOM     22  O   UNL     1      49.462   7.920  15.367  0.00  0.00    +0.000 OA
ENDBRANCH  12  22
ENDBRANCH   8  19
ENDBRANCH   7  10
ENDBRANCH   1   7
BRANCH   4  23
ATOM     23  C   UNL     1      44.262   6.031  12.692  0.00  0.00    +0.000 C 
BRANCH  23  24
ATOM     24  C   UNL     1      43.714   5.293  11.462  0.00  0.00    +0.000 C 
BRANCH  24  25
ATOM     25  N   UNL     1      44.291   3.961  11.340  0.00  0.00    +0.000 N 
ATOM     26  C   UNL     1      44.839   3.711  10.086  0.00  0.00    +0.000 A 
ATOM     27  N   UNL     1      45.369   4.714   9.365  0.00  0.00    +0.000 NA
ATOM     28  C   UNL     1      45.884   4.406   8.155  0.00  0.00    +0.000 A 
ATOM     29  C   UNL     1      45.887   3.135   7.637  0.00  0.00    +0.000 A 
ATOM     30 CL   UNL     1      46.548   2.774   6.104  0.00  0.00    +0.000 Cl
ATOM     31  C   UNL     1      45.317   2.180   8.443  0.00  0.00    +0.000 A 
ATOM     32  N   UNL     1      44.783   2.441   9.660  0.00  0.00    +0.000 NA
ATOM     33  H   UNL     1      43.671   3.182  11.535  0.00  0.00    +0.000 HD
ENDBRANCH  24  25
ENDBRANCH  23  24
ENDBRANCH   4  23
TORSDOF 7
ENDMDL
MODEL 9
REMARK VINA RESULT:    -5.816      4.067      9.339
REMARK INTER + INTRA:          -9.439
REMARK INTER:                  -8.134
REMARK INTRA:                  -1.305
REMARK UNBOUND:                -1.243
REMARK  Name = 
REMARK  8 active torsions:
REMARK  status: ('A' for Active; 'I' for Inactive)
REMARK    1  A    between atoms: C_1  and  O_2
REMARK    2  A    between atoms: O_2  and  C_3
REMARK    3  A    between atoms: C_10  and  C_11
REMARK    4  A    between atoms: N_13  and  C_14
REMARK    5  A    between atoms: C_14  and  C_15
REMARK    6  A    between atoms: C_18  and  C_19
REMARK    7  A    between atoms: C_19  and  C_20
REMARK    8  A    between atoms: C_20  and  N_21
REMARK                            x       y       z     vdW  Elec       q    Type
REMARK                         _______ _______ _______ _____ _____    ______ ____
ROOT
ATOM      1  C   UNL     1      48.208   4.632  17.345  0.00  0.00    +0.000 A 
ATOM      2  C   UNL     1      48.652   5.907  16.983  0.00  0.00    +0.000 A 
ATOM      3  C   UNL     1      49.366   6.700  17.886  0.00  0.00    +0.000 A 
ATOM      4  C   UNL     1      49.667   6.236  19.173  0.00  0.00    +0.000 A 
ATOM      5  C   UNL     1      49.199   4.965  19.541  0.00  0.00    +0.000 A 
ATOM      6  C   UNL     1      48.483   4.170  18.638  0.00  0.00    +0.000 A 
ENDROOT
BRANCH   1   7
ATOM      7  C   UNL     1      47.509   3.758  16.339  0.00  0.00    +0.000 C 
BRANCH   7  10
ATOM      8  C   UNL     1      46.603   4.197  14.099  0.00  0.00    +0.000 C 
ATOM      9  O   UNL     1      47.160   3.193  13.659  0.00  0.00    +0.000 OA
ATOM     10  N   UNL     1      46.734   4.553  15.415  0.00  0.00    +0.000 N 
ATOM     11  H   UNL     1      46.261   5.371  15.773  0.00  0.00    +0.000 HD
BRANCH   8  19
ATOM     12  C   UNL     1      46.741   7.521  13.173  0.00  0.00    +0.000 A 
ATOM     13  N   UNL     1      46.525   8.765  12.699  0.00  0.00    +0.000 NA
ATOM     14  C   UNL     1      45.464   8.964  11.912  0.00  0.00    +0.000 A 
ATOM     15  N   UNL     1      44.576   8.054  11.526  0.00  0.00    +0.000 NA
ATOM     16  C   UNL     1      44.819   6.833  12.032  0.00  0.00    +0.000 A 
ATOM     17  S   UNL     1      43.787   5.545  11.634  0.00  0.00    +0.000 S 
ATOM     18  C   UNL     1      44.684   4.468  12.592  0.00  0.00    +0.000 A 
ATOM     19  C   UNL     1      45.774   5.050  13.230  0.00  0.00    +0.000 A 
ATOM     20  C   UNL     1      45.863   6.464  12.877  0.00  0.00    +0.000 A 
BRANCH  12  22
ATOM     21  C   UNL     1      49.002   6.957  13.232  0.00  0.00    +0.000 C 
ATOM     22  O   UNL     1      47.842   7.319  13.981  0.00  0.00    +0.000 OA
ENDBRANCH  12  22
ENDBRANCH   8  19
ENDBRANCH   7  10
ENDBRANCH   1   7
BRANCH   4  23
ATOM     23  C   UNL     1      50.487   7.030  20.176  0.00  0.00    +0.000 C 
BRANCH  23  24
ATOM     24  C   UNL     1      52.008   7.003  19.966  0.00  0.00    +0.000 C 
BRANCH  24  25
ATOM     25  N   UNL     1      52.612   5.842  20.607  0.00  0.00    +0.000 N 
ATOM     26  C   UNL     1      53.188   4.953  19.705  0.00  0.00    +0.000 A 
ATOM     27  N   UNL     1      53.714   5.401  18.553  0.00  0.00    +0.000 NA
ATOM     28  C   UNL     1      54.257   4.487  17.720  0.00  0.00    +0.000 A 
ATOM     29  C   UNL     1      54.293   3.143  17.994  0.00  0.00    +0.000 A 
ATOM     30 CL   UNL     1      54.989   2.009  16.923  0.00  0.00    +0.000 Cl
ATOM     31  C   UNL     1      53.724   2.781  19.191  0.00  0.00    +0.000 A 
ATOM     32  N   UNL     1      53.162   3.658  20.055  0.00  0.00    +0.000 NA
ATOM     33  H   UNL     1      52.002   5.287  21.198  0.00  0.00    +0.000 HD
ENDBRANCH  24  25
ENDBRANCH  23  24
ENDBRANCH   4  23
TORSDOF 7
ENDMDL
