MODEL 1
REMARK VINA RESULT:    -8.460      0.000      0.000
REMARK INTER + INTRA:         -12.445
REMARK INTER:                 -11.675
REMARK INTRA:                  -0.770
REMARK UNBOUND:                -0.770
REMARK  Name = 
REMARK  8 active torsions:
REMARK  status: ('A' for Active; 'I' for Inactive)
REMARK    1  A    between atoms: C_1  and  O_2
REMARK    2  A    between atoms: O_2  and  C_3
REMARK    3  A    between atoms: C_5  and  C_6
REMARK    4  A    between atoms: C_6  and  O_7
REMARK    5  A    between atoms: C_6  and  C_8
REMARK    6  A    between atoms: C_8  and  N_9
REMARK    7  A    between atoms: N_9  and  C_10
REMARK    8  A    between atoms: C_13  and  C_14
REMARK                            x       y       z     vdW  Elec       q    Type
REMARK                         _______ _______ _______ _____ _____    ______ ____
ROOT
ATOM      1  N   UNL     1      43.617   4.795   9.918  0.00  0.00    +0.000 N 
ATOM      2  H   UNL     1      43.911   5.770   9.864  0.00  0.00    +0.000 HD
ENDROOT
BRANCH   1   3
ATOM      3  C   UNL     1      44.560   3.960   9.290  0.00  0.00    +0.000 A 
ATOM      4  C   UNL     1      44.549   2.567   9.421  0.00  0.00    +0.000 A 
ATOM      5  C   UNL     1      45.459   1.761   8.726  0.00  0.00    +0.000 A 
ATOM      6  C   UNL     1      46.379   2.338   7.848  0.00  0.00    +0.000 A 
ATOM      7  C   UNL     1      46.390   3.723   7.679  0.00  0.00    +0.000 A 
ATOM      8  C   UNL     1      45.476   4.522   8.386  0.00  0.00    +0.000 A 
BRANCH   6   9
ATOM      9  C   UNL     1      47.313   1.428   7.131  0.00  0.00    +0.000 C 
ATOM     10  N   UNL     1      48.400   1.989   6.520  0.00  0.00    +0.000 N 
ATOM     11  O   UNL     1      47.098   0.228   7.047  0.00  0.00    +0.000 OA
ATOM     12  H   UNL     1      48.478   2.981   6.357  0.00  0.00    +0.000 HD
ATOM     13  H   UNL     1      48.940   1.368   5.933  0.00  0.00    +0.000 HD
ENDBRANCH   6   9
ENDBRANCH   1   3
BRANCH   1  14
ATOM     14  C   UNL     1      43.200   4.412  11.285  0.00  0.00    +0.000 C 
BRANCH  14  15
ATOM     15  C   UNL     1      43.700   5.423  12.346  0.00  0.00    +0.000 C 
BRANCH  15  18
ATOM     16  C   UNL     1      47.033   4.281  13.813  0.00  0.00    +0.000 A 
ATOM     17  C   UNL     1      45.678   4.278  13.499  0.00  0.00    +0.000 A 
ATOM     18  C   UNL     1      45.160   5.337  12.745  0.00  0.00    +0.000 A 
ATOM     19  C   UNL     1      46.035   6.375  12.397  0.00  0.00    +0.000 A 
ATOM     20  C   UNL     1      47.369   6.287  12.755  0.00  0.00    +0.000 A 
ATOM     21  N   UNL     1      47.888   5.257  13.446  0.00  0.00    +0.000 NA
BRANCH  16  23
ATOM     22  C   UNL     1      47.610   3.510  15.936  0.00  0.00    +0.000 C 
ATOM     23  O   UNL     1      47.493   3.208  14.548  0.00  0.00    +0.000 OA
ENDBRANCH  16  23
ENDBRANCH  15  18
BRANCH  15  24
ATOM     24  O   UNL     1      43.436   6.748  11.860  0.00  0.00    +0.000 OA
ATOM     25  H   UNL     1      44.315   7.149  11.720  0.00  0.00    +0.000 HD
ENDBRANCH  15  24
ENDBRANCH  14  15
ENDBRANCH   1  14
TORSDOF 7
ENDMDL
MODEL 2
REMARK VINA RESULT:    -8.086      1.505      2.477
REMARK INTER + INTRA:         -11.929
REMARK INTER:                 -11.233
REMARK INTRA:                  -0.696
REMARK UNBOUND:                -0.770
REMARK  Name = 
REMARK  8 active torsions:
REMARK  status: ('A' for Active; 'I' for Inactive)
REMARK    1  A    between atoms: C_1  and  O_2
REMARK    2  A    between atoms: O_2  and  C_3
REMARK    3  A    between atoms: C_5  and  C_6
REMARK    4  A    between atoms: C_6  and  O_7
REMARK    5  A    between atoms: C_6  and  C_8
REMARK    6  A    between atoms: C_8  and  N_9
REMARK    7  A    between atoms: N_9  and  C_10
REMARK    8  A    between atoms: C_13  and  C_14
REMARK                            x       y       z     vdW  Elec       q    Type
REMARK                         _______ _______ _______ _____ _____    ______ ____
ROOT
ATOM      1  N   UNL     1      43.787   4.737  10.180  0.00  0.00    +0.000 N 
ATOM      2  H   UNL     1      44.243   5.591  10.500  0.00  0.00    +0.000 HD
ENDROOT
BRANCH   1   3
ATOM      3  C   UNL     1      44.644   4.007   9.335  0.00  0.00    +0.000 A 
ATOM      4  C   UNL     1      45.564   4.616   8.474  0.00  0.00    +0.000 A 
ATOM      5  C   UNL     1      46.449   3.860   7.698  0.00  0.00    +0.000 A 
ATOM      6  C   UNL     1      46.460   2.467   7.802  0.00  0.00    +0.000 A 
ATOM      7  C   UNL     1      45.571   1.838   8.675  0.00  0.00    +0.000 A 
ATOM      8  C   UNL     1      44.683   2.607   9.444  0.00  0.00    +0.000 A 
BRANCH   6   9
ATOM      9  C   UNL     1      47.431   1.719   6.959  0.00  0.00    +0.000 C 
ATOM     10  N   UNL     1      48.490   2.414   6.442  0.00  0.00    +0.000 N 
ATOM     11  O   UNL     1      47.271   0.536   6.696  0.00  0.00    +0.000 OA
ATOM     12  H   UNL     1      48.522   3.422   6.430  0.00  0.00    +0.000 HD
ATOM     13  H   UNL     1      49.056   1.914   5.770  0.00  0.00    +0.000 HD
ENDBRANCH   6   9
ENDBRANCH   1   3
BRANCH   1  14
ATOM     14  C   UNL     1      43.158   3.989  11.291  0.00  0.00    +0.000 C 
BRANCH  14  15
ATOM     15  C   UNL     1      43.407   4.671  12.659  0.00  0.00    +0.000 C 
BRANCH  15  18
ATOM     16  C   UNL     1      46.394   7.024  12.989  0.00  0.00    +0.000 A 
ATOM     17  C   UNL     1      45.096   6.594  12.734  0.00  0.00    +0.000 A 
ATOM     18  C   UNL     1      44.792   5.239  12.904  0.00  0.00    +0.000 A 
ATOM     19  C   UNL     1      45.837   4.378  13.267  0.00  0.00    +0.000 A 
ATOM     20  C   UNL     1      47.097   4.903  13.500  0.00  0.00    +0.000 A 
ATOM     21  N   UNL     1      47.394   6.208  13.379  0.00  0.00    +0.000 NA
BRANCH  16  23
ATOM     22  C   UNL     1      45.437   9.120  12.631  0.00  0.00    +0.000 C 
ATOM     23  O   UNL     1      46.636   8.372  12.818  0.00  0.00    +0.000 OA
ENDBRANCH  16  23
ENDBRANCH  15  18
BRANCH  15  24
ATOM     24  O   UNL     1      42.446   5.727  12.813  0.00  0.00    +0.000 OA
ATOM     25  H   UNL     1      42.209   5.721  13.760  0.00  0.00    +0.000 HD
ENDBRANCH  15  24
ENDBRANCH  14  15
ENDBRANCH   1  14
TORSDOF 7
ENDMDL
MODEL 3
REMARK VINA RESULT:    -7.998      0.933      1.381
REMARK INTER + INTRA:         -11.808
REMARK INTER:                 -11.198
REMARK INTRA:                  -0.610
REMARK UNBOUND:                -0.770
REMARK  Name = 
REMARK  8 active torsions:
REMARK  status: ('A' for Active; 'I' for Inactive)
REMARK    1  A    between atoms: C_1  and  O_2
REMARK    2  A    between atoms: O_2  and  C_3
REMARK    3  A    between atoms: C_5  and  C_6
REMARK    4  A    between atoms: C_6  and  O_7
REMARK    5  A    between atoms: C_6  and  C_8
REMARK    6  A    between atoms: C_8  and  N_9
REMARK    7  A    between atoms: N_9  and  C_10
REMARK    8  A    between atoms: C_13  and  C_14
REMARK                            x       y       z     vdW  Elec       q    Type
REMARK                         _______ _______ _______ _____ _____    ______ ____
ROOT
ATOM      1  N   UNL     1      44.090   3.705  10.617  0.00  0.00    +0.000 N 
ATOM      2  H   UNL     1      43.464   2.932  10.841  0.00  0.00    +0.000 HD
ENDROOT
BRANCH   1   3
ATOM      3  C   UNL     1      44.887   3.387   9.501  0.00  0.00    +0.000 A 
ATOM      4  C   UNL     1      45.488   4.359   8.693  0.00  0.00    +0.000 A 
ATOM      5  C   UNL     1      46.331   4.006   7.633  0.00  0.00    +0.000 A 
ATOM      6  C   UNL     1      46.625   2.664   7.385  0.00  0.00    +0.000 A 
ATOM      7  C   UNL     1      46.060   1.678   8.196  0.00  0.00    +0.000 A 
ATOM      8  C   UNL     1      45.210   2.043   9.253  0.00  0.00    +0.000 A 
BRANCH   6   9
ATOM      9  C   UNL     1      47.536   2.354   6.251  0.00  0.00    +0.000 C 
ATOM     10  N   UNL     1      47.407   3.098   5.111  0.00  0.00    +0.000 N 
ATOM     11  O   UNL     1      48.342   1.437   6.311  0.00  0.00    +0.000 OA
ATOM     12  H   UNL     1      46.605   3.684   4.935  0.00  0.00    +0.000 HD
ATOM     13  H   UNL     1      47.944   2.780   4.317  0.00  0.00    +0.000 HD
ENDBRANCH   6   9
ENDBRANCH   1   3
BRANCH   1  14
ATOM     14  C   UNL     1      43.382   5.004  10.576  0.00  0.00    +0.000 C 
BRANCH  14  15
ATOM     15  C   UNL     1      43.765   5.908  11.773  0.00  0.00    +0.000 C 
BRANCH  15  18
ATOM     16  C   UNL     1      46.682   4.651  13.889  0.00  0.00    +0.000 A 
ATOM     17  C   UNL     1      45.387   4.775  13.398  0.00  0.00    +0.000 A 
ATOM     18  C   UNL     1      45.140   5.702  12.379  0.00  0.00    +0.000 A 
ATOM     19  C   UNL     1      46.211   6.498  11.952  0.00  0.00    +0.000 A 
ATOM     20  C   UNL     1      47.466   6.299  12.502  0.00  0.00    +0.000 A 
ATOM     21  N   UNL     1      47.725   5.386  13.453  0.00  0.00    +0.000 NA
BRANCH  16  23
ATOM     22  C   UNL     1      47.363   4.294  16.090  0.00  0.00    +0.000 C 
ATOM     23  O   UNL     1      46.872   3.714  14.884  0.00  0.00    +0.000 OA
ENDBRANCH  16  23
ENDBRANCH  15  18
BRANCH  15  24
ATOM     24  O   UNL     1      43.651   7.277  11.353  0.00  0.00    +0.000 OA
ATOM     25  H   UNL     1      43.110   7.251  10.541  0.00  0.00    +0.000 HD
ENDBRANCH  15  24
ENDBRANCH  14  15
ENDBRANCH   1  14
TORSDOF 7
ENDMDL
MODEL 4
REMARK VINA RESULT:    -7.479      1.598      1.825
REMARK INTER + INTRA:         -11.091
REMARK INTER:                 -10.375
REMARK INTRA:                  -0.716
REMARK UNBOUND:                -0.770
REMARK  Name = 
REMARK  8 active torsions:
REMARK  status: ('A' for Active; 'I' for Inactive)
REMARK    1  A    between atoms: C_1  and  O_2
REMARK    2  A    between atoms: O_2  and  C_3
REMARK    3  A    between atoms: C_5  and  C_6
REMARK    4  A    between atoms: C_6  and  O_7
REMARK    5  A    between atoms: C_6  and  C_8
REMARK    6  A    between atoms: C_8  and  N_9
REMARK    7  A    between atoms: N_9  and  C_10
REMARK    8  A    between atoms: C_13  and  C_14
REMARK                            x       y       z     vdW  Elec       q    Type
REMARK                         _______ _______ _______ _____ _____    ______ ____
ROOT
ATOM      1  N   UNL     1      43.633   4.104  10.237  0.00  0.00    +0.000 N 
ATOM      2  H   UNL     1      42.862   4.480   9.685  0.00  0.00    +0.000 HD
ENDROOT
BRANCH   1   3
ATOM      3  C   UNL     1      44.653   3.621   9.396  0.00  0.00    +0.000 A 
ATOM      4  C   UNL     1      44.940   2.258   9.254  0.00  0.00    +0.000 A 
ATOM      5  C   UNL     1      45.914   1.808   8.356  0.00  0.00    +0.000 A 
ATOM      6  C   UNL     1      46.597   2.717   7.546  0.00  0.00    +0.000 A 
ATOM      7  C   UNL     1      46.307   4.079   7.649  0.00  0.00    +0.000 A 
ATOM      8  C   UNL     1      45.332   4.520   8.558  0.00  0.00    +0.000 A 
BRANCH   6   9
ATOM      9  C   UNL     1      47.613   2.176   6.604  0.00  0.00    +0.000 C 
ATOM     10  N   UNL     1      47.911   2.919   5.496  0.00  0.00    +0.000 N 
ATOM     11  O   UNL     1      48.134   1.084   6.784  0.00  0.00    +0.000 OA
ATOM     12  H   UNL     1      47.335   3.688   5.188  0.00  0.00    +0.000 HD
ATOM     13  H   UNL     1      48.502   2.467   4.811  0.00  0.00    +0.000 HD
ENDBRANCH   6   9
ENDBRANCH   1   3
BRANCH   1  14
ATOM     14  C   UNL     1      44.047   5.027  11.317  0.00  0.00    +0.000 C 
BRANCH  14  15
ATOM     15  C   UNL     1      45.233   4.461  12.137  0.00  0.00    +0.000 C 
BRANCH  15  18
ATOM     16  C   UNL     1      48.107   6.278  13.869  0.00  0.00    +0.000 A 
ATOM     17  C   UNL     1      47.080   5.364  13.662  0.00  0.00    +0.000 A 
ATOM     18  C   UNL     1      46.365   5.416  12.461  0.00  0.00    +0.000 A 
ATOM     19  C   UNL     1      46.692   6.434  11.554  0.00  0.00    +0.000 A 
ATOM     20  C   UNL     1      47.733   7.297  11.850  0.00  0.00    +0.000 A 
ATOM     21  N   UNL     1      48.453   7.234  12.983  0.00  0.00    +0.000 NA
BRANCH  16  23
ATOM     22  C   UNL     1      49.583   7.324  15.340  0.00  0.00    +0.000 C 
ATOM     23  O   UNL     1      48.787   6.174  15.065  0.00  0.00    +0.000 OA
ENDBRANCH  16  23
ENDBRANCH  15  18
BRANCH  15  24
ATOM     24  O   UNL     1      44.714   3.932  13.367  0.00  0.00    +0.000 OA
ATOM     25  H   UNL     1      44.279   3.093  13.122  0.00  0.00    +0.000 HD
ENDBRANCH  15  24
ENDBRANCH  14  15
ENDBRANCH   1  14
TORSDOF 7
ENDMDL
MODEL 5
REMARK VINA RESULT:    -7.221      2.128      5.816
REMARK INTER + INTRA:         -10.735
REMARK INTER:                  -9.754
REMARK INTRA:                  -0.982
REMARK UNBOUND:                -0.770
REMARK  Name = 
REMARK  8 active torsions:
REMARK  status: ('A' for Active; 'I' for Inactive)
REMARK    1  A    between atoms: C_1  and  O_2
REMARK    2  A    between atoms: O_2  and  C_3
REMARK    3  A    between atoms: C_5  and  C_6
REMARK    4  A    between atoms: C_6  and  O_7
REMARK    5  A    between atoms: C_6  and  C_8
REMARK    6  A    between atoms: C_8  and  N_9
REMARK    7  A    between atoms: N_9  and  C_10
REMARK    8  A    between atoms: C_13  and  C_14
REMARK                            x       y       z     vdW  Elec       q    Type
REMARK                         _______ _______ _______ _____ _____    ______ ____
ROOT
ATOM      1  N   UNL     1      43.659   5.176  13.085  0.00  0.00    +0.000 N 
ATOM      2  H   UNL     1      43.760   4.383  13.720  0.00  0.00    +0.000 HD
ENDROOT
BRANCH   1   3
ATOM      3  C   UNL     1      44.897   5.822  12.904  0.00  0.00    +0.000 A 
ATOM      4  C   UNL     1      46.113   5.265  13.315  0.00  0.00    +0.000 A 
ATOM      5  C   UNL     1      47.332   5.903  13.057  0.00  0.00    +0.000 A 
ATOM      6  C   UNL     1      47.359   7.101  12.340  0.00  0.00    +0.000 A 
ATOM      7  C   UNL     1      46.161   7.661  11.895  0.00  0.00    +0.000 A 
ATOM      8  C   UNL     1      44.943   7.015  12.165  0.00  0.00    +0.000 A 
BRANCH   6   9
ATOM      9  C   UNL     1      48.686   7.725  12.088  0.00  0.00    +0.000 C 
ATOM     10  N   UNL     1      49.800   6.999  12.406  0.00  0.00    +0.000 N 
ATOM     11  O   UNL     1      48.785   8.865  11.657  0.00  0.00    +0.000 OA
ATOM     12  H   UNL     1      49.761   6.173  12.983  0.00  0.00    +0.000 HD
ATOM     13  H   UNL     1      50.678   7.496  12.349  0.00  0.00    +0.000 HD
ENDBRANCH   6   9
ENDBRANCH   1   3
BRANCH   1  14
ATOM     14  C   UNL     1      42.914   4.818  11.858  0.00  0.00    +0.000 C 
BRANCH  14  15
ATOM     15  C   UNL     1      43.262   3.391  11.367  0.00  0.00    +0.000 C 
BRANCH  15  18
ATOM     16  C   UNL     1      45.595   2.055   8.659  0.00  0.00    +0.000 A 
ATOM     17  C   UNL     1      44.738   2.059   9.754  0.00  0.00    +0.000 A 
ATOM     18  C   UNL     1      44.210   3.280  10.189  0.00  0.00    +0.000 A 
ATOM     19  C   UNL     1      44.627   4.442   9.525  0.00  0.00    +0.000 A 
ATOM     20  C   UNL     1      45.485   4.334   8.444  0.00  0.00    +0.000 A 
ATOM     21  N   UNL     1      45.969   3.164   7.991  0.00  0.00    +0.000 NA
BRANCH  16  23
ATOM     22  C   UNL     1      47.106   0.930   7.284  0.00  0.00    +0.000 C 
ATOM     23  O   UNL     1      46.077   0.823   8.265  0.00  0.00    +0.000 OA
ENDBRANCH  16  23
ENDBRANCH  15  18
BRANCH  15  24
ATOM     24  O   UNL     1      43.817   2.661  12.472  0.00  0.00    +0.000 OA
ATOM     25  H   UNL     1      43.309   1.828  12.510  0.00  0.00    +0.000 HD
ENDBRANCH  15  24
ENDBRANCH  14  15
ENDBRANCH   1  14
TORSDOF 7
ENDMDL
MODEL 6
REMARK VINA RESULT:    -6.456      2.469      6.585
REMARK INTER + INTRA:          -9.679
REMARK INTER:                  -9.026
REMARK INTRA:                  -0.653
REMARK UNBOUND:                -0.770
REMARK  Name = 
REMARK  8 active torsions:
REMARK  status: ('A' for Active; 'I' for Inactive)
REMARK    1  A    between atoms: C_1  and  O_2
REMARK    2  A    between atoms: O_2  and  C_3
REMARK    3  A    between atoms: C_5  and  C_6
REMARK    4  A    between atoms: C_6  and  O_7
REMARK    5  A    between atoms: C_6  and  C_8
REMARK    6  A    between atoms: C_8  and  N_9
REMARK    7  A    between atoms: N_9  and  C_10
REMARK    8  A    between atoms: C_13  and  C_14
REMARK                            x       y       z     vdW  Elec       q    Type
REMARK                         _______ _______ _______ _____ _____    ______ ____
ROOT
ATOM      1  N   UNL     1      45.124   5.122  12.374  0.00  0.00    +0.000 N 
ATOM      2  H   UNL     1      45.265   4.137  12.149  0.00  0.00    +0.000 HD
ENDROOT
BRANCH   1   3
ATOM      3  C   UNL     1      46.360   5.763  12.581  0.00  0.00    +0.000 A 
ATOM      4  C   UNL     1      46.914   6.662  11.664  0.00  0.00    +0.000 A 
ATOM      5  C   UNL     1      48.111   7.335  11.933  0.00  0.00    +0.000 A 
ATOM      6  C   UNL     1      48.760   7.150  13.156  0.00  0.00    +0.000 A 
ATOM      7  C   UNL     1      48.211   6.280  14.099  0.00  0.00    +0.000 A 
ATOM      8  C   UNL     1      47.013   5.606  13.815  0.00  0.00    +0.000 A 
BRANCH   6   9
ATOM      9  C   UNL     1      50.023   7.901  13.388  0.00  0.00    +0.000 C 
ATOM     10  N   UNL     1      50.832   7.483  14.407  0.00  0.00    +0.000 N 
ATOM     11  O   UNL     1      50.312   8.887  12.725  0.00  0.00    +0.000 OA
ATOM     12  H   UNL     1      50.518   6.843  15.121  0.00  0.00    +0.000 HD
ATOM     13  H   UNL     1      51.612   8.088  14.625  0.00  0.00    +0.000 HD
ENDBRANCH   6   9
ENDBRANCH   1   3
BRANCH   1  14
ATOM     14  C   UNL     1      44.187   5.780  11.436  0.00  0.00    +0.000 C 
BRANCH  14  15
ATOM     15  C   UNL     1      43.446   4.752  10.545  0.00  0.00    +0.000 C 
BRANCH  15  18
ATOM     16  C   UNL     1      45.819   3.516   7.824  0.00  0.00    +0.000 A 
ATOM     17  C   UNL     1      45.062   4.394   8.592  0.00  0.00    +0.000 A 
ATOM     18  C   UNL     1      44.299   3.878   9.646  0.00  0.00    +0.000 A 
ATOM     19  C   UNL     1      44.298   2.489   9.829  0.00  0.00    +0.000 A 
ATOM     20  C   UNL     1      45.087   1.698   9.011  0.00  0.00    +0.000 A 
ATOM     21  N   UNL     1      45.855   2.183   8.021  0.00  0.00    +0.000 NA
BRANCH  16  23
ATOM     22  C   UNL     1      46.883   3.139   5.784  0.00  0.00    +0.000 C 
ATOM     23  O   UNL     1      46.562   4.078   6.806  0.00  0.00    +0.000 OA
ENDBRANCH  16  23
ENDBRANCH  15  18
BRANCH  15  24
ATOM     24  O   UNL     1      42.663   3.903  11.398  0.00  0.00    +0.000 OA
ATOM     25  H   UNL     1      42.983   4.084  12.303  0.00  0.00    +0.000 HD
ENDBRANCH  15  24
ENDBRANCH  14  15
ENDBRANCH   1  14
TORSDOF 7
ENDMDL
MODEL 7
REMARK VINA RESULT:    -6.211      2.274      6.594
REMARK INTER + INTRA:          -9.341
REMARK INTER:                  -8.696
REMARK INTRA:                  -0.646
REMARK UNBOUND:                -0.770
REMARK  Name = 
REMARK  8 active torsions:
REMARK  status: ('A' for Active; 'I' for Inactive)
REMARK    1  A    between atoms: C_1  and  O_2
REMARK    2  A    between atoms: O_2  and  C_3
REMARK    3  A    between atoms: C_5  and  C_6
REMARK    4  A    between atoms: C_6  and  O_7
REMARK    5  A    between atoms: C_6  and  C_8
REMARK    6  A    between atoms: C_8  and  N_9
REMARK    7  A    between atoms: N_9  and  C_10
REMARK    8  A    between atoms: C_13  and  C_14
REMARK                            x       y       z     vdW  Elec       q    Type
REMARK                         _______ _______ _______ _____ _____    ______ ____
ROOT
ATOM      1  N   UNL     1      45.177   4.050  11.903  0.00  0.00    +0.000 N 
ATOM      2  H   UNL     1      45.832   3.321  11.622  0.00  0.00    +0.000 HD
ENDROOT
BRANCH   1   3
ATOM      3  C   UNL     1      45.870   5.182  12.372  0.00  0.00    +0.000 A 
ATOM      4  C   UNL     1      46.936   5.100  13.276  0.00  0.00    +0.000 A 
ATOM      5  C   UNL     1      47.649   6.240  13.667  0.00  0.00    +0.000 A 
ATOM      6  C   UNL     1      47.333   7.486  13.125  0.00  0.00    +0.000 A 
ATOM      7  C   UNL     1      46.293   7.588  12.199  0.00  0.00    +0.000 A 
ATOM      8  C   UNL     1      45.580   6.439  11.818  0.00  0.00    +0.000 A 
BRANCH   6   9
ATOM      9  C   UNL     1      48.134   8.658  13.572  0.00  0.00    +0.000 C 
ATOM     10  N   UNL     1      47.613   9.903  13.354  0.00  0.00    +0.000 N 
ATOM     11  O   UNL     1      49.239   8.521  14.076  0.00  0.00    +0.000 OA
ATOM     12  H   UNL     1      46.837  10.064  12.731  0.00  0.00    +0.000 HD
ATOM     13  H   UNL     1      48.234  10.677  13.546  0.00  0.00    +0.000 HD
ENDBRANCH   6   9
ENDBRANCH   1   3
BRANCH   1  14
ATOM     14  C   UNL     1      44.134   4.289  10.881  0.00  0.00    +0.000 C 
BRANCH  14  15
ATOM     15  C   UNL     1      44.085   3.152   9.831  0.00  0.00    +0.000 C 
BRANCH  15  18
ATOM     16  C   UNL     1      46.840   1.935   7.487  0.00  0.00    +0.000 A 
ATOM     17  C   UNL     1      45.809   1.891   8.419  0.00  0.00    +0.000 A 
ATOM     18  C   UNL     1      45.219   3.093   8.826  0.00  0.00    +0.000 A 
ATOM     19  C   UNL     1      45.746   4.284   8.308  0.00  0.00    +0.000 A 
ATOM     20  C   UNL     1      46.774   4.223   7.383  0.00  0.00    +0.000 A 
ATOM     21  N   UNL     1      47.324   3.075   6.955  0.00  0.00    +0.000 NA
BRANCH  16  23
ATOM     22  C   UNL     1      46.647  -0.383   7.641  0.00  0.00    +0.000 C 
ATOM     23  O   UNL     1      47.377   0.720   7.113  0.00  0.00    +0.000 OA
ENDBRANCH  16  23
ENDBRANCH  15  18
BRANCH  15  24
ATOM     24  O   UNL     1      44.028   1.899  10.530  0.00  0.00    +0.000 OA
ATOM     25  H   UNL     1      44.703   1.967  11.233  0.00  0.00    +0.000 HD
ENDBRANCH  15  24
ENDBRANCH  14  15
ENDBRANCH   1  14
TORSDOF 7
ENDMDL
MODEL 8
REMARK VINA RESULT:    -5.980      2.238      7.045
REMARK INTER + INTRA:          -9.023
REMARK INTER:                  -8.312
REMARK INTRA:                  -0.711
REMARK UNBOUND:                -0.770
REMARK  Name = 
REMARK  8 active torsions:
REMARK  status: ('A' for Active; 'I' for Inactive)
REMARK    1  A    between atoms: C_1  and  O_2
REMARK    2  A    between atoms: O_2  and  C_3
REMARK    3  A    between atoms: C_5  and  C_6
REMARK    4  A    between atoms: C_6  and  O_7
REMARK    5  A    between atoms: C_6  and  C_8
REMARK    6  A    between atoms: C_8  and  N_9
REMARK    7  A    between atoms: N_9  and  C_10
REMARK    8  A    between atoms: C_13  and  C_14
REMARK                            x       y       z     vdW  Elec       q    Type
REMARK                         _______ _______ _______ _____ _____    ______ ____
ROOT
ATOM      1  N   UNL     1      47.401   6.162  12.485  0.00  0.00    +0.000 N 
ATOM      2  H   UNL     1      48.327   6.334  12.093  0.00  0.00    +0.000 HD
ENDROOT
BRANCH   1   3
ATOM      3  C   UNL     1      47.503   5.725  13.819  0.00  0.00    +0.000 A 
ATOM      4  C   UNL     1      46.932   4.532  14.274  0.00  0.00    +0.000 A 
ATOM      5  C   UNL     1      47.112   4.092  15.591  0.00  0.00    +0.000 A 
ATOM      6  C   UNL     1      47.909   4.824  16.473  0.00  0.00    +0.000 A 
ATOM      7  C   UNL     1      48.514   6.003  16.032  0.00  0.00    +0.000 A 
ATOM      8  C   UNL     1      48.321   6.437  14.711  0.00  0.00    +0.000 A 
BRANCH   6   9
ATOM      9  C   UNL     1      48.071   4.300  17.855  0.00  0.00    +0.000 C 
ATOM     10  N   UNL     1      47.359   4.907  18.852  0.00  0.00    +0.000 N 
ATOM     11  O   UNL     1      48.848   3.390  18.107  0.00  0.00    +0.000 OA
ATOM     12  H   UNL     1      46.909   5.801  18.729  0.00  0.00    +0.000 HD
ATOM     13  H   UNL     1      47.588   4.619  19.793  0.00  0.00    +0.000 HD
ENDBRANCH   6   9
ENDBRANCH   1   3
BRANCH   1  14
ATOM     14  C   UNL     1      46.467   7.280  12.224  0.00  0.00    +0.000 C 
BRANCH  14  15
ATOM     15  C   UNL     1      45.090   6.777  11.726  0.00  0.00    +0.000 C 
BRANCH  15  18
ATOM     16  C   UNL     1      45.576   4.360   8.812  0.00  0.00    +0.000 A 
ATOM     17  C   UNL     1      45.620   5.539   9.548  0.00  0.00    +0.000 A 
ATOM     18  C   UNL     1      45.086   5.545  10.841  0.00  0.00    +0.000 A 
ATOM     19  C   UNL     1      44.481   4.367  11.299  0.00  0.00    +0.000 A 
ATOM     20  C   UNL     1      44.489   3.242  10.492  0.00  0.00    +0.000 A 
ATOM     21  N   UNL     1      45.033   3.212   9.263  0.00  0.00    +0.000 NA
BRANCH  16  23
ATOM     22  C   UNL     1      46.737   3.174   7.174  0.00  0.00    +0.000 C 
ATOM     23  O   UNL     1      46.128   4.407   7.548  0.00  0.00    +0.000 OA
ENDBRANCH  16  23
ENDBRANCH  15  18
BRANCH  15  24
ATOM     24  O   UNL     1      44.266   6.519  12.873  0.00  0.00    +0.000 OA
ATOM     25  H   UNL     1      43.401   6.920  12.662  0.00  0.00    +0.000 HD
ENDBRANCH  15  24
ENDBRANCH  14  15
ENDBRANCH   1  14
TORSDOF 7
ENDMDL
MODEL 9
REMARK VINA RESULT:    -5.607      2.912      5.309
REMARK INTER + INTRA:          -8.508
REMARK INTER:                  -7.957
REMARK INTRA:                  -0.551
REMARK UNBOUND:                -0.770
REMARK  Name = 
REMARK  8 active torsions:
REMARK  status: ('A' for Active; 'I' for Inactive)
REMARK    1  A    between atoms: C_1  and  O_2
REMARK    2  A    between atoms: O_2  and  C_3
REMARK    3  A    between atoms: C_5  and  C_6
REMARK    4  A    between atoms: C_6  and  O_7
REMARK    5  A    between atoms: C_6  and  C_8
REMARK    6  A    between atoms: C_8  and  N_9
REMARK    7  A    between atoms: N_9  and  C_10
REMARK    8  A    between atoms: C_13  and  C_14
REMARK                            x       y       z     vdW  Elec       q    Type
REMARK                         _______ _______ _______ _____ _____    ______ ____
ROOT
ATOM      1  N   UNL     1      47.180   7.091  13.964  0.00  0.00    +0.000 N 
ATOM      2  H   UNL     1      46.945   8.082  13.915  0.00  0.00    +0.000 HD
ENDROOT
BRANCH   1   3
ATOM      3  C   UNL     1      46.378   6.349  13.076  0.00  0.00    +0.000 A 
ATOM      4  C   UNL     1      46.046   6.799  11.794  0.00  0.00    +0.000 A 
ATOM      5  C   UNL     1      45.305   6.006  10.911  0.00  0.00    +0.000 A 
ATOM      6  C   UNL     1      44.914   4.718  11.283  0.00  0.00    +0.000 A 
ATOM      7  C   UNL     1      45.259   4.236  12.547  0.00  0.00    +0.000 A 
ATOM      8  C   UNL     1      45.997   5.043  13.427  0.00  0.00    +0.000 A 
BRANCH   6   9
ATOM      9  C   UNL     1      44.138   3.920  10.297  0.00  0.00    +0.000 C 
ATOM     10  N   UNL     1      44.118   4.356   9.001  0.00  0.00    +0.000 N 
ATOM     11  O   UNL     1      43.499   2.933  10.634  0.00  0.00    +0.000 OA
ATOM     12  H   UNL     1      44.418   5.282   8.737  0.00  0.00    +0.000 HD
ATOM     13  H   UNL     1      43.478   3.873   8.386  0.00  0.00    +0.000 HD
ENDBRANCH   6   9
ENDBRANCH   1   3
BRANCH   1  14
ATOM     14  C   UNL     1      48.639   6.858  13.890  0.00  0.00    +0.000 C 
BRANCH  14  15
ATOM     15  C   UNL     1      49.345   7.193  15.227  0.00  0.00    +0.000 C 
BRANCH  15  18
ATOM     16  C   UNL     1      47.918   4.707  17.747  0.00  0.00    +0.000 A 
ATOM     17  C   UNL     1      48.421   5.205  16.550  0.00  0.00    +0.000 A 
ATOM     18  C   UNL     1      48.782   6.555  16.483  0.00  0.00    +0.000 A 
ATOM     19  C   UNL     1      48.558   7.345  17.619  0.00  0.00    +0.000 A 
ATOM     20  C   UNL     1      48.053   6.755  18.765  0.00  0.00    +0.000 A 
ATOM     21  N   UNL     1      47.738   5.452  18.855  0.00  0.00    +0.000 NA
BRANCH  16  23
ATOM     22  C   UNL     1      48.320   2.617  16.793  0.00  0.00    +0.000 C 
ATOM     23  O   UNL     1      47.589   3.366  17.761  0.00  0.00    +0.000 OA
ENDBRANCH  16  23
ENDBRANCH  15  18
BRANCH  15  24
ATOM     24  O   UNL     1      50.727   6.823  15.108  0.00  0.00    +0.000 OA
ATOM     25  H   UNL     1      50.765   6.215  14.344  0.00  0.00    +0.000 HD
ENDBRANCH  15  24
ENDBRANCH  14  15
ENDBRANCH   1  14
TORSDOF 7
ENDMDL
