MODEL 1
REMARK VINA RESULT:    -7.493      0.000      0.000
REMARK INTER + INTRA:         -10.572
REMARK INTER:                 -10.122
REMARK INTRA:                  -0.450
REMARK UNBOUND:                -0.450
REMARK  Name = 
REMARK  7 active torsions:
REMARK  status: ('A' for Active; 'I' for Inactive)
REMARK    1  A    between atoms: N_1  and  C_2
REMARK    2  A    between atoms: C_2  and  C_3
REMARK    3  A    between atoms: C_7  and  O_8
REMARK    4  A    between atoms: O_8  and  C_9
REMARK    5  A    between atoms: C_9  and  C_10
REMARK    6  A    between atoms: C_10  and  C_11
REMARK    7  A    between atoms: C_16  and  O_17
REMARK                            x       y       z     vdW  Elec       q    Type
REMARK                         _______ _______ _______ _____ _____    ______ ____
ROOT
ATOM      1  O   UNL     1      43.851   2.702  10.427  0.00  0.00    +0.000 OA
ENDROOT
BRANCH   1   6
ATOM      2  C   UNL     1      46.422   2.248   7.778  0.00  0.00    +0.000 A 
ATOM      3  C   UNL     1      46.524   3.593   7.438  0.00  0.00    +0.000 A 
ATOM      4  N   UNL     1      45.811   4.580   8.025  0.00  0.00    +0.000 NA
ATOM      5  C   UNL     1      44.951   4.202   9.002  0.00  0.00    +0.000 A 
ATOM      6  C   UNL     1      44.762   2.892   9.424  0.00  0.00    +0.000 A 
ATOM      7  C   UNL     1      45.517   1.905   8.793  0.00  0.00    +0.000 A 
BRANCH   2   8
ATOM      8  C   UNL     1      47.269   1.209   7.103  0.00  0.00    +0.000 C 
BRANCH   8   9
ATOM      9  N   UNL     1      48.375   1.806   6.364  0.00  0.00    +0.000 NA
ATOM     10  H   UNL     1      48.971   2.321   7.009  0.00  0.00    +0.000 HD
ATOM     11  H   UNL     1      48.006   2.490   5.705  0.00  0.00    +0.000 HD
ENDBRANCH   8   9
ENDBRANCH   2   8
ENDBRANCH   1   6
BRANCH   1  12
ATOM     12  C   UNL     1      43.289   3.895  10.986  0.00  0.00    +0.000 C 
BRANCH  12  13
ATOM     13  C   UNL     1      43.461   3.880  12.504  0.00  0.00    +0.000 C 
BRANCH  13  14
ATOM     14  C   UNL     1      44.809   4.406  12.939  0.00  0.00    +0.000 A 
ATOM     15  N   UNL     1      45.746   3.497  13.321  0.00  0.00    +0.000 NA
ATOM     16  C   UNL     1      46.955   3.957  13.702  0.00  0.00    +0.000 A 
ATOM     17  C   UNL     1      47.290   5.300  13.723  0.00  0.00    +0.000 A 
ATOM     18  C   UNL     1      46.328   6.227  13.335  0.00  0.00    +0.000 A 
ATOM     19  C   UNL     1      45.071   5.776  12.939  0.00  0.00    +0.000 A 
BRANCH  19  20
ATOM     20  O   UNL     1      44.107   6.660  12.553  0.00  0.00    +0.000 OA
ATOM     21  H   UNL     1      43.709   6.350  11.722  0.00  0.00    +0.000 HD
ENDBRANCH  19  20
ENDBRANCH  13  14
ENDBRANCH  12  13
ENDBRANCH   1  12
TORSDOF 7
ENDMDL
MODEL 2
REMARK VINA RESULT:    -7.471      1.318      1.642
REMARK INTER + INTRA:         -10.542
REMARK INTER:                 -10.041
REMARK INTRA:                  -0.501
REMARK UNBOUND:                -0.450
REMARK  Name = 
REMARK  7 active torsions:
REMARK  status: ('A' for Active; 'I' for Inactive)
REMARK    1  A    between atoms: N_1  and  C_2
REMARK    2  A    between atoms: C_2  and  C_3
REMARK    3  A    between atoms: C_7  and  O_8
REMARK    4  A    between atoms: O_8  and  C_9
REMARK    5  A    between atoms: C_9  and  C_10
REMARK    6  A    between atoms: C_10  and  C_11
REMARK    7  A    between atoms: C_16  and  O_17
REMARK                            x       y       z     vdW  Elec       q    Type
REMARK                         _______ _______ _______ _____ _____    ______ ____
ROOT
ATOM      1  O   UNL     1      43.790   2.527  10.381  0.00  0.00    +0.000 OA
ENDROOT
BRANCH   1   6
ATOM      2  C   UNL     1      46.430   2.219   7.779  0.00  0.00    +0.000 A 
ATOM      3  C   UNL     1      46.468   3.569   7.446  0.00  0.00    +0.000 A 
ATOM      4  N   UNL     1      45.693   4.515   8.022  0.00  0.00    +0.000 NA
ATOM      5  C   UNL     1      44.837   4.088   8.982  0.00  0.00    +0.000 A 
ATOM      6  C   UNL     1      44.709   2.768   9.396  0.00  0.00    +0.000 A 
ATOM      7  C   UNL     1      45.526   1.824   8.776  0.00  0.00    +0.000 A 
BRANCH   2   8
ATOM      8  C   UNL     1      47.344   1.228   7.117  0.00  0.00    +0.000 C 
BRANCH   8   9
ATOM      9  N   UNL     1      48.353   1.886   6.296  0.00  0.00    +0.000 NA
ATOM     10  H   UNL     1      49.278   1.675   6.668  0.00  0.00    +0.000 HD
ATOM     11  H   UNL     1      48.238   2.896   6.368  0.00  0.00    +0.000 HD
ENDBRANCH   8   9
ENDBRANCH   2   8
ENDBRANCH   1   6
BRANCH   1  12
ATOM     12  C   UNL     1      43.392   3.668  11.148  0.00  0.00    +0.000 C 
BRANCH  12  13
ATOM     13  C   UNL     1      44.032   3.604  12.534  0.00  0.00    +0.000 C 
BRANCH  13  14
ATOM     14  C   UNL     1      45.006   4.732  12.774  0.00  0.00    +0.000 A 
ATOM     15  N   UNL     1      44.599   5.992  12.463  0.00  0.00    +0.000 NA
ATOM     16  C   UNL     1      45.460   7.007  12.682  0.00  0.00    +0.000 A 
ATOM     17  C   UNL     1      46.729   6.834  13.205  0.00  0.00    +0.000 A 
ATOM     18  C   UNL     1      47.144   5.544  13.519  0.00  0.00    +0.000 A 
ATOM     19  C   UNL     1      46.274   4.479  13.300  0.00  0.00    +0.000 A 
BRANCH  19  20
ATOM     20  O   UNL     1      46.651   3.202  13.597  0.00  0.00    +0.000 OA
ATOM     21  H   UNL     1      47.226   2.869  12.888  0.00  0.00    +0.000 HD
ENDBRANCH  19  20
ENDBRANCH  13  14
ENDBRANCH  12  13
ENDBRANCH   1  12
TORSDOF 7
ENDMDL
MODEL 3
REMARK VINA RESULT:    -7.159      1.380      1.719
REMARK INTER + INTRA:         -10.120
REMARK INTER:                  -9.469
REMARK INTRA:                  -0.651
REMARK UNBOUND:                -0.450
REMARK  Name = 
REMARK  7 active torsions:
REMARK  status: ('A' for Active; 'I' for Inactive)
REMARK    1  A    between atoms: N_1  and  C_2
REMARK    2  A    between atoms: C_2  and  C_3
REMARK    3  A    between atoms: C_7  and  O_8
REMARK    4  A    between atoms: O_8  and  C_9
REMARK    5  A    between atoms: C_9  and  C_10
REMARK    6  A    between atoms: C_10  and  C_11
REMARK    7  A    between atoms: C_16  and  O_17
REMARK                            x       y       z     vdW  Elec       q    Type
REMARK                         _______ _______ _______ _____ _____    ______ ____
ROOT
ATOM      1  O   UNL     1      44.242   3.889   9.366  0.00  0.00    +0.000 OA
ENDROOT
BRANCH   1   6
ATOM      2  C   UNL     1      46.653   2.593   6.847  0.00  0.00    +0.000 A 
ATOM      3  C   UNL     1      46.712   1.298   7.352  0.00  0.00    +0.000 A 
ATOM      4  N   UNL     1      46.021   0.872   8.432  0.00  0.00    +0.000 NA
ATOM      5  C   UNL     1      45.229   1.789   9.039  0.00  0.00    +0.000 A 
ATOM      6  C   UNL     1      45.091   3.110   8.629  0.00  0.00    +0.000 A 
ATOM      7  C   UNL     1      45.822   3.508   7.511  0.00  0.00    +0.000 A 
BRANCH   2   8
ATOM      8  C   UNL     1      47.426   2.987   5.622  0.00  0.00    +0.000 C 
BRANCH   8   9
ATOM      9  N   UNL     1      48.421   1.983   5.262  0.00  0.00    +0.000 NA
ATOM     10  H   UNL     1      48.986   2.333   4.491  0.00  0.00    +0.000 HD
ATOM     11  H   UNL     1      47.946   1.150   4.917  0.00  0.00    +0.000 HD
ENDBRANCH   8   9
ENDBRANCH   2   8
ENDBRANCH   1   6
BRANCH   1  12
ATOM     12  C   UNL     1      43.773   3.309  10.588  0.00  0.00    +0.000 C 
BRANCH  12  13
ATOM     13  C   UNL     1      43.556   4.408  11.627  0.00  0.00    +0.000 C 
BRANCH  13  14
ATOM     14  C   UNL     1      44.849   4.877  12.252  0.00  0.00    +0.000 A 
ATOM     15  N   UNL     1      45.268   4.243  13.380  0.00  0.00    +0.000 NA
ATOM     16  C   UNL     1      46.426   4.650  13.940  0.00  0.00    +0.000 A 
ATOM     17  C   UNL     1      47.207   5.671  13.427  0.00  0.00    +0.000 A 
ATOM     18  C   UNL     1      46.773   6.319  12.275  0.00  0.00    +0.000 A 
ATOM     19  C   UNL     1      45.579   5.919  11.679  0.00  0.00    +0.000 A 
BRANCH  19  20
ATOM     20  O   UNL     1      45.127   6.534  10.549  0.00  0.00    +0.000 OA
ATOM     21  H   UNL     1      44.858   7.441  10.769  0.00  0.00    +0.000 HD
ENDBRANCH  19  20
ENDBRANCH  13  14
ENDBRANCH  12  13
ENDBRANCH   1  12
TORSDOF 7
ENDMDL
MODEL 4
REMARK VINA RESULT:    -6.875      1.790      6.096
REMARK INTER + INTRA:          -9.737
REMARK INTER:                  -9.258
REMARK INTRA:                  -0.479
REMARK UNBOUND:                -0.450
REMARK  Name = 
REMARK  7 active torsions:
REMARK  status: ('A' for Active; 'I' for Inactive)
REMARK    1  A    between atoms: N_1  and  C_2
REMARK    2  A    between atoms: C_2  and  C_3
REMARK    3  A    between atoms: C_7  and  O_8
REMARK    4  A    between atoms: O_8  and  C_9
REMARK    5  A    between atoms: C_9  and  C_10
REMARK    6  A    between atoms: C_10  and  C_11
REMARK    7  A    between atoms: C_16  and  O_17
REMARK                            x       y       z     vdW  Elec       q    Type
REMARK                         _______ _______ _______ _____ _____    ______ ____
ROOT
ATOM      1  O   UNL     1      43.951   3.044  10.895  0.00  0.00    +0.000 OA
ENDROOT
BRANCH   1   6
ATOM      2  C   UNL     1      46.169   4.735  13.356  0.00  0.00    +0.000 A 
ATOM      3  C   UNL     1      46.165   5.977  12.730  0.00  0.00    +0.000 A 
ATOM      4  N   UNL     1      45.492   6.250  11.590  0.00  0.00    +0.000 NA
ATOM      5  C   UNL     1      44.786   5.228  11.049  0.00  0.00    +0.000 A 
ATOM      6  C   UNL     1      44.717   3.946  11.581  0.00  0.00    +0.000 A 
ATOM      7  C   UNL     1      45.427   3.707  12.757  0.00  0.00    +0.000 A 
BRANCH   2   8
ATOM      8  C   UNL     1      46.916   4.512  14.639  0.00  0.00    +0.000 C 
BRANCH   8   9
ATOM      9  N   UNL     1      47.581   3.215  14.661  0.00  0.00    +0.000 NA
ATOM     10  H   UNL     1      48.207   3.144  13.861  0.00  0.00    +0.000 HD
ATOM     11  H   UNL     1      46.885   2.479  14.549  0.00  0.00    +0.000 HD
ENDBRANCH   8   9
ENDBRANCH   2   8
ENDBRANCH   1   6
BRANCH   1  12
ATOM     12  C   UNL     1      44.170   2.996   9.481  0.00  0.00    +0.000 C 
BRANCH  12  13
ATOM     13  C   UNL     1      45.067   1.807   9.140  0.00  0.00    +0.000 C 
BRANCH  13  14
ATOM     14  C   UNL     1      45.985   2.090   7.975  0.00  0.00    +0.000 A 
ATOM     15  N   UNL     1      45.973   3.348   7.456  0.00  0.00    +0.000 NA
ATOM     16  C   UNL     1      46.797   3.613   6.421  0.00  0.00    +0.000 A 
ATOM     17  C   UNL     1      47.649   2.676   5.863  0.00  0.00    +0.000 A 
ATOM     18  C   UNL     1      47.656   1.390   6.394  0.00  0.00    +0.000 A 
ATOM     19  C   UNL     1      46.813   1.091   7.462  0.00  0.00    +0.000 A 
BRANCH  19  20
ATOM     20  O   UNL     1      46.796  -0.160   8.004  0.00  0.00    +0.000 OA
ATOM     21  H   UNL     1      46.863  -0.086   8.971  0.00  0.00    +0.000 HD
ENDBRANCH  19  20
ENDBRANCH  13  14
ENDBRANCH  12  13
ENDBRANCH   1  12
TORSDOF 7
ENDMDL
MODEL 5
REMARK VINA RESULT:    -6.731      1.975      5.739
REMARK INTER + INTRA:          -9.543
REMARK INTER:                  -9.005
REMARK INTRA:                  -0.537
REMARK UNBOUND:                -0.450
REMARK  Name = 
REMARK  7 active torsions:
REMARK  status: ('A' for Active; 'I' for Inactive)
REMARK    1  A    between atoms: N_1  and  C_2
REMARK    2  A    between atoms: C_2  and  C_3
REMARK    3  A    between atoms: C_7  and  O_8
REMARK    4  A    between atoms: O_8  and  C_9
REMARK    5  A    between atoms: C_9  and  C_10
REMARK    6  A    between atoms: C_10  and  C_11
REMARK    7  A    between atoms: C_16  and  O_17
REMARK                            x       y       z     vdW  Elec       q    Type
REMARK                         _______ _______ _______ _____ _____    ______ ____
ROOT
ATOM      1  O   UNL     1      44.159   4.149  11.418  0.00  0.00    +0.000 OA
ENDROOT
BRANCH   1   6
ATOM      2  C   UNL     1      46.686   6.357  13.023  0.00  0.00    +0.000 A 
ATOM      3  C   UNL     1      46.175   7.552  12.526  0.00  0.00    +0.000 A 
ATOM      4  N   UNL     1      45.089   7.639  11.727  0.00  0.00    +0.000 NA
ATOM      5  C   UNL     1      44.481   6.470  11.409  0.00  0.00    +0.000 A 
ATOM      6  C   UNL     1      44.900   5.218  11.841  0.00  0.00    +0.000 A 
ATOM      7  C   UNL     1      46.025   5.173  12.663  0.00  0.00    +0.000 A 
BRANCH   2   8
ATOM      8  C   UNL     1      47.880   6.339  13.932  0.00  0.00    +0.000 C 
BRANCH   8   9
ATOM      9  N   UNL     1      47.730   5.365  15.006  0.00  0.00    +0.000 NA
ATOM     10  H   UNL     1      48.495   4.694  14.960  0.00  0.00    +0.000 HD
ATOM     11  H   UNL     1      46.873   4.834  14.860  0.00  0.00    +0.000 HD
ENDBRANCH   8   9
ENDBRANCH   2   8
ENDBRANCH   1   6
BRANCH   1  12
ATOM     12  C   UNL     1      44.904   2.975  11.077  0.00  0.00    +0.000 C 
BRANCH  12  13
ATOM     13  C   UNL     1      44.390   2.407   9.755  0.00  0.00    +0.000 C 
BRANCH  13  14
ATOM     14  C   UNL     1      45.441   2.421   8.672  0.00  0.00    +0.000 A 
ATOM     15  N   UNL     1      46.062   1.246   8.381  0.00  0.00    +0.000 NA
ATOM     16  C   UNL     1      46.996   1.248   7.408  0.00  0.00    +0.000 A 
ATOM     17  C   UNL     1      47.354   2.378   6.693  0.00  0.00    +0.000 A 
ATOM     18  C   UNL     1      46.719   3.579   6.995  0.00  0.00    +0.000 A 
ATOM     19  C   UNL     1      45.752   3.603   7.997  0.00  0.00    +0.000 A 
BRANCH  19  20
ATOM     20  O   UNL     1      45.112   4.764   8.317  0.00  0.00    +0.000 OA
ATOM     21  H   UNL     1      45.013   4.815   9.282  0.00  0.00    +0.000 HD
ENDBRANCH  19  20
ENDBRANCH  13  14
ENDBRANCH  12  13
ENDBRANCH   1  12
TORSDOF 7
ENDMDL
MODEL 6
REMARK VINA RESULT:    -6.478      2.210      5.897
REMARK INTER + INTRA:          -9.200
REMARK INTER:                  -8.668
REMARK INTRA:                  -0.532
REMARK UNBOUND:                -0.450
REMARK  Name = 
REMARK  7 active torsions:
REMARK  status: ('A' for Active; 'I' for Inactive)
REMARK    1  A    between atoms: N_1  and  C_2
REMARK    2  A    between atoms: C_2  and  C_3
REMARK    3  A    between atoms: C_7  and  O_8
REMARK    4  A    between atoms: O_8  and  C_9
REMARK    5  A    between atoms: C_9  and  C_10
REMARK    6  A    between atoms: C_10  and  C_11
REMARK    7  A    between atoms: C_16  and  O_17
REMARK                            x       y       z     vdW  Elec       q    Type
REMARK                         _______ _______ _______ _____ _____    ______ ____
ROOT
ATOM      1  O   UNL     1      44.566   4.111  12.931  0.00  0.00    +0.000 OA
ENDROOT
BRANCH   1   6
ATOM      2  C   UNL     1      46.456   7.315  12.959  0.00  0.00    +0.000 A 
ATOM      3  C   UNL     1      47.643   6.782  13.450  0.00  0.00    +0.000 A 
ATOM      4  N   UNL     1      47.822   5.477  13.752  0.00  0.00    +0.000 NA
ATOM      5  C   UNL     1      46.757   4.662  13.552  0.00  0.00    +0.000 A 
ATOM      6  C   UNL     1      45.522   5.079  13.070  0.00  0.00    +0.000 A 
ATOM      7  C   UNL     1      45.381   6.433  12.772  0.00  0.00    +0.000 A 
BRANCH   2   8
ATOM      8  C   UNL     1      46.339   8.772  12.617  0.00  0.00    +0.000 C 
BRANCH   8   9
ATOM      9  N   UNL     1      44.996   9.282  12.865  0.00  0.00    +0.000 NA
ATOM     10  H   UNL     1      44.557   8.728  13.598  0.00  0.00    +0.000 HD
ATOM     11  H   UNL     1      44.430   9.154  12.028  0.00  0.00    +0.000 HD
ENDBRANCH   8   9
ENDBRANCH   2   8
ENDBRANCH   1   6
BRANCH   1  12
ATOM     12  C   UNL     1      44.853   3.091  11.969  0.00  0.00    +0.000 C 
BRANCH  12  13
ATOM     13  C   UNL     1      44.158   3.421  10.648  0.00  0.00    +0.000 C 
BRANCH  13  14
ATOM     14  C   UNL     1      45.046   3.175   9.451  0.00  0.00    +0.000 A 
ATOM     15  N   UNL     1      45.298   1.883   9.109  0.00  0.00    +0.000 NA
ATOM     16  C   UNL     1      46.083   1.655   8.036  0.00  0.00    +0.000 A 
ATOM     17  C   UNL     1      46.641   2.662   7.268  0.00  0.00    +0.000 A 
ATOM     18  C   UNL     1      46.384   3.983   7.623  0.00  0.00    +0.000 A 
ATOM     19  C   UNL     1      45.578   4.244   8.728  0.00  0.00    +0.000 A 
BRANCH  19  20
ATOM     20  O   UNL     1      45.307   5.527   9.102  0.00  0.00    +0.000 OA
ATOM     21  H   UNL     1      44.474   5.542   9.601  0.00  0.00    +0.000 HD
ENDBRANCH  19  20
ENDBRANCH  13  14
ENDBRANCH  12  13
ENDBRANCH   1  12
TORSDOF 7
ENDMDL
MODEL 7
REMARK VINA RESULT:    -6.322      2.585      3.169
REMARK INTER + INTRA:          -8.989
REMARK INTER:                  -8.684
REMARK INTRA:                  -0.305
REMARK UNBOUND:                -0.450
REMARK  Name = 
REMARK  7 active torsions:
REMARK  status: ('A' for Active; 'I' for Inactive)
REMARK    1  A    between atoms: N_1  and  C_2
REMARK    2  A    between atoms: C_2  and  C_3
REMARK    3  A    between atoms: C_7  and  O_8
REMARK    4  A    between atoms: O_8  and  C_9
REMARK    5  A    between atoms: C_9  and  C_10
REMARK    6  A    between atoms: C_10  and  C_11
REMARK    7  A    between atoms: C_16  and  O_17
REMARK                            x       y       z     vdW  Elec       q    Type
REMARK                         _______ _______ _______ _____ _____    ______ ____
ROOT
ATOM      1  O   UNL     1      44.769   4.693   9.349  0.00  0.00    +0.000 OA
ENDROOT
BRANCH   1   6
ATOM      2  C   UNL     1      46.655   2.604   6.917  0.00  0.00    +0.000 A 
ATOM      3  C   UNL     1      46.434   1.391   7.561  0.00  0.00    +0.000 A 
ATOM      4  N   UNL     1      45.724   1.256   8.703  0.00  0.00    +0.000 NA
ATOM      5  C   UNL     1      45.209   2.394   9.228  0.00  0.00    +0.000 A 
ATOM      6  C   UNL     1      45.365   3.661   8.677  0.00  0.00    +0.000 A 
ATOM      7  C   UNL     1      46.104   3.755   7.500  0.00  0.00    +0.000 A 
BRANCH   2   8
ATOM      8  C   UNL     1      47.429   2.673   5.632  0.00  0.00    +0.000 C 
BRANCH   8   9
ATOM      9  N   UNL     1      48.602   1.808   5.658  0.00  0.00    +0.000 NA
ATOM     10  H   UNL     1      49.075   1.857   4.758  0.00  0.00    +0.000 HD
ATOM     11  H   UNL     1      48.302   0.841   5.774  0.00  0.00    +0.000 HD
ENDBRANCH   8   9
ENDBRANCH   2   8
ENDBRANCH   1   6
BRANCH   1  12
ATOM     12  C   UNL     1      45.643   5.493  10.153  0.00  0.00    +0.000 C 
BRANCH  12  13
ATOM     13  C   UNL     1      44.853   6.113  11.306  0.00  0.00    +0.000 C 
BRANCH  13  14
ATOM     14  C   UNL     1      45.246   7.547  11.570  0.00  0.00    +0.000 A 
ATOM     15  N   UNL     1      46.505   7.781  12.030  0.00  0.00    +0.000 NA
ATOM     16  C   UNL     1      46.866   9.060  12.260  0.00  0.00    +0.000 A 
ATOM     17  C   UNL     1      46.028  10.141  12.052  0.00  0.00    +0.000 A 
ATOM     18  C   UNL     1      44.740   9.898  11.585  0.00  0.00    +0.000 A 
ATOM     19  C   UNL     1      44.342   8.585  11.341  0.00  0.00    +0.000 A 
BRANCH  19  20
ATOM     20  O   UNL     1      43.087   8.314  10.883  0.00  0.00    +0.000 OA
ATOM     21  H   UNL     1      43.148   7.671  10.157  0.00  0.00    +0.000 HD
ENDBRANCH  19  20
ENDBRANCH  13  14
ENDBRANCH  12  13
ENDBRANCH   1  12
TORSDOF 7
ENDMDL
MODEL 8
REMARK VINA RESULT:    -6.142      4.197      5.907
REMARK INTER + INTRA:          -8.747
REMARK INTER:                  -8.231
REMARK INTRA:                  -0.516
REMARK UNBOUND:                -0.450
REMARK  Name = 
REMARK  7 active torsions:
REMARK  status: ('A' for Active; 'I' for Inactive)
REMARK    1  A    between atoms: N_1  and  C_2
REMARK    2  A    between atoms: C_2  and  C_3
REMARK    3  A    between atoms: C_7  and  O_8
REMARK    4  A    between atoms: O_8  and  C_9
REMARK    5  A    between atoms: C_9  and  C_10
REMARK    6  A    between atoms: C_10  and  C_11
REMARK    7  A    between atoms: C_16  and  O_17
REMARK                            x       y       z     vdW  Elec       q    Type
REMARK                         _______ _______ _______ _____ _____    ______ ____
ROOT
ATOM      1  O   UNL     1      47.295   3.506  14.556  0.00  0.00    +0.000 OA
ENDROOT
BRANCH   1   6
ATOM      2  C   UNL     1      44.977   3.878  11.671  0.00  0.00    +0.000 A 
ATOM      3  C   UNL     1      45.338   5.185  11.359  0.00  0.00    +0.000 A 
ATOM      4  N   UNL     1      46.266   5.898  12.034  0.00  0.00    +0.000 NA
ATOM      5  C   UNL     1      46.865   5.271  13.075  0.00  0.00    +0.000 A 
ATOM      6  C   UNL     1      46.586   3.972  13.482  0.00  0.00    +0.000 A 
ATOM      7  C   UNL     1      45.622   3.272  12.759  0.00  0.00    +0.000 A 
BRANCH   2   8
ATOM      8  C   UNL     1      43.957   3.137  10.856  0.00  0.00    +0.000 C 
BRANCH   8   9
ATOM      9  N   UNL     1      43.218   2.171  11.660  0.00  0.00    +0.000 NA
ATOM     10  H   UNL     1      43.207   2.481  12.630  0.00  0.00    +0.000 HD
ATOM     11  H   UNL     1      43.709   1.279  11.648  0.00  0.00    +0.000 HD
ENDBRANCH   8   9
ENDBRANCH   2   8
ENDBRANCH   1   6
BRANCH   1  12
ATOM     12  C   UNL     1      47.214   4.304  15.743  0.00  0.00    +0.000 C 
BRANCH  12  13
ATOM     13  C   UNL     1      47.461   3.425  16.968  0.00  0.00    +0.000 C 
BRANCH  13  14
ATOM     14  C   UNL     1      48.908   3.428  17.400  0.00  0.00    +0.000 A 
ATOM     15  N   UNL     1      49.298   4.382  18.288  0.00  0.00    +0.000 NA
ATOM     16  C   UNL     1      50.587   4.386  18.686  0.00  0.00    +0.000 A 
ATOM     17  C   UNL     1      51.528   3.474  18.241  0.00  0.00    +0.000 A 
ATOM     18  C   UNL     1      51.126   2.502  17.330  0.00  0.00    +0.000 A 
ATOM     19  C   UNL     1      49.801   2.478  16.902  0.00  0.00    +0.000 A 
BRANCH  19  20
ATOM     20  O   UNL     1      49.376   1.537  16.011  0.00  0.00    +0.000 OA
ATOM     21  H   UNL     1      48.639   1.903  15.494  0.00  0.00    +0.000 HD
ENDBRANCH  19  20
ENDBRANCH  13  14
ENDBRANCH  12  13
ENDBRANCH   1  12
TORSDOF 7
ENDMDL
MODEL 9
REMARK VINA RESULT:    -6.081      2.182      2.753
REMARK INTER + INTRA:          -8.664
REMARK INTER:                  -8.398
REMARK INTRA:                  -0.267
REMARK UNBOUND:                -0.450
REMARK  Name = 
REMARK  7 active torsions:
REMARK  status: ('A' for Active; 'I' for Inactive)
REMARK    1  A    between atoms: N_1  and  C_2
REMARK    2  A    between atoms: C_2  and  C_3
REMARK    3  A    between atoms: C_7  and  O_8
REMARK    4  A    between atoms: O_8  and  C_9
REMARK    5  A    between atoms: C_9  and  C_10
REMARK    6  A    between atoms: C_10  and  C_11
REMARK    7  A    between atoms: C_16  and  O_17
REMARK                            x       y       z     vdW  Elec       q    Type
REMARK                         _______ _______ _______ _____ _____    ______ ____
ROOT
ATOM      1  O   UNL     1      44.055   4.481   9.377  0.00  0.00    +0.000 OA
ENDROOT
BRANCH   1   6
ATOM      2  C   UNL     1      46.597   2.678   7.346  0.00  0.00    +0.000 A 
ATOM      3  C   UNL     1      46.376   1.426   7.910  0.00  0.00    +0.000 A 
ATOM      4  N   UNL     1      45.467   1.180   8.880  0.00  0.00    +0.000 NA
ATOM      5  C   UNL     1      44.742   2.242   9.308  0.00  0.00    +0.000 A 
ATOM      6  C   UNL     1      44.876   3.537   8.823  0.00  0.00    +0.000 A 
ATOM      7  C   UNL     1      45.825   3.747   7.824  0.00  0.00    +0.000 A 
BRANCH   2   8
ATOM      8  C   UNL     1      47.603   2.871   6.249  0.00  0.00    +0.000 C 
BRANCH   8   9
ATOM      9  N   UNL     1      48.422   1.681   6.048  0.00  0.00    +0.000 NA
ATOM     10  H   UNL     1      48.573   1.222   6.945  0.00  0.00    +0.000 HD
ATOM     11  H   UNL     1      49.341   1.960   5.708  0.00  0.00    +0.000 HD
ENDBRANCH   8   9
ENDBRANCH   2   8
ENDBRANCH   1   6
BRANCH   1  12
ATOM     12  C   UNL     1      44.333   4.821  10.739  0.00  0.00    +0.000 C 
BRANCH  12  13
ATOM     13  C   UNL     1      45.793   5.252  10.872  0.00  0.00    +0.000 C 
BRANCH  13  14
ATOM     14  C   UNL     1      45.955   6.491  11.721  0.00  0.00    +0.000 A 
ATOM     15  N   UNL     1      45.104   7.527  11.490  0.00  0.00    +0.000 NA
ATOM     16  C   UNL     1      45.236   8.634  12.250  0.00  0.00    +0.000 A 
ATOM     17  C   UNL     1      46.186   8.769  13.248  0.00  0.00    +0.000 A 
ATOM     18  C   UNL     1      47.057   7.708  13.479  0.00  0.00    +0.000 A 
ATOM     19  C   UNL     1      46.942   6.555  12.706  0.00  0.00    +0.000 A 
BRANCH  19  20
ATOM     20  O   UNL     1      47.780   5.498  12.907  0.00  0.00    +0.000 OA
ATOM     21  H   UNL     1      47.693   4.879  12.163  0.00  0.00    +0.000 HD
ENDBRANCH  19  20
ENDBRANCH  13  14
ENDBRANCH  12  13
ENDBRANCH   1  12
TORSDOF 7
ENDMDL
