MODEL 1
REMARK VINA RESULT:    -9.237      0.000      0.000
REMARK INTER + INTRA:         -13.593
REMARK INTER:                 -12.477
REMARK INTRA:                  -1.117
REMARK UNBOUND:                -1.117
REMARK  Name = 
REMARK  6 active torsions:
REMARK  status: ('A' for Active; 'I' for Inactive)
REMARK    1  A    between atoms: C_2  and  C_4
REMARK    2  A    between atoms: N_8  and  C_9
REMARK    3  A    between atoms: C_9  and  C_10
REMARK    4  A    between atoms: C_10  and  C_13
REMARK    5  A    between atoms: C_15  and  O_16
REMARK    6  A    between atoms: O_16  and  C_17
REMARK                            x       y       z     vdW  Elec       q    Type
REMARK                         _______ _______ _______ _____ _____    ______ ____
ROOT
ATOM      1  C   UNL     1      43.057   4.335  11.082  0.00  0.00    +0.000 C 
ENDROOT
BRANCH   1   6
ATOM      2  C   UNL     1      46.472   2.490   7.713  0.00  0.00    +0.000 A 
ATOM      3  C   UNL     1      45.720   1.862   8.698  0.00  0.00    +0.000 A 
ATOM      4  C   UNL     1      44.856   2.628   9.481  0.00  0.00    +0.000 A 
ATOM      5  C   UNL     1      44.760   4.003   9.280  0.00  0.00    +0.000 A 
ATOM      6  N   UNL     1      43.921   4.811  10.001  0.00  0.00    +0.000 N 
ATOM      7  N   UNL     1      45.499   4.621   8.340  0.00  0.00    +0.000 NA
ATOM      8  C   UNL     1      46.341   3.863   7.583  0.00  0.00    +0.000 A 
ATOM      9  H   UNL     1      43.988   5.799   9.790  0.00  0.00    +0.000 HD
BRANCH   2  11
ATOM     10  N   UNL     1      48.513   2.440   6.392  0.00  0.00    +0.000 N 
ATOM     11  C   UNL     1      47.409   1.761   6.833  0.00  0.00    +0.000 C 
ATOM     12  O   UNL     1      47.225   0.591   6.531  0.00  0.00    +0.000 OA
ATOM     13  H   UNL     1      49.192   1.903   5.867  0.00  0.00    +0.000 HD
ATOM     14  H   UNL     1      48.825   3.307   6.807  0.00  0.00    +0.000 HD
ENDBRANCH   2  11
ENDBRANCH   1   6
BRANCH   1  15
ATOM     15  C   UNL     1      43.197   5.113  12.411  0.00  0.00    +0.000 C 
ATOM     16  F   UNL     1      42.400   6.226  12.346  0.00  0.00    +0.000 F 
ATOM     17  F   UNL     1      42.667   4.359  13.424  0.00  0.00    +0.000 F 
BRANCH  15  18
ATOM     18  C   UNL     1      44.651   5.488  12.688  0.00  0.00    +0.000 A 
ATOM     19  C   UNL     1      45.441   4.614  13.436  0.00  0.00    +0.000 A 
ATOM     20  C   UNL     1      46.738   4.998  13.760  0.00  0.00    +0.000 A 
ATOM     21  C   UNL     1      47.236   6.205  13.293  0.00  0.00    +0.000 A 
ATOM     22  C   UNL     1      46.406   7.006  12.535  0.00  0.00    +0.000 A 
ATOM     23  N   UNL     1      45.132   6.681  12.232  0.00  0.00    +0.000 NA
BRANCH  20  24
ATOM     24  O   UNL     1      47.601   4.250  14.524  0.00  0.00    +0.000 OA
BRANCH  24  25
ATOM     25  C   UNL     1      47.387   4.198  15.953  0.00  0.00    +0.000 C 
ATOM     26  C   UNL     1      48.274   5.114  16.833  0.00  0.00    +0.000 C 
ATOM     27  C   UNL     1      48.548   3.924  17.761  0.00  0.00    +0.000 C 
ATOM     28  C   UNL     1      48.042   2.985  16.658  0.00  0.00    +0.000 C 
ENDBRANCH  24  25
ENDBRANCH  20  24
ENDBRANCH  15  18
ENDBRANCH   1  15
TORSDOF 6
ENDMDL
MODEL 2
REMARK VINA RESULT:    -8.655      2.018      3.356
REMARK INTER + INTRA:         -12.807
REMARK INTER:                 -11.779
REMARK INTRA:                  -1.028
REMARK UNBOUND:                -1.117
REMARK  Name = 
REMARK  6 active torsions:
REMARK  status: ('A' for Active; 'I' for Inactive)
REMARK    1  A    between atoms: C_2  and  C_4
REMARK    2  A    between atoms: N_8  and  C_9
REMARK    3  A    between atoms: C_9  and  C_10
REMARK    4  A    between atoms: C_10  and  C_13
REMARK    5  A    between atoms: C_15  and  O_16
REMARK    6  A    between atoms: O_16  and  C_17
REMARK                            x       y       z     vdW  Elec       q    Type
REMARK                         _______ _______ _______ _____ _____    ______ ____
ROOT
ATOM      1  C   UNL     1      43.267   4.350  11.087  0.00  0.00    +0.000 C 
ENDROOT
BRANCH   1   6
ATOM      2  C   UNL     1      46.527   2.639   7.501  0.00  0.00    +0.000 A 
ATOM      3  C   UNL     1      46.079   3.919   7.801  0.00  0.00    +0.000 A 
ATOM      4  C   UNL     1      45.175   4.092   8.850  0.00  0.00    +0.000 A 
ATOM      5  C   UNL     1      44.724   2.991   9.575  0.00  0.00    +0.000 A 
ATOM      6  N   UNL     1      43.852   3.090  10.626  0.00  0.00    +0.000 N 
ATOM      7  N   UNL     1      45.140   1.746   9.278  0.00  0.00    +0.000 NA
ATOM      8  C   UNL     1      46.021   1.590   8.251  0.00  0.00    +0.000 A 
ATOM      9  H   UNL     1      43.564   2.208  11.033  0.00  0.00    +0.000 HD
BRANCH   2  11
ATOM     10  N   UNL     1      47.486   3.214   5.341  0.00  0.00    +0.000 N 
ATOM     11  C   UNL     1      47.486   2.361   6.412  0.00  0.00    +0.000 C 
ATOM     12  O   UNL     1      48.268   1.424   6.471  0.00  0.00    +0.000 OA
ATOM     13  H   UNL     1      48.208   3.067   4.647  0.00  0.00    +0.000 HD
ATOM     14  H   UNL     1      47.039   4.121   5.363  0.00  0.00    +0.000 HD
ENDBRANCH   2  11
ENDBRANCH   1   6
BRANCH   1  15
ATOM     15  C   UNL     1      43.495   4.659  12.585  0.00  0.00    +0.000 C 
ATOM     16  F   UNL     1      42.627   5.652  12.958  0.00  0.00    +0.000 F 
ATOM     17  F   UNL     1      43.122   3.568  13.324  0.00  0.00    +0.000 F 
BRANCH  15  18
ATOM     18  C   UNL     1      44.944   5.058  12.859  0.00  0.00    +0.000 A 
ATOM     19  C   UNL     1      45.554   5.991  12.020  0.00  0.00    +0.000 A 
ATOM     20  C   UNL     1      46.899   6.288  12.219  0.00  0.00    +0.000 A 
ATOM     21  C   UNL     1      47.585   5.699  13.270  0.00  0.00    +0.000 A 
ATOM     22  C   UNL     1      46.908   4.806  14.077  0.00  0.00    +0.000 A 
ATOM     23  N   UNL     1      45.615   4.469  13.890  0.00  0.00    +0.000 NA
BRANCH  20  24
ATOM     24  O   UNL     1      47.627   7.153  11.439  0.00  0.00    +0.000 OA
BRANCH  24  25
ATOM     25  C   UNL     1      48.553   8.054  12.089  0.00  0.00    +0.000 C 
ATOM     26  C   UNL     1      48.503   9.543  11.665  0.00  0.00    +0.000 C 
ATOM     27  C   UNL     1      50.032   9.538  11.542  0.00  0.00    +0.000 C 
ATOM     28  C   UNL     1      49.996   8.004  11.534  0.00  0.00    +0.000 C 
ENDBRANCH  24  25
ENDBRANCH  20  24
ENDBRANCH  15  18
ENDBRANCH   1  15
TORSDOF 6
ENDMDL
MODEL 3
REMARK VINA RESULT:    -7.875      2.880      8.091
REMARK INTER + INTRA:         -11.754
REMARK INTER:                 -10.862
REMARK INTRA:                  -0.892
REMARK UNBOUND:                -1.117
REMARK  Name = 
REMARK  6 active torsions:
REMARK  status: ('A' for Active; 'I' for Inactive)
REMARK    1  A    between atoms: C_2  and  C_4
REMARK    2  A    between atoms: N_8  and  C_9
REMARK    3  A    between atoms: C_9  and  C_10
REMARK    4  A    between atoms: C_10  and  C_13
REMARK    5  A    between atoms: C_15  and  O_16
REMARK    6  A    between atoms: O_16  and  C_17
REMARK                            x       y       z     vdW  Elec       q    Type
REMARK                         _______ _______ _______ _____ _____    ______ ____
ROOT
ATOM      1  C   UNL     1      46.929   5.909  13.018  0.00  0.00    +0.000 C 
ENDROOT
BRANCH   1   6
ATOM      2  C   UNL     1      48.318   4.361  17.717  0.00  0.00    +0.000 A 
ATOM      3  C   UNL     1      48.668   5.483  16.978  0.00  0.00    +0.000 A 
ATOM      4  C   UNL     1      48.127   5.649  15.702  0.00  0.00    +0.000 A 
ATOM      5  C   UNL     1      47.258   4.695  15.179  0.00  0.00    +0.000 A 
ATOM      6  N   UNL     1      46.679   4.803  13.943  0.00  0.00    +0.000 N 
ATOM      7  N   UNL     1      46.929   3.595  15.883  0.00  0.00    +0.000 NA
ATOM      8  C   UNL     1      47.465   3.443  17.126  0.00  0.00    +0.000 A 
ATOM      9  H   UNL     1      46.109   4.014  13.663  0.00  0.00    +0.000 HD
BRANCH   2  11
ATOM     10  N   UNL     1      48.354   3.004  19.735  0.00  0.00    +0.000 N 
ATOM     11  C   UNL     1      48.837   4.103  19.077  0.00  0.00    +0.000 C 
ATOM     12  O   UNL     1      49.681   4.824  19.587  0.00  0.00    +0.000 OA
ATOM     13  H   UNL     1      48.783   2.788  20.626  0.00  0.00    +0.000 HD
ATOM     14  H   UNL     1      47.853   2.262  19.267  0.00  0.00    +0.000 HD
ENDBRANCH   2  11
ENDBRANCH   1   6
BRANCH   1  15
ATOM     15  C   UNL     1      45.702   6.342  12.182  0.00  0.00    +0.000 C 
ATOM     16  F   UNL     1      44.735   6.797  13.039  0.00  0.00    +0.000 F 
ATOM     17  F   UNL     1      46.043   7.430  11.425  0.00  0.00    +0.000 F 
BRANCH  15  18
ATOM     18  C   UNL     1      45.181   5.195  11.319  0.00  0.00    +0.000 A 
ATOM     19  C   UNL     1      45.536   5.154   9.969  0.00  0.00    +0.000 A 
ATOM     20  C   UNL     1      44.990   4.157   9.166  0.00  0.00    +0.000 A 
ATOM     21  C   UNL     1      44.157   3.200   9.727  0.00  0.00    +0.000 A 
ATOM     22  C   UNL     1      43.873   3.288  11.075  0.00  0.00    +0.000 A 
ATOM     23  N   UNL     1      44.356   4.261  11.875  0.00  0.00    +0.000 NA
BRANCH  20  24
ATOM     24  O   UNL     1      45.224   4.031   7.818  0.00  0.00    +0.000 OA
BRANCH  24  25
ATOM     25  C   UNL     1      46.529   3.585   7.384  0.00  0.00    +0.000 C 
ATOM     26  C   UNL     1      46.713   3.313   5.870  0.00  0.00    +0.000 C 
ATOM     27  C   UNL     1      47.390   1.980   6.212  0.00  0.00    +0.000 C 
ATOM     28  C   UNL     1      46.809   2.082   7.628  0.00  0.00    +0.000 C 
ENDBRANCH  24  25
ENDBRANCH  20  24
ENDBRANCH  15  18
ENDBRANCH   1  15
TORSDOF 6
ENDMDL
MODEL 4
REMARK VINA RESULT:    -7.324      3.056      6.925
REMARK INTER + INTRA:         -11.010
REMARK INTER:                  -9.936
REMARK INTRA:                  -1.074
REMARK UNBOUND:                -1.117
REMARK  Name = 
REMARK  6 active torsions:
REMARK  status: ('A' for Active; 'I' for Inactive)
REMARK    1  A    between atoms: C_2  and  C_4
REMARK    2  A    between atoms: N_8  and  C_9
REMARK    3  A    between atoms: C_9  and  C_10
REMARK    4  A    between atoms: C_10  and  C_13
REMARK    5  A    between atoms: C_15  and  O_16
REMARK    6  A    between atoms: O_16  and  C_17
REMARK                            x       y       z     vdW  Elec       q    Type
REMARK                         _______ _______ _______ _____ _____    ______ ____
ROOT
ATOM      1  C   UNL     1      43.730   5.705  12.924  0.00  0.00    +0.000 C 
ENDROOT
BRANCH   1   6
ATOM      2  C   UNL     1      48.358   7.899  12.496  0.00  0.00    +0.000 A 
ATOM      3  C   UNL     1      47.077   8.421  12.368  0.00  0.00    +0.000 A 
ATOM      4  C   UNL     1      45.981   7.575  12.540  0.00  0.00    +0.000 A 
ATOM      5  C   UNL     1      46.174   6.226  12.825  0.00  0.00    +0.000 A 
ATOM      6  N   UNL     1      45.145   5.344  13.022  0.00  0.00    +0.000 N 
ATOM      7  N   UNL     1      47.413   5.709  12.932  0.00  0.00    +0.000 NA
ATOM      8  C   UNL     1      48.475   6.544  12.760  0.00  0.00    +0.000 A 
ATOM      9  H   UNL     1      45.424   4.381  13.170  0.00  0.00    +0.000 HD
BRANCH   2  11
ATOM     10  N   UNL     1      49.954   9.497  13.396  0.00  0.00    +0.000 N 
ATOM     11  C   UNL     1      49.577   8.718  12.335  0.00  0.00    +0.000 C 
ATOM     12  O   UNL     1      50.240   8.686  11.309  0.00  0.00    +0.000 OA
ATOM     13  H   UNL     1      50.839   9.982  13.307  0.00  0.00    +0.000 HD
ATOM     14  H   UNL     1      49.584   9.370  14.328  0.00  0.00    +0.000 HD
ENDBRANCH   2  11
ENDBRANCH   1   6
BRANCH   1  15
ATOM     15  C   UNL     1      43.136   5.608  11.499  0.00  0.00    +0.000 C 
ATOM     16  F   UNL     1      41.785   5.403  11.608  0.00  0.00    +0.000 F 
ATOM     17  F   UNL     1      43.259   6.824  10.883  0.00  0.00    +0.000 F 
BRANCH  15  18
ATOM     18  C   UNL     1      43.801   4.496  10.690  0.00  0.00    +0.000 A 
ATOM     19  C   UNL     1      44.649   4.845   9.638  0.00  0.00    +0.000 A 
ATOM     20  C   UNL     1      45.185   3.832   8.849  0.00  0.00    +0.000 A 
ATOM     21  C   UNL     1      44.915   2.506   9.154  0.00  0.00    +0.000 A 
ATOM     22  C   UNL     1      44.091   2.236  10.228  0.00  0.00    +0.000 A 
ATOM     23  N   UNL     1      43.526   3.194  10.992  0.00  0.00    +0.000 NA
BRANCH  20  24
ATOM     24  O   UNL     1      45.996   4.043   7.760  0.00  0.00    +0.000 OA
BRANCH  24  25
ATOM     25  C   UNL     1      46.303   2.920   6.903  0.00  0.00    +0.000 C 
ATOM     26  C   UNL     1      47.708   2.284   7.051  0.00  0.00    +0.000 C 
ATOM     27  C   UNL     1      47.856   2.305   5.524  0.00  0.00    +0.000 C 
ATOM     28  C   UNL     1      46.692   3.303   5.455  0.00  0.00    +0.000 C 
ENDBRANCH  24  25
ENDBRANCH  20  24
ENDBRANCH  15  18
ENDBRANCH   1  15
TORSDOF 6
ENDMDL
MODEL 5
REMARK VINA RESULT:    -7.135      3.081      7.962
REMARK INTER + INTRA:         -10.754
REMARK INTER:                 -10.403
REMARK INTRA:                  -0.350
REMARK UNBOUND:                -1.117
REMARK  Name = 
REMARK  6 active torsions:
REMARK  status: ('A' for Active; 'I' for Inactive)
REMARK    1  A    between atoms: C_2  and  C_4
REMARK    2  A    between atoms: N_8  and  C_9
REMARK    3  A    between atoms: C_9  and  C_10
REMARK    4  A    between atoms: C_10  and  C_13
REMARK    5  A    between atoms: C_15  and  O_16
REMARK    6  A    between atoms: O_16  and  C_17
REMARK                            x       y       z     vdW  Elec       q    Type
REMARK                         _______ _______ _______ _____ _____    ______ ____
ROOT
ATOM      1  C   UNL     1      47.410   6.073  13.206  0.00  0.00    +0.000 C 
ENDROOT
BRANCH   1   6
ATOM      2  C   UNL     1      48.282   4.514  18.025  0.00  0.00    +0.000 A 
ATOM      3  C   UNL     1      48.885   5.500  17.254  0.00  0.00    +0.000 A 
ATOM      4  C   UNL     1      48.435   5.708  15.950  0.00  0.00    +0.000 A 
ATOM      5  C   UNL     1      47.403   4.930  15.431  0.00  0.00    +0.000 A 
ATOM      6  N   UNL     1      46.902   5.092  14.167  0.00  0.00    +0.000 N 
ATOM      7  N   UNL     1      46.826   3.961  16.166  0.00  0.00    +0.000 NA
ATOM      8  C   UNL     1      47.276   3.765  17.437  0.00  0.00    +0.000 A 
ATOM      9  H   UNL     1      46.188   4.426  13.897  0.00  0.00    +0.000 HD
BRANCH   2  11
ATOM     10  N   UNL     1      48.306   3.021  19.944  0.00  0.00    +0.000 N 
ATOM     11  C   UNL     1      48.689   4.224  19.416  0.00  0.00    +0.000 C 
ATOM     12  O   UNL     1      49.361   5.013  20.064  0.00  0.00    +0.000 OA
ATOM     13  H   UNL     1      48.667   2.797  20.863  0.00  0.00    +0.000 HD
ATOM     14  H   UNL     1      47.970   2.256  19.377  0.00  0.00    +0.000 HD
ENDBRANCH   2  11
ENDBRANCH   1   6
BRANCH   1  15
ATOM     15  C   UNL     1      46.397   6.492  12.115  0.00  0.00    +0.000 C 
ATOM     16  F   UNL     1      45.959   7.760  12.397  0.00  0.00    +0.000 F 
ATOM     17  F   UNL     1      47.055   6.605  10.919  0.00  0.00    +0.000 F 
BRANCH  15  18
ATOM     18  C   UNL     1      45.231   5.510  12.027  0.00  0.00    +0.000 A 
ATOM     19  C   UNL     1      45.364   4.379  11.220  0.00  0.00    +0.000 A 
ATOM     20  C   UNL     1      44.270   3.532  11.074  0.00  0.00    +0.000 A 
ATOM     21  C   UNL     1      43.099   3.794  11.769  0.00  0.00    +0.000 A 
ATOM     22  C   UNL     1      43.050   4.917  12.571  0.00  0.00    +0.000 A 
ATOM     23  N   UNL     1      44.080   5.778  12.707  0.00  0.00    +0.000 NA
BRANCH  20  24
ATOM     24  O   UNL     1      44.256   2.413  10.278  0.00  0.00    +0.000 OA
BRANCH  24  25
ATOM     25  C   UNL     1      44.495   2.572   8.861  0.00  0.00    +0.000 C 
ATOM     26  C   UNL     1      45.898   2.183   8.334  0.00  0.00    +0.000 C 
ATOM     27  C   UNL     1      45.948   3.501   7.552  0.00  0.00    +0.000 C 
ATOM     28  C   UNL     1      44.794   4.024   8.418  0.00  0.00    +0.000 C 
ENDBRANCH  24  25
ENDBRANCH  20  24
ENDBRANCH  15  18
ENDBRANCH   1  15
TORSDOF 6
ENDMDL
MODEL 6
REMARK VINA RESULT:    -6.846      3.381      4.748
REMARK INTER + INTRA:         -10.364
REMARK INTER:                  -9.137
REMARK INTRA:                  -1.227
REMARK UNBOUND:                -1.117
REMARK  Name = 
REMARK  6 active torsions:
REMARK  status: ('A' for Active; 'I' for Inactive)
REMARK    1  A    between atoms: C_2  and  C_4
REMARK    2  A    between atoms: N_8  and  C_9
REMARK    3  A    between atoms: C_9  and  C_10
REMARK    4  A    between atoms: C_10  and  C_13
REMARK    5  A    between atoms: C_15  and  O_16
REMARK    6  A    between atoms: O_16  and  C_17
REMARK                            x       y       z     vdW  Elec       q    Type
REMARK                         _______ _______ _______ _____ _____    ______ ____
ROOT
ATOM      1  C   UNL     1      46.575   8.714  12.254  0.00  0.00    +0.000 C 
ENDROOT
BRANCH   1   6
ATOM      2  C   UNL     1      44.326   4.157  11.485  0.00  0.00    +0.000 A 
ATOM      3  C   UNL     1      45.150   4.924  10.672  0.00  0.00    +0.000 A 
ATOM      4  C   UNL     1      45.624   6.147  11.151  0.00  0.00    +0.000 A 
ATOM      5  C   UNL     1      45.264   6.590  12.421  0.00  0.00    +0.000 A 
ATOM      6  N   UNL     1      45.706   7.769  12.958  0.00  0.00    +0.000 N 
ATOM      7  N   UNL     1      44.451   5.859  13.207  0.00  0.00    +0.000 NA
ATOM      8  C   UNL     1      43.993   4.670  12.728  0.00  0.00    +0.000 A 
ATOM      9  H   UNL     1      45.326   7.997  13.870  0.00  0.00    +0.000 HD
BRANCH   2  11
ATOM     10  N   UNL     1      44.311   2.278   9.940  0.00  0.00    +0.000 N 
ATOM     11  C   UNL     1      43.780   2.849  11.066  0.00  0.00    +0.000 C 
ATOM     12  O   UNL     1      42.909   2.283  11.709  0.00  0.00    +0.000 OA
ATOM     13  H   UNL     1      43.994   1.344   9.716  0.00  0.00    +0.000 HD
ATOM     14  H   UNL     1      45.181   2.586   9.529  0.00  0.00    +0.000 HD
ENDBRANCH   2  11
ENDBRANCH   1   6
BRANCH   1  15
ATOM     15  C   UNL     1      48.088   8.495  12.486  0.00  0.00    +0.000 C 
ATOM     16  F   UNL     1      48.501   7.457  11.692  0.00  0.00    +0.000 F 
ATOM     17  F   UNL     1      48.770   9.587  12.021  0.00  0.00    +0.000 F 
BRANCH  15  18
ATOM     18  C   UNL     1      48.395   8.222  13.957  0.00  0.00    +0.000 A 
ATOM     19  C   UNL     1      48.843   6.953  14.327  0.00  0.00    +0.000 A 
ATOM     20  C   UNL     1      49.039   6.682  15.677  0.00  0.00    +0.000 A 
ATOM     21  C   UNL     1      48.841   7.683  16.616  0.00  0.00    +0.000 A 
ATOM     22  C   UNL     1      48.424   8.923  16.174  0.00  0.00    +0.000 A 
ATOM     23  N   UNL     1      48.191   9.210  14.876  0.00  0.00    +0.000 NA
BRANCH  20  24
ATOM     24  O   UNL     1      49.435   5.465  16.175  0.00  0.00    +0.000 OA
BRANCH  24  25
ATOM     25  C   UNL     1      48.577   4.798  17.128  0.00  0.00    +0.000 C 
ATOM     26  C   UNL     1      49.008   3.386  17.598  0.00  0.00    +0.000 C 
ATOM     27  C   UNL     1      47.576   2.891  17.359  0.00  0.00    +0.000 C 
ATOM     28  C   UNL     1      47.316   4.145  16.513  0.00  0.00    +0.000 C 
ENDBRANCH  24  25
ENDBRANCH  20  24
ENDBRANCH  15  18
ENDBRANCH   1  15
TORSDOF 6
ENDMDL
MODEL 7
REMARK VINA RESULT:    -6.429      4.486      6.628
REMARK INTER + INTRA:          -9.801
REMARK INTER:                  -9.124
REMARK INTRA:                  -0.677
REMARK UNBOUND:                -1.117
REMARK  Name = 
REMARK  6 active torsions:
REMARK  status: ('A' for Active; 'I' for Inactive)
REMARK    1  A    between atoms: C_2  and  C_4
REMARK    2  A    between atoms: N_8  and  C_9
REMARK    3  A    between atoms: C_9  and  C_10
REMARK    4  A    between atoms: C_10  and  C_13
REMARK    5  A    between atoms: C_15  and  O_16
REMARK    6  A    between atoms: O_16  and  C_17
REMARK                            x       y       z     vdW  Elec       q    Type
REMARK                         _______ _______ _______ _____ _____    ______ ____
ROOT
ATOM      1  C   UNL     1      47.674   4.470  16.021  0.00  0.00    +0.000 C 
ENDROOT
BRANCH   1   6
ATOM      2  C   UNL     1      44.792   4.714  11.772  0.00  0.00    +0.000 A 
ATOM      3  C   UNL     1      45.202   5.698  12.664  0.00  0.00    +0.000 A 
ATOM      4  C   UNL     1      45.996   5.336  13.753  0.00  0.00    +0.000 A 
ATOM      5  C   UNL     1      46.361   4.006  13.943  0.00  0.00    +0.000 A 
ATOM      6  N   UNL     1      47.151   3.584  14.979  0.00  0.00    +0.000 N 
ATOM      7  N   UNL     1      45.953   3.045  13.093  0.00  0.00    +0.000 NA
ATOM      8  C   UNL     1      45.176   3.409  12.036  0.00  0.00    +0.000 A 
ATOM      9  H   UNL     1      47.297   2.583  15.031  0.00  0.00    +0.000 HD
BRANCH   2  11
ATOM     10  N   UNL     1      44.502   4.761   9.358  0.00  0.00    +0.000 N 
ATOM     11  C   UNL     1      43.955   5.003  10.590  0.00  0.00    +0.000 C 
ATOM     12  O   UNL     1      42.810   5.416  10.701  0.00  0.00    +0.000 OA
ATOM     13  H   UNL     1      43.888   4.876   8.562  0.00  0.00    +0.000 HD
ATOM     14  H   UNL     1      45.333   4.202   9.229  0.00  0.00    +0.000 HD
ENDBRANCH   2  11
ENDBRANCH   1   6
BRANCH   1  15
ATOM     15  C   UNL     1      47.953   3.779  17.376  0.00  0.00    +0.000 C 
ATOM     16  F   UNL     1      47.445   4.568  18.376  0.00  0.00    +0.000 F 
ATOM     17  F   UNL     1      47.228   2.619  17.440  0.00  0.00    +0.000 F 
BRANCH  15  18
ATOM     18  C   UNL     1      49.445   3.524  17.577  0.00  0.00    +0.000 A 
ATOM     19  C   UNL     1      49.984   2.311  17.145  0.00  0.00    +0.000 A 
ATOM     20  C   UNL     1      51.324   2.046  17.407  0.00  0.00    +0.000 A 
ATOM     21  C   UNL     1      52.106   3.004  18.036  0.00  0.00    +0.000 A 
ATOM     22  C   UNL     1      51.511   4.192  18.409  0.00  0.00    +0.000 A 
ATOM     23  N   UNL     1      50.206   4.467  18.203  0.00  0.00    +0.000 NA
BRANCH  20  24
ATOM     24  O   UNL     1      51.964   0.876  17.074  0.00  0.00    +0.000 OA
BRANCH  24  25
ATOM     25  C   UNL     1      53.365   0.740  17.401  0.00  0.00    +0.000 C 
ATOM     26  C   UNL     1      54.250  -0.043  16.400  0.00  0.00    +0.000 C 
ATOM     27  C   UNL     1      54.849  -0.828  17.574  0.00  0.00    +0.000 C 
ATOM     28  C   UNL     1      53.678  -0.357  18.447  0.00  0.00    +0.000 C 
ENDBRANCH  24  25
ENDBRANCH  20  24
ENDBRANCH  15  18
ENDBRANCH   1  15
TORSDOF 6
ENDMDL
MODEL 8
REMARK VINA RESULT:    -6.253      2.765      6.893
REMARK INTER + INTRA:          -9.563
REMARK INTER:                  -8.970
REMARK INTRA:                  -0.593
REMARK UNBOUND:                -1.117
REMARK  Name = 
REMARK  6 active torsions:
REMARK  status: ('A' for Active; 'I' for Inactive)
REMARK    1  A    between atoms: C_2  and  C_4
REMARK    2  A    between atoms: N_8  and  C_9
REMARK    3  A    between atoms: C_9  and  C_10
REMARK    4  A    between atoms: C_10  and  C_13
REMARK    5  A    between atoms: C_15  and  O_16
REMARK    6  A    between atoms: O_16  and  C_17
REMARK                            x       y       z     vdW  Elec       q    Type
REMARK                         _______ _______ _______ _____ _____    ______ ____
ROOT
ATOM      1  C   UNL     1      46.091   4.401  13.580  0.00  0.00    +0.000 C 
ENDROOT
BRANCH   1   6
ATOM      2  C   UNL     1      48.828   8.555  12.287  0.00  0.00    +0.000 A 
ATOM      3  C   UNL     1      48.275   7.541  11.515  0.00  0.00    +0.000 A 
ATOM      4  C   UNL     1      47.568   6.518  12.148  0.00  0.00    +0.000 A 
ATOM      5  C   UNL     1      47.431   6.513  13.534  0.00  0.00    +0.000 A 
ATOM      6  N   UNL     1      46.738   5.550  14.217  0.00  0.00    +0.000 N 
ATOM      7  N   UNL     1      47.980   7.483  14.289  0.00  0.00    +0.000 NA
ATOM      8  C   UNL     1      48.669   8.475  13.661  0.00  0.00    +0.000 A 
ATOM      9  H   UNL     1      46.760   5.636  15.226  0.00  0.00    +0.000 HD
BRANCH   2  11
ATOM     10  N   UNL     1      50.944   9.688  11.896  0.00  0.00    +0.000 N 
ATOM     11  C   UNL     1      49.588   9.681  11.705  0.00  0.00    +0.000 C 
ATOM     12  O   UNL     1      49.038  10.558  11.057  0.00  0.00    +0.000 OA
ATOM     13  H   UNL     1      51.463  10.413  11.417  0.00  0.00    +0.000 HD
ATOM     14  H   UNL     1      51.458   8.875  12.206  0.00  0.00    +0.000 HD
ENDBRANCH   2  11
ENDBRANCH   1   6
BRANCH   1  15
ATOM     15  C   UNL     1      44.670   4.679  13.036  0.00  0.00    +0.000 C 
ATOM     16  F   UNL     1      43.773   3.972  13.792  0.00  0.00    +0.000 F 
ATOM     17  F   UNL     1      44.360   5.994  13.258  0.00  0.00    +0.000 F 
BRANCH  15  18
ATOM     18  C   UNL     1      44.557   4.314  11.557  0.00  0.00    +0.000 A 
ATOM     19  C   UNL     1      45.231   3.185  11.089  0.00  0.00    +0.000 A 
ATOM     20  C   UNL     1      45.196   2.904   9.727  0.00  0.00    +0.000 A 
ATOM     21  C   UNL     1      44.455   3.711   8.877  0.00  0.00    +0.000 A 
ATOM     22  C   UNL     1      43.791   4.795   9.415  0.00  0.00    +0.000 A 
ATOM     23  N   UNL     1      43.833   5.117  10.725  0.00  0.00    +0.000 NA
BRANCH  20  24
ATOM     24  O   UNL     1      45.850   1.852   9.135  0.00  0.00    +0.000 OA
BRANCH  24  25
ATOM     25  C   UNL     1      46.130   1.924   7.718  0.00  0.00    +0.000 C 
ATOM     26  C   UNL     1      47.140   0.898   7.146  0.00  0.00    +0.000 C 
ATOM     27  C   UNL     1      47.848   2.039   6.405  0.00  0.00    +0.000 C 
ATOM     28  C   UNL     1      47.122   3.040   7.314  0.00  0.00    +0.000 C 
ENDBRANCH  24  25
ENDBRANCH  20  24
ENDBRANCH  15  18
ENDBRANCH   1  15
TORSDOF 6
ENDMDL
