MODEL 1
REMARK VINA RESULT:    -7.702      0.000      0.000
REMARK INTER + INTRA:         -11.627
REMARK INTER:                 -10.404
REMARK INTRA:                  -1.222
REMARK UNBOUND:                -1.222
REMARK  Name = 
REMARK  7 active torsions:
REMARK  status: ('A' for Active; 'I' for Inactive)
REMARK    1  A    between atoms: C_1  and  O_2
REMARK    2  A    between atoms: O_2  and  C_3
REMARK    3  A    between atoms: C_5  and  C_6
REMARK    4  A    between atoms: C_11  and  O_12
REMARK    5  A    between atoms: O_12  and  C_13
REMARK    6  A    between atoms: C_13  and  C_14
REMARK    7  A    between atoms: C_19  and  C_20
REMARK                            x       y       z     vdW  Elec       q    Type
REMARK                         _______ _______ _______ _____ _____    ______ ____
ROOT
ATOM      1  O   UNL     1      44.712   6.919  12.307  0.00  0.00    +0.000 OA
ENDROOT
BRANCH   1   7
ATOM      2  C   UNL     1      46.850   6.161  13.367  0.00  0.00    +0.000 A 
ATOM      3  C   UNL     1      48.212   6.457  13.530  0.00  0.00    +0.000 A 
ATOM      4  C   UNL     1      48.795   7.594  12.952  0.00  0.00    +0.000 A 
ATOM      5  C   UNL     1      47.998   8.445  12.181  0.00  0.00    +0.000 A 
ATOM      6  C   UNL     1      46.643   8.152  12.008  0.00  0.00    +0.000 A 
ATOM      7  C   UNL     1      46.053   7.020  12.592  0.00  0.00    +0.000 A 
BRANCH   4   8
ATOM      8  C   UNL     1      50.252   7.808  13.194  0.00  0.00    +0.000 C 
ATOM      9  N   UNL     1      50.763   7.545  14.432  0.00  0.00    +0.000 N 
ATOM     10  O   UNL     1      50.993   8.209  12.305  0.00  0.00    +0.000 OA
ATOM     11  H   UNL     1      50.235   7.224  15.227  0.00  0.00    +0.000 HD
ATOM     12  H   UNL     1      51.754   7.708  14.554  0.00  0.00    +0.000 HD
ENDBRANCH   4   8
BRANCH   2  14
ATOM     13  C   UNL     1      46.747   3.777  13.389  0.00  0.00    +0.000 C 
ATOM     14  O   UNL     1      46.291   5.026  13.895  0.00  0.00    +0.000 OA
ENDBRANCH   2  14
ENDBRANCH   1   7
BRANCH   1  15
ATOM     15  C   UNL     1      44.336   6.630  10.961  0.00  0.00    +0.000 C 
BRANCH  15  16
ATOM     16  C   UNL     1      44.446   5.149  10.663  0.00  0.00    +0.000 A 
ATOM     17  C   UNL     1      43.655   4.245  11.380  0.00  0.00    +0.000 A 
ATOM     18  C   UNL     1      43.679   2.897  11.053  0.00  0.00    +0.000 A 
ATOM     19  F   UNL     1      42.911   2.040  11.740  0.00  0.00    +0.000 F 
ATOM     20  C   UNL     1      44.465   2.423  10.007  0.00  0.00    +0.000 A 
ATOM     21  C   UNL     1      45.249   3.301   9.242  0.00  0.00    +0.000 A 
ATOM     22  C   UNL     1      45.228   4.666   9.598  0.00  0.00    +0.000 A 
BRANCH  21  23
ATOM     23  C   UNL     1      46.025   2.826   8.077  0.00  0.00    +0.000 A 
ATOM     24  C   UNL     1      46.318   3.649   6.981  0.00  0.00    +0.000 A 
ATOM     25  C   UNL     1      47.020   3.151   5.882  0.00  0.00    +0.000 A 
ATOM     26  C   UNL     1      47.429   1.830   5.908  0.00  0.00    +0.000 A 
ATOM     27  N   UNL     1      47.184   0.996   6.934  0.00  0.00    +0.000 NA
ATOM     28  C   UNL     1      46.491   1.510   7.982  0.00  0.00    +0.000 A 
ENDBRANCH  21  23
ENDBRANCH  15  16
ENDBRANCH   1  15
TORSDOF 6
ENDMDL
MODEL 2
REMARK VINA RESULT:    -7.364      2.525      6.707
REMARK INTER + INTRA:         -11.169
REMARK INTER:                 -10.953
REMARK INTRA:                  -0.216
REMARK UNBOUND:                -1.222
REMARK  Name = 
REMARK  7 active torsions:
REMARK  status: ('A' for Active; 'I' for Inactive)
REMARK    1  A    between atoms: C_1  and  O_2
REMARK    2  A    between atoms: O_2  and  C_3
REMARK    3  A    between atoms: C_5  and  C_6
REMARK    4  A    between atoms: C_11  and  O_12
REMARK    5  A    between atoms: O_12  and  C_13
REMARK    6  A    between atoms: C_13  and  C_14
REMARK    7  A    between atoms: C_19  and  C_20
REMARK                            x       y       z     vdW  Elec       q    Type
REMARK                         _______ _______ _______ _____ _____    ______ ____
ROOT
ATOM      1  O   UNL     1      44.086   4.942  10.332  0.00  0.00    +0.000 OA
ENDROOT
BRANCH   1   7
ATOM      2  C   UNL     1      44.724   2.659   9.527  0.00  0.00    +0.000 A 
ATOM      3  C   UNL     1      45.546   1.949   8.638  0.00  0.00    +0.000 A 
ATOM      4  C   UNL     1      46.445   2.602   7.781  0.00  0.00    +0.000 A 
ATOM      5  C   UNL     1      46.510   3.998   7.806  0.00  0.00    +0.000 A 
ATOM      6  C   UNL     1      45.689   4.711   8.683  0.00  0.00    +0.000 A 
ATOM      7  C   UNL     1      44.793   4.062   9.548  0.00  0.00    +0.000 A 
BRANCH   4   8
ATOM      8  C   UNL     1      47.269   1.745   6.881  0.00  0.00    +0.000 C 
ATOM      9  N   UNL     1      48.300   2.311   6.189  0.00  0.00    +0.000 N 
ATOM     10  O   UNL     1      47.041   0.547   6.757  0.00  0.00    +0.000 OA
ATOM     11  H   UNL     1      48.559   3.284   6.215  0.00  0.00    +0.000 HD
ATOM     12  H   UNL     1      48.831   1.695   5.586  0.00  0.00    +0.000 HD
ENDBRANCH   4   8
BRANCH   2  14
ATOM     13  C   UNL     1      43.581   2.580  11.620  0.00  0.00    +0.000 C 
ATOM     14  O   UNL     1      43.815   2.023  10.331  0.00  0.00    +0.000 OA
ENDBRANCH   2  14
ENDBRANCH   1   7
BRANCH   1  15
ATOM     15  C   UNL     1      44.671   6.216  10.599  0.00  0.00    +0.000 C 
BRANCH  15  16
ATOM     16  C   UNL     1      45.681   6.133  11.725  0.00  0.00    +0.000 A 
ATOM     17  C   UNL     1      45.449   5.258  12.792  0.00  0.00    +0.000 A 
ATOM     18  C   UNL     1      46.409   5.106  13.781  0.00  0.00    +0.000 A 
ATOM     19  F   UNL     1      46.181   4.259  14.794  0.00  0.00    +0.000 F 
ATOM     20  C   UNL     1      47.616   5.796  13.726  0.00  0.00    +0.000 A 
ATOM     21  C   UNL     1      47.903   6.659  12.656  0.00  0.00    +0.000 A 
ATOM     22  C   UNL     1      46.908   6.818  11.667  0.00  0.00    +0.000 A 
BRANCH  21  23
ATOM     23  C   UNL     1      49.213   7.335  12.540  0.00  0.00    +0.000 A 
ATOM     24  C   UNL     1      49.809   7.613  11.302  0.00  0.00    +0.000 A 
ATOM     25  C   UNL     1      51.066   8.217  11.236  0.00  0.00    +0.000 A 
ATOM     26  C   UNL     1      51.700   8.545  12.420  0.00  0.00    +0.000 A 
ATOM     27  N   UNL     1      51.173   8.311  13.635  0.00  0.00    +0.000 NA
ATOM     28  C   UNL     1      49.954   7.713  13.663  0.00  0.00    +0.000 A 
ENDBRANCH  21  23
ENDBRANCH  15  16
ENDBRANCH   1  15
TORSDOF 6
ENDMDL
MODEL 3
REMARK VINA RESULT:    -7.184      1.463      2.103
REMARK INTER + INTRA:         -10.927
REMARK INTER:                 -10.021
REMARK INTRA:                  -0.905
REMARK UNBOUND:                -1.222
REMARK  Name = 
REMARK  7 active torsions:
REMARK  status: ('A' for Active; 'I' for Inactive)
REMARK    1  A    between atoms: C_1  and  O_2
REMARK    2  A    between atoms: O_2  and  C_3
REMARK    3  A    between atoms: C_5  and  C_6
REMARK    4  A    between atoms: C_11  and  O_12
REMARK    5  A    between atoms: O_12  and  C_13
REMARK    6  A    between atoms: C_13  and  C_14
REMARK    7  A    between atoms: C_19  and  C_20
REMARK                            x       y       z     vdW  Elec       q    Type
REMARK                         _______ _______ _______ _____ _____    ______ ____
ROOT
ATOM      1  O   UNL     1      45.354   7.115  10.949  0.00  0.00    +0.000 OA
ENDROOT
BRANCH   1   7
ATOM      2  C   UNL     1      46.236   8.481  12.853  0.00  0.00    +0.000 A 
ATOM      3  C   UNL     1      47.261   8.586  13.805  0.00  0.00    +0.000 A 
ATOM      4  C   UNL     1      48.307   7.652  13.872  0.00  0.00    +0.000 A 
ATOM      5  C   UNL     1      48.315   6.582  12.972  0.00  0.00    +0.000 A 
ATOM      6  C   UNL     1      47.294   6.468  12.026  0.00  0.00    +0.000 A 
ATOM      7  C   UNL     1      46.250   7.404  11.951  0.00  0.00    +0.000 A 
BRANCH   4   8
ATOM      8  C   UNL     1      49.342   7.865  14.924  0.00  0.00    +0.000 C 
ATOM      9  N   UNL     1      50.605   7.391  14.716  0.00  0.00    +0.000 N 
ATOM     10  O   UNL     1      49.081   8.459  15.964  0.00  0.00    +0.000 OA
ATOM     11  H   UNL     1      50.913   6.883  13.904  0.00  0.00    +0.000 HD
ATOM     12  H   UNL     1      51.275   7.553  15.458  0.00  0.00    +0.000 HD
ENDBRANCH   4   8
BRANCH   2  14
ATOM     13  C   UNL     1      45.280  10.443  11.888  0.00  0.00    +0.000 C 
ATOM     14  O   UNL     1      45.192   9.369  12.818  0.00  0.00    +0.000 OA
ENDBRANCH   2  14
ENDBRANCH   1   7
BRANCH   1  15
ATOM     15  C   UNL     1      44.185   6.372  11.293  0.00  0.00    +0.000 C 
BRANCH  15  16
ATOM     16  C   UNL     1      44.320   4.918  10.895  0.00  0.00    +0.000 A 
ATOM     17  C   UNL     1      43.546   3.952  11.548  0.00  0.00    +0.000 A 
ATOM     18  C   UNL     1      43.593   2.630  11.130  0.00  0.00    +0.000 A 
ATOM     19  F   UNL     1      42.841   1.716  11.756  0.00  0.00    +0.000 F 
ATOM     20  C   UNL     1      44.385   2.243  10.054  0.00  0.00    +0.000 A 
ATOM     21  C   UNL     1      45.153   3.185   9.350  0.00  0.00    +0.000 A 
ATOM     22  C   UNL     1      45.109   4.522   9.799  0.00  0.00    +0.000 A 
BRANCH  21  23
ATOM     23  C   UNL     1      45.935   2.804   8.154  0.00  0.00    +0.000 A 
ATOM     24  C   UNL     1      46.189   3.698   7.105  0.00  0.00    +0.000 A 
ATOM     25  C   UNL     1      46.899   3.288   5.975  0.00  0.00    +0.000 A 
ATOM     26  C   UNL     1      47.354   1.983   5.923  0.00  0.00    +0.000 A 
ATOM     27  N   UNL     1      47.147   1.084   6.902  0.00  0.00    +0.000 NA
ATOM     28  C   UNL     1      46.446   1.514   7.982  0.00  0.00    +0.000 A 
ENDBRANCH  21  23
ENDBRANCH  15  16
ENDBRANCH   1  15
TORSDOF 6
ENDMDL
MODEL 4
REMARK VINA RESULT:    -6.783      2.405      3.534
REMARK INTER + INTRA:         -10.385
REMARK INTER:                  -9.763
REMARK INTRA:                  -0.621
REMARK UNBOUND:                -1.222
REMARK  Name = 
REMARK  7 active torsions:
REMARK  status: ('A' for Active; 'I' for Inactive)
REMARK    1  A    between atoms: C_1  and  O_2
REMARK    2  A    between atoms: O_2  and  C_3
REMARK    3  A    between atoms: C_5  and  C_6
REMARK    4  A    between atoms: C_11  and  O_12
REMARK    5  A    between atoms: O_12  and  C_13
REMARK    6  A    between atoms: C_13  and  C_14
REMARK    7  A    between atoms: C_19  and  C_20
REMARK                            x       y       z     vdW  Elec       q    Type
REMARK                         _______ _______ _______ _____ _____    ______ ____
ROOT
ATOM      1  O   UNL     1      47.559   6.821  12.565  0.00  0.00    +0.000 OA
ENDROOT
BRANCH   1   7
ATOM      2  C   UNL     1      48.529   6.763  14.872  0.00  0.00    +0.000 A 
ATOM      3  C   UNL     1      48.566   6.047  16.078  0.00  0.00    +0.000 A 
ATOM      4  C   UNL     1      47.843   4.857  16.254  0.00  0.00    +0.000 A 
ATOM      5  C   UNL     1      47.055   4.384  15.201  0.00  0.00    +0.000 A 
ATOM      6  C   UNL     1      47.008   5.095  14.000  0.00  0.00    +0.000 A 
ATOM      7  C   UNL     1      47.736   6.282  13.817  0.00  0.00    +0.000 A 
BRANCH   4   8
ATOM      8  C   UNL     1      47.959   4.181  17.579  0.00  0.00    +0.000 C 
ATOM      9  N   UNL     1      47.400   4.772  18.675  0.00  0.00    +0.000 N 
ATOM     10  O   UNL     1      48.538   3.108  17.698  0.00  0.00    +0.000 OA
ATOM     11  H   UNL     1      46.915   5.655  18.681  0.00  0.00    +0.000 HD
ATOM     12  H   UNL     1      47.506   4.282  19.554  0.00  0.00    +0.000 HD
ENDBRANCH   4   8
BRANCH   2  14
ATOM     13  C   UNL     1      50.587   7.959  15.034  0.00  0.00    +0.000 C 
ATOM     14  O   UNL     1      49.200   7.948  14.717  0.00  0.00    +0.000 OA
ENDBRANCH   2  14
ENDBRANCH   1   7
BRANCH   1  15
ATOM     15  C   UNL     1      46.274   7.350  12.242  0.00  0.00    +0.000 C 
BRANCH  15  16
ATOM     16  C   UNL     1      45.398   6.307  11.582  0.00  0.00    +0.000 A 
ATOM     17  C   UNL     1      44.021   6.309  11.830  0.00  0.00    +0.000 A 
ATOM     18  C   UNL     1      43.196   5.417  11.160  0.00  0.00    +0.000 A 
ATOM     19  F   UNL     1      41.878   5.434  11.398  0.00  0.00    +0.000 F 
ATOM     20  C   UNL     1      43.710   4.525  10.224  0.00  0.00    +0.000 A 
ATOM     21  C   UNL     1      45.081   4.511   9.921  0.00  0.00    +0.000 A 
ATOM     22  C   UNL     1      45.910   5.411  10.625  0.00  0.00    +0.000 A 
BRANCH  21  23
ATOM     23  C   UNL     1      45.630   3.627   8.871  0.00  0.00    +0.000 A 
ATOM     24  C   UNL     1      46.214   4.124   7.697  0.00  0.00    +0.000 A 
ATOM     25  C   UNL     1      46.685   3.255   6.712  0.00  0.00    +0.000 A 
ATOM     26  C   UNL     1      46.572   1.894   6.928  0.00  0.00    +0.000 A 
ATOM     27  N   UNL     1      46.030   1.359   8.036  0.00  0.00    +0.000 NA
ATOM     28  C   UNL     1      45.573   2.233   8.971  0.00  0.00    +0.000 A 
ENDBRANCH  21  23
ENDBRANCH  15  16
ENDBRANCH   1  15
TORSDOF 6
ENDMDL
MODEL 5
REMARK VINA RESULT:    -6.760      3.309      4.309
REMARK INTER + INTRA:         -10.354
REMARK INTER:                  -9.709
REMARK INTRA:                  -0.645
REMARK UNBOUND:                -1.222
REMARK  Name = 
REMARK  7 active torsions:
REMARK  status: ('A' for Active; 'I' for Inactive)
REMARK    1  A    between atoms: C_1  and  O_2
REMARK    2  A    between atoms: O_2  and  C_3
REMARK    3  A    between atoms: C_5  and  C_6
REMARK    4  A    between atoms: C_11  and  O_12
REMARK    5  A    between atoms: O_12  and  C_13
REMARK    6  A    between atoms: C_13  and  C_14
REMARK    7  A    between atoms: C_19  and  C_20
REMARK                            x       y       z     vdW  Elec       q    Type
REMARK                         _______ _______ _______ _____ _____    ______ ____
ROOT
ATOM      1  O   UNL     1      46.932   4.595  14.228  0.00  0.00    +0.000 OA
ENDROOT
BRANCH   1   7
ATOM      2  C   UNL     1      48.538   5.548  15.895  0.00  0.00    +0.000 A 
ATOM      3  C   UNL     1      48.983   5.475  17.224  0.00  0.00    +0.000 A 
ATOM      4  C   UNL     1      48.439   4.558  18.136  0.00  0.00    +0.000 A 
ATOM      5  C   UNL     1      47.417   3.705  17.708  0.00  0.00    +0.000 A 
ATOM      6  C   UNL     1      46.964   3.778  16.389  0.00  0.00    +0.000 A 
ATOM      7  C   UNL     1      47.511   4.689  15.471  0.00  0.00    +0.000 A 
BRANCH   4   8
ATOM      8  C   UNL     1      48.991   4.569  19.522  0.00  0.00    +0.000 C 
ATOM      9  N   UNL     1      48.562   3.628  20.413  0.00  0.00    +0.000 N 
ATOM     10  O   UNL     1      49.823   5.399  19.869  0.00  0.00    +0.000 OA
ATOM     11  H   UNL     1      47.877   2.914  20.226  0.00  0.00    +0.000 HD
ATOM     12  H   UNL     1      48.959   3.675  21.343  0.00  0.00    +0.000 HD
ENDBRANCH   4   8
BRANCH   2  14
ATOM     13  C   UNL     1      48.909   7.847  15.372  0.00  0.00    +0.000 C 
ATOM     14  O   UNL     1      49.039   6.474  15.018  0.00  0.00    +0.000 OA
ENDBRANCH   2  14
ENDBRANCH   1   7
BRANCH   1  15
ATOM     15  C   UNL     1      46.049   5.640  13.822  0.00  0.00    +0.000 C 
BRANCH  15  16
ATOM     16  C   UNL     1      45.137   5.186  12.701  0.00  0.00    +0.000 A 
ATOM     17  C   UNL     1      43.782   5.532  12.736  0.00  0.00    +0.000 A 
ATOM     18  C   UNL     1      42.957   5.202  11.671  0.00  0.00    +0.000 A 
ATOM     19  F   UNL     1      41.663   5.546  11.710  0.00  0.00    +0.000 F 
ATOM     20  C   UNL     1      43.455   4.543  10.551  0.00  0.00    +0.000 A 
ATOM     21  C   UNL     1      44.815   4.206  10.461  0.00  0.00    +0.000 A 
ATOM     22  C   UNL     1      45.638   4.532  11.561  0.00  0.00    +0.000 A 
BRANCH  21  23
ATOM     23  C   UNL     1      45.376   3.580   9.244  0.00  0.00    +0.000 A 
ATOM     24  C   UNL     1      45.558   2.195   9.125  0.00  0.00    +0.000 A 
ATOM     25  C   UNL     1      46.128   1.648   7.974  0.00  0.00    +0.000 A 
ATOM     26  C   UNL     1      46.497   2.504   6.953  0.00  0.00    +0.000 A 
ATOM     27  N   UNL     1      46.340   3.838   7.008  0.00  0.00    +0.000 NA
ATOM     28  C   UNL     1      45.791   4.338   8.145  0.00  0.00    +0.000 A 
ENDBRANCH  21  23
ENDBRANCH  15  16
ENDBRANCH   1  15
TORSDOF 6
ENDMDL
MODEL 6
REMARK VINA RESULT:    -6.534      2.147      2.795
REMARK INTER + INTRA:         -10.049
REMARK INTER:                  -9.168
REMARK INTRA:                  -0.881
REMARK UNBOUND:                -1.222
REMARK  Name = 
REMARK  7 active torsions:
REMARK  status: ('A' for Active; 'I' for Inactive)
REMARK    1  A    between atoms: C_1  and  O_2
REMARK    2  A    between atoms: O_2  and  C_3
REMARK    3  A    between atoms: C_5  and  C_6
REMARK    4  A    between atoms: C_11  and  O_12
REMARK    5  A    between atoms: O_12  and  C_13
REMARK    6  A    between atoms: C_13  and  C_14
REMARK    7  A    between atoms: C_19  and  C_20
REMARK                            x       y       z     vdW  Elec       q    Type
REMARK                         _______ _______ _______ _____ _____    ______ ____
ROOT
ATOM      1  O   UNL     1      47.420   4.966  13.660  0.00  0.00    +0.000 OA
ENDROOT
BRANCH   1   7
ATOM      2  C   UNL     1      48.681   6.767  14.858  0.00  0.00    +0.000 A 
ATOM      3  C   UNL     1      49.067   8.116  14.812  0.00  0.00    +0.000 A 
ATOM      4  C   UNL     1      48.685   8.958  13.757  0.00  0.00    +0.000 A 
ATOM      5  C   UNL     1      47.911   8.433  12.718  0.00  0.00    +0.000 A 
ATOM      6  C   UNL     1      47.529   7.089  12.754  0.00  0.00    +0.000 A 
ATOM      7  C   UNL     1      47.902   6.244  13.811  0.00  0.00    +0.000 A 
BRANCH   4   8
ATOM      8  C   UNL     1      49.153  10.374  13.814  0.00  0.00    +0.000 C 
ATOM      9  N   UNL     1      48.263  11.376  13.557  0.00  0.00    +0.000 N 
ATOM     10  O   UNL     1      50.314  10.650  14.092  0.00  0.00    +0.000 OA
ATOM     11  H   UNL     1      47.294  11.251  13.311  0.00  0.00    +0.000 HD
ATOM     12  H   UNL     1      48.623  12.321  13.603  0.00  0.00    +0.000 HD
ENDBRANCH   4   8
BRANCH   2  14
ATOM     13  C   UNL     1      48.818   6.342  17.201  0.00  0.00    +0.000 C 
ATOM     14  O   UNL     1      49.091   5.934  15.866  0.00  0.00    +0.000 OA
ENDBRANCH   2  14
ENDBRANCH   1   7
BRANCH   1  15
ATOM     15  C   UNL     1      46.069   4.713  14.042  0.00  0.00    +0.000 C 
BRANCH  15  16
ATOM     16  C   UNL     1      45.173   4.560  12.831  0.00  0.00    +0.000 A 
ATOM     17  C   UNL     1      43.877   5.086  12.864  0.00  0.00    +0.000 A 
ATOM     18  C   UNL     1      43.080   5.033  11.730  0.00  0.00    +0.000 A 
ATOM     19  F   UNL     1      41.844   5.547  11.770  0.00  0.00    +0.000 F 
ATOM     20  C   UNL     1      43.553   4.481  10.543  0.00  0.00    +0.000 A 
ATOM     21  C   UNL     1      44.858   3.972  10.457  0.00  0.00    +0.000 A 
ATOM     22  C   UNL     1      45.650   4.015  11.624  0.00  0.00    +0.000 A 
BRANCH  21  23
ATOM     23  C   UNL     1      45.403   3.457   9.182  0.00  0.00    +0.000 A 
ATOM     24  C   UNL     1      45.620   2.091   8.952  0.00  0.00    +0.000 A 
ATOM     25  C   UNL     1      46.173   1.649   7.749  0.00  0.00    +0.000 A 
ATOM     26  C   UNL     1      46.489   2.591   6.787  0.00  0.00    +0.000 A 
ATOM     27  N   UNL     1      46.295   3.912   6.947  0.00  0.00    +0.000 NA
ATOM     28  C   UNL     1      45.764   4.308   8.133  0.00  0.00    +0.000 A 
ENDBRANCH  21  23
ENDBRANCH  15  16
ENDBRANCH   1  15
TORSDOF 6
ENDMDL
MODEL 7
REMARK VINA RESULT:    -6.530      3.857      5.320
REMARK INTER + INTRA:         -10.043
REMARK INTER:                  -9.133
REMARK INTRA:                  -0.910
REMARK UNBOUND:                -1.222
REMARK  Name = 
REMARK  7 active torsions:
REMARK  status: ('A' for Active; 'I' for Inactive)
REMARK    1  A    between atoms: C_1  and  O_2
REMARK    2  A    between atoms: O_2  and  C_3
REMARK    3  A    between atoms: C_5  and  C_6
REMARK    4  A    between atoms: C_11  and  O_12
REMARK    5  A    between atoms: O_12  and  C_13
REMARK    6  A    between atoms: C_13  and  C_14
REMARK    7  A    between atoms: C_19  and  C_20
REMARK                            x       y       z     vdW  Elec       q    Type
REMARK                         _______ _______ _______ _____ _____    ______ ____
ROOT
ATOM      1  O   UNL     1      48.684   5.884  14.646  0.00  0.00    +0.000 OA
ENDROOT
BRANCH   1   7
ATOM      2  C   UNL     1      47.898   4.597  16.644  0.00  0.00    +0.000 A 
ATOM      3  C   UNL     1      47.703   4.650  18.033  0.00  0.00    +0.000 A 
ATOM      4  C   UNL     1      48.000   5.802  18.777  0.00  0.00    +0.000 A 
ATOM      5  C   UNL     1      48.517   6.920  18.116  0.00  0.00    +0.000 A 
ATOM      6  C   UNL     1      48.721   6.871  16.734  0.00  0.00    +0.000 A 
ATOM      7  C   UNL     1      48.418   5.724  15.984  0.00  0.00    +0.000 A 
BRANCH   4   8
ATOM      8  C   UNL     1      47.750   5.744  20.247  0.00  0.00    +0.000 C 
ATOM      9  N   UNL     1      48.160   4.646  20.945  0.00  0.00    +0.000 N 
ATOM     10  O   UNL     1      47.192   6.663  20.835  0.00  0.00    +0.000 OA
ATOM     11  H   UNL     1      48.616   3.838  20.552  0.00  0.00    +0.000 HD
ATOM     12  H   UNL     1      47.967   4.645  21.939  0.00  0.00    +0.000 HD
ENDBRANCH   4   8
BRANCH   2  14
ATOM     13  C   UNL     1      48.422   2.305  16.241  0.00  0.00    +0.000 C 
ATOM     14  O   UNL     1      47.650   3.457  15.925  0.00  0.00    +0.000 OA
ENDBRANCH   2  14
ENDBRANCH   1   7
BRANCH   1  15
ATOM     15  C   UNL     1      48.500   7.181  14.080  0.00  0.00    +0.000 C 
BRANCH  15  16
ATOM     16  C   UNL     1      47.228   7.250  13.261  0.00  0.00    +0.000 A 
ATOM     17  C   UNL     1      46.487   8.436  13.242  0.00  0.00    +0.000 A 
ATOM     18  C   UNL     1      45.371   8.541  12.424  0.00  0.00    +0.000 A 
ATOM     19  F   UNL     1      44.673   9.684  12.407  0.00  0.00    +0.000 F 
ATOM     20  C   UNL     1      44.981   7.490  11.600  0.00  0.00    +0.000 A 
ATOM     21  C   UNL     1      45.716   6.294  11.564  0.00  0.00    +0.000 A 
ATOM     22  C   UNL     1      46.837   6.195  12.415  0.00  0.00    +0.000 A 
BRANCH  21  23
ATOM     23  C   UNL     1      45.362   5.200  10.634  0.00  0.00    +0.000 A 
ATOM     24  C   UNL     1      45.772   5.189   9.293  0.00  0.00    +0.000 A 
ATOM     25  C   UNL     1      45.384   4.157   8.437  0.00  0.00    +0.000 A 
ATOM     26  C   UNL     1      44.597   3.141   8.948  0.00  0.00    +0.000 A 
ATOM     27  N   UNL     1      44.181   3.094  10.226  0.00  0.00    +0.000 NA
ATOM     28  C   UNL     1      44.569   4.118  11.029  0.00  0.00    +0.000 A 
ENDBRANCH  21  23
ENDBRANCH  15  16
ENDBRANCH   1  15
TORSDOF 6
ENDMDL
MODEL 8
REMARK VINA RESULT:    -6.516      4.990      8.322
REMARK INTER + INTRA:         -10.024
REMARK INTER:                  -8.876
REMARK INTRA:                  -1.148
REMARK UNBOUND:                -1.222
REMARK  Name = 
REMARK  7 active torsions:
REMARK  status: ('A' for Active; 'I' for Inactive)
REMARK    1  A    between atoms: C_1  and  O_2
REMARK    2  A    between atoms: O_2  and  C_3
REMARK    3  A    between atoms: C_5  and  C_6
REMARK    4  A    between atoms: C_11  and  O_12
REMARK    5  A    between atoms: O_12  and  C_13
REMARK    6  A    between atoms: C_13  and  C_14
REMARK    7  A    between atoms: C_19  and  C_20
REMARK                            x       y       z     vdW  Elec       q    Type
REMARK                         _______ _______ _______ _____ _____    ______ ____
ROOT
ATOM      1  O   UNL     1      49.056   6.612  14.236  0.00  0.00    +0.000 OA
ENDROOT
BRANCH   1   7
ATOM      2  C   UNL     1      47.079   5.088  14.044  0.00  0.00    +0.000 A 
ATOM      3  C   UNL     1      45.782   4.959  13.526  0.00  0.00    +0.000 A 
ATOM      4  C   UNL     1      45.179   5.985  12.781  0.00  0.00    +0.000 A 
ATOM      5  C   UNL     1      45.888   7.169  12.564  0.00  0.00    +0.000 A 
ATOM      6  C   UNL     1      47.177   7.307  13.084  0.00  0.00    +0.000 A 
ATOM      7  C   UNL     1      47.788   6.280  13.823  0.00  0.00    +0.000 A 
BRANCH   4   8
ATOM      8  C   UNL     1      43.796   5.736  12.278  0.00  0.00    +0.000 C 
ATOM      9  N   UNL     1      42.796   5.509  13.178  0.00  0.00    +0.000 N 
ATOM     10  O   UNL     1      43.544   5.739  11.079  0.00  0.00    +0.000 OA
ATOM     11  H   UNL     1      42.904   5.476  14.179  0.00  0.00    +0.000 HD
ATOM     12  H   UNL     1      41.874   5.340  12.794  0.00  0.00    +0.000 HD
ENDBRANCH   4   8
BRANCH   2  14
ATOM     13  C   UNL     1      47.094   3.874  16.098  0.00  0.00    +0.000 C 
ATOM     14  O   UNL     1      47.650   4.104  14.809  0.00  0.00    +0.000 OA
ENDBRANCH   2  14
ENDBRANCH   1   7
BRANCH   1  15
ATOM     15  C   UNL     1      49.186   7.465  15.373  0.00  0.00    +0.000 C 
BRANCH  15  16
ATOM     16  C   UNL     1      49.367   6.665  16.645  0.00  0.00    +0.000 A 
ATOM     17  C   UNL     1      48.623   7.004  17.781  0.00  0.00    +0.000 A 
ATOM     18  C   UNL     1      48.712   6.222  18.924  0.00  0.00    +0.000 A 
ATOM     19  F   UNL     1      47.989   6.550  20.003  0.00  0.00    +0.000 F 
ATOM     20  C   UNL     1      49.516   5.087  18.959  0.00  0.00    +0.000 A 
ATOM     21  C   UNL     1      50.254   4.693  17.831  0.00  0.00    +0.000 A 
ATOM     22  C   UNL     1      50.168   5.509  16.683  0.00  0.00    +0.000 A 
BRANCH  21  23
ATOM     23  C   UNL     1      51.048   3.446  17.826  0.00  0.00    +0.000 A 
ATOM     24  C   UNL     1      52.385   3.403  18.246  0.00  0.00    +0.000 A 
ATOM     25  C   UNL     1      53.112   2.213  18.188  0.00  0.00    +0.000 A 
ATOM     26  C   UNL     1      52.478   1.077  17.719  0.00  0.00    +0.000 A 
ATOM     27  N   UNL     1      51.197   1.056  17.311  0.00  0.00    +0.000 NA
ATOM     28  C   UNL     1      50.521   2.233  17.372  0.00  0.00    +0.000 A 
ENDBRANCH  21  23
ENDBRANCH  15  16
ENDBRANCH   1  15
TORSDOF 6
ENDMDL
MODEL 9
REMARK VINA RESULT:    -6.419      1.807      2.473
REMARK INTER + INTRA:          -9.894
REMARK INTER:                  -9.032
REMARK INTRA:                  -0.862
REMARK UNBOUND:                -1.222
REMARK  Name = 
REMARK  7 active torsions:
REMARK  status: ('A' for Active; 'I' for Inactive)
REMARK    1  A    between atoms: C_1  and  O_2
REMARK    2  A    between atoms: O_2  and  C_3
REMARK    3  A    between atoms: C_5  and  C_6
REMARK    4  A    between atoms: C_11  and  O_12
REMARK    5  A    between atoms: O_12  and  C_13
REMARK    6  A    between atoms: C_13  and  C_14
REMARK    7  A    between atoms: C_19  and  C_20
REMARK                            x       y       z     vdW  Elec       q    Type
REMARK                         _______ _______ _______ _____ _____    ______ ____
ROOT
ATOM      1  O   UNL     1      46.946   7.028  13.333  0.00  0.00    +0.000 OA
ENDROOT
BRANCH   1   7
ATOM      2  C   UNL     1      49.190   7.735  14.188  0.00  0.00    +0.000 A 
ATOM      3  C   UNL     1      50.487   8.117  13.813  0.00  0.00    +0.000 A 
ATOM      4  C   UNL     1      50.871   8.206  12.466  0.00  0.00    +0.000 A 
ATOM      5  C   UNL     1      49.937   7.890  11.475  0.00  0.00    +0.000 A 
ATOM      6  C   UNL     1      48.646   7.502  11.842  0.00  0.00    +0.000 A 
ATOM      7  C   UNL     1      48.255   7.420  13.188  0.00  0.00    +0.000 A 
BRANCH   4   8
ATOM      8  C   UNL     1      52.275   8.623  12.186  0.00  0.00    +0.000 C 
ATOM      9  N   UNL     1      53.300   7.927  12.759  0.00  0.00    +0.000 N 
ATOM     10  O   UNL     1      52.523   9.572  11.450  0.00  0.00    +0.000 OA
ATOM     11  H   UNL     1      53.199   7.144  13.383  0.00  0.00    +0.000 HD
ATOM     12  H   UNL     1      54.236   8.247  12.546  0.00  0.00    +0.000 HD
ENDBRANCH   4   8
BRANCH   2  14
ATOM     13  C   UNL     1      49.048   6.341  16.120  0.00  0.00    +0.000 C 
ATOM     14  O   UNL     1      48.830   7.606  15.504  0.00  0.00    +0.000 OA
ENDBRANCH   2  14
ENDBRANCH   1   7
BRANCH   1  15
ATOM     15  C   UNL     1      45.981   7.579  12.439  0.00  0.00    +0.000 C 
BRANCH  15  16
ATOM     16  C   UNL     1      45.149   6.494  11.788  0.00  0.00    +0.000 A 
ATOM     17  C   UNL     1      43.770   6.454  12.022  0.00  0.00    +0.000 A 
ATOM     18  C   UNL     1      42.984   5.522  11.360  0.00  0.00    +0.000 A 
ATOM     19  F   UNL     1      41.664   5.497  11.584  0.00  0.00    +0.000 F 
ATOM     20  C   UNL     1      43.539   4.631  10.447  0.00  0.00    +0.000 A 
ATOM     21  C   UNL     1      44.913   4.659  10.159  0.00  0.00    +0.000 A 
ATOM     22  C   UNL     1      45.702   5.600  10.854  0.00  0.00    +0.000 A 
BRANCH  21  23
ATOM     23  C   UNL     1      45.504   3.775   9.131  0.00  0.00    +0.000 A 
ATOM     24  C   UNL     1      46.118   4.272   7.973  0.00  0.00    +0.000 A 
ATOM     25  C   UNL     1      46.628   3.403   7.007  0.00  0.00    +0.000 A 
ATOM     26  C   UNL     1      46.524   2.041   7.228  0.00  0.00    +0.000 A 
ATOM     27  N   UNL     1      45.953   1.507   8.322  0.00  0.00    +0.000 NA
ATOM     28  C   UNL     1      45.459   2.381   9.237  0.00  0.00    +0.000 A 
ENDBRANCH  21  23
ENDBRANCH  15  16
ENDBRANCH   1  15
TORSDOF 6
ENDMDL
