MODEL 1
REMARK VINA RESULT:    -8.165      0.000      0.000
REMARK INTER + INTRA:         -13.503
REMARK INTER:                 -12.700
REMARK INTRA:                  -0.804
REMARK UNBOUND:                -0.804
REMARK  Name = 
REMARK  10 active torsions:
REMARK  status: ('A' for Active; 'I' for Inactive)
REMARK    1  A    between atoms: N_1  and  C_2
REMARK    2  A    between atoms: C_2  and  C_3
REMARK    3  A    between atoms: C_3  and  N_4
REMARK    4  A    between atoms: C_3  and  C_20
REMARK    5  A    between atoms: N_4  and  C_5
REMARK    6  A    between atoms: C_5  and  C_6
REMARK    7  A    between atoms: C_9  and  C_10
REMARK    8  A    between atoms: C_10  and  N_11
REMARK    9  A    between atoms: N_11  and  C_12
REMARK   10  A    between atoms: C_12  and  C_13
REMARK                            x       y       z     vdW  Elec       q    Type
REMARK                         _______ _______ _______ _____ _____    ______ ____
ROOT
ATOM      1  N   UNL     1      48.052   6.001  16.049  0.00  0.00    +0.000 NA
ATOM      2  H   UNL     1      48.763   6.571  16.502  0.00  0.00    +0.000 HD
ENDROOT
BRANCH   1   3
ATOM      3  C   UNL     1      48.146   4.644  16.619  0.00  0.00    +0.000 C 
BRANCH   3   4
ATOM      4  C   UNL     1      49.522   4.578  17.289  0.00  0.00    +0.000 A 
ATOM      5  C   UNL     1      50.115   5.646  17.952  0.00  0.00    +0.000 A 
ATOM      6  S   UNL     1      51.653   5.286  18.591  0.00  0.00    +0.000 S 
ATOM      7  C   UNL     1      51.562   3.676  18.048  0.00  0.00    +0.000 A 
ATOM      8  N   UNL     1      52.565   2.795  18.300  0.00  0.00    +0.000 NA
ATOM      9  C   UNL     1      52.353   1.604  17.850  0.00  0.00    +0.000 A 
ATOM     10  N   UNL     1      51.233   1.218  17.155  0.00  0.00    +0.000 N 
ATOM     11  C   UNL     1      50.200   2.080  16.855  0.00  0.00    +0.000 A 
ATOM     12  O   UNL     1      49.218   1.710  16.219  0.00  0.00    +0.000 OA
ATOM     13  C   UNL     1      50.387   3.425  17.363  0.00  0.00    +0.000 A 
ATOM     14  H   UNL     1      51.138   0.269  16.830  0.00  0.00    +0.000 HD
ENDBRANCH   3   4
BRANCH   3  15
ATOM     15  C   UNL     1      47.040   4.268  17.661  0.00  0.00    +0.000 C 
BRANCH  15  16
ATOM     16  N   UNL     1      46.653   2.850  17.713  0.00  0.00    +0.000 NA
ATOM     17  H   UNL     1      45.973   2.664  16.977  0.00  0.00    +0.000 HD
ATOM     18  H   UNL     1      46.188   2.653  18.597  0.00  0.00    +0.000 HD
ENDBRANCH  15  16
ENDBRANCH   3  15
ENDBRANCH   1   3
BRANCH   1  19
ATOM     19  C   UNL     1      48.249   6.077  14.605  0.00  0.00    +0.000 C 
BRANCH  19  20
ATOM     20  C   UNL     1      47.134   5.367  13.877  0.00  0.00    +0.000 A 
ATOM     21  C   UNL     1      46.133   6.066  13.197  0.00  0.00    +0.000 A 
ATOM     22  C   UNL     1      45.127   5.371  12.536  0.00  0.00    +0.000 A 
ATOM     23  C   UNL     1      45.153   3.979  12.551  0.00  0.00    +0.000 A 
ATOM     24  N   UNL     1      46.112   3.272  13.202  0.00  0.00    +0.000 NA
ATOM     25  C   UNL     1      47.070   3.978  13.848  0.00  0.00    +0.000 A 
BRANCH  23  26
ATOM     26  C   UNL     1      44.071   3.186  11.846  0.00  0.00    +0.000 C 
BRANCH  26  27
ATOM     27  N   UNL     1      44.555   2.433  10.676  0.00  0.00    +0.000 NA
ATOM     28  H   UNL     1      43.880   1.674  10.540  0.00  0.00    +0.000 HD
BRANCH  27  29
ATOM     29  C   UNL     1      44.526   3.255   9.464  0.00  0.00    +0.000 C 
BRANCH  29  30
ATOM     30  C   UNL     1      45.535   2.749   8.504  0.00  0.00    +0.000 A 
ATOM     31  C   UNL     1      46.052   1.493   8.271  0.00  0.00    +0.000 A 
ATOM     32  N   UNL     1      46.983   1.525   7.264  0.00  0.00    +0.000 NA
ATOM     33  C   UNL     1      47.042   2.782   6.887  0.00  0.00    +0.000 A 
ATOM     34  N   UNL     1      46.173   3.557   7.596  0.00  0.00    +0.000 N 
ATOM     35  H   UNL     1      46.040   4.557   7.519  0.00  0.00    +0.000 HD
ENDBRANCH  29  30
ENDBRANCH  27  29
ENDBRANCH  26  27
ENDBRANCH  23  26
ENDBRANCH  19  20
ENDBRANCH   1  19
TORSDOF 10
ENDMDL
MODEL 2
REMARK VINA RESULT:    -7.731      1.272      1.822
REMARK INTER + INTRA:         -12.828
REMARK INTER:                 -11.948
REMARK INTRA:                  -0.881
REMARK UNBOUND:                -0.804
REMARK  Name = 
REMARK  10 active torsions:
REMARK  status: ('A' for Active; 'I' for Inactive)
REMARK    1  A    between atoms: N_1  and  C_2
REMARK    2  A    between atoms: C_2  and  C_3
REMARK    3  A    between atoms: C_3  and  N_4
REMARK    4  A    between atoms: C_3  and  C_20
REMARK    5  A    between atoms: N_4  and  C_5
REMARK    6  A    between atoms: C_5  and  C_6
REMARK    7  A    between atoms: C_9  and  C_10
REMARK    8  A    between atoms: C_10  and  N_11
REMARK    9  A    between atoms: N_11  and  C_12
REMARK   10  A    between atoms: C_12  and  C_13
REMARK                            x       y       z     vdW  Elec       q    Type
REMARK                         _______ _______ _______ _____ _____    ______ ____
ROOT
ATOM      1  N   UNL     1      48.575   6.281  16.508  0.00  0.00    +0.000 NA
ATOM      2  H   UNL     1      49.232   6.727  17.144  0.00  0.00    +0.000 HD
ENDROOT
BRANCH   1   3
ATOM      3  C   UNL     1      48.546   4.844  16.844  0.00  0.00    +0.000 C 
BRANCH   3   4
ATOM      4  C   UNL     1      49.911   4.544  17.468  0.00  0.00    +0.000 A 
ATOM      5  C   UNL     1      50.651   5.466  18.199  0.00  0.00    +0.000 A 
ATOM      6  S   UNL     1      52.138   4.856  18.765  0.00  0.00    +0.000 S 
ATOM      7  C   UNL     1      51.826   3.323  18.096  0.00  0.00    +0.000 A 
ATOM      8  N   UNL     1      52.708   2.301  18.249  0.00  0.00    +0.000 NA
ATOM      9  C   UNL     1      52.334   1.190  17.709  0.00  0.00    +0.000 A 
ATOM     10  N   UNL     1      51.161   1.012  17.016  0.00  0.00    +0.000 N 
ATOM     11  C   UNL     1      50.247   2.024  16.814  0.00  0.00    +0.000 A 
ATOM     12  O   UNL     1      49.214   1.840  16.178  0.00  0.00    +0.000 OA
ATOM     13  C   UNL     1      50.617   3.285  17.425  0.00  0.00    +0.000 A 
ATOM     14  H   UNL     1      50.937   0.115  16.617  0.00  0.00    +0.000 HD
ENDBRANCH   3   4
BRANCH   3  15
ATOM     15  C   UNL     1      47.412   4.401  17.828  0.00  0.00    +0.000 C 
BRANCH  15  16
ATOM     16  N   UNL     1      46.695   3.166  17.478  0.00  0.00    +0.000 NA
ATOM     17  H   UNL     1      47.305   2.368  17.652  0.00  0.00    +0.000 HD
ATOM     18  H   UNL     1      46.485   3.161  16.482  0.00  0.00    +0.000 HD
ENDBRANCH  15  16
ENDBRANCH   3  15
ENDBRANCH   1   3
BRANCH   1  19
ATOM     19  C   UNL     1      48.978   6.585  15.139  0.00  0.00    +0.000 C 
BRANCH  19  20
ATOM     20  C   UNL     1      47.796   6.503  14.205  0.00  0.00    +0.000 A 
ATOM     21  C   UNL     1      47.205   5.282  13.866  0.00  0.00    +0.000 A 
ATOM     22  C   UNL     1      46.113   5.254  13.005  0.00  0.00    +0.000 A 
ATOM     23  C   UNL     1      45.619   6.458  12.511  0.00  0.00    +0.000 A 
ATOM     24  N   UNL     1      46.172   7.659  12.822  0.00  0.00    +0.000 NA
ATOM     25  C   UNL     1      47.241   7.652  13.652  0.00  0.00    +0.000 A 
BRANCH  23  26
ATOM     26  C   UNL     1      44.435   6.468  11.566  0.00  0.00    +0.000 C 
BRANCH  26  27
ATOM     27  N   UNL     1      44.687   5.769  10.293  0.00  0.00    +0.000 NA
ATOM     28  H   UNL     1      45.699   5.608  10.266  0.00  0.00    +0.000 HD
BRANCH  27  29
ATOM     29  C   UNL     1      44.042   4.454  10.270  0.00  0.00    +0.000 C 
BRANCH  29  30
ATOM     30  C   UNL     1      44.799   3.553   9.371  0.00  0.00    +0.000 A 
ATOM     31  C   UNL     1      45.458   3.765   8.179  0.00  0.00    +0.000 A 
ATOM     32  N   UNL     1      46.015   2.601   7.713  0.00  0.00    +0.000 NA
ATOM     33  C   UNL     1      45.699   1.686   8.601  0.00  0.00    +0.000 A 
ATOM     34  N   UNL     1      44.978   2.217   9.629  0.00  0.00    +0.000 N 
ATOM     35  H   UNL     1      44.593   1.727  10.426  0.00  0.00    +0.000 HD
ENDBRANCH  29  30
ENDBRANCH  27  29
ENDBRANCH  26  27
ENDBRANCH  23  26
ENDBRANCH  19  20
ENDBRANCH   1  19
TORSDOF 10
ENDMDL
MODEL 3
REMARK VINA RESULT:    -7.557      2.131      2.925
REMARK INTER + INTRA:         -12.557
REMARK INTER:                 -11.610
REMARK INTRA:                  -0.947
REMARK UNBOUND:                -0.804
REMARK  Name = 
REMARK  10 active torsions:
REMARK  status: ('A' for Active; 'I' for Inactive)
REMARK    1  A    between atoms: N_1  and  C_2
REMARK    2  A    between atoms: C_2  and  C_3
REMARK    3  A    between atoms: C_3  and  N_4
REMARK    4  A    between atoms: C_3  and  C_20
REMARK    5  A    between atoms: N_4  and  C_5
REMARK    6  A    between atoms: C_5  and  C_6
REMARK    7  A    between atoms: C_9  and  C_10
REMARK    8  A    between atoms: C_10  and  N_11
REMARK    9  A    between atoms: N_11  and  C_12
REMARK   10  A    between atoms: C_12  and  C_13
REMARK                            x       y       z     vdW  Elec       q    Type
REMARK                         _______ _______ _______ _____ _____    ______ ____
ROOT
ATOM      1  N   UNL     1      47.536   5.213  16.168  0.00  0.00    +0.000 NA
ATOM      2  H   UNL     1      47.469   6.016  16.790  0.00  0.00    +0.000 HD
ENDROOT
BRANCH   1   3
ATOM      3  C   UNL     1      48.552   4.303  16.732  0.00  0.00    +0.000 C 
BRANCH   3   4
ATOM      4  C   UNL     1      49.435   5.182  17.622  0.00  0.00    +0.000 A 
ATOM      5  C   UNL     1      50.812   5.301  17.476  0.00  0.00    +0.000 A 
ATOM      6  S   UNL     1      51.534   6.342  18.616  0.00  0.00    +0.000 S 
ATOM      7  C   UNL     1      50.027   6.709  19.316  0.00  0.00    +0.000 A 
ATOM      8  N   UNL     1      49.931   7.588  20.348  0.00  0.00    +0.000 NA
ATOM      9  C   UNL     1      48.726   7.788  20.766  0.00  0.00    +0.000 A 
ATOM     10  N   UNL     1      47.608   7.178  20.253  0.00  0.00    +0.000 N 
ATOM     11  C   UNL     1      47.657   6.263  19.223  0.00  0.00    +0.000 A 
ATOM     12  O   UNL     1      46.642   5.722  18.795  0.00  0.00    +0.000 OA
ATOM     13  C   UNL     1      48.990   6.025  18.707  0.00  0.00    +0.000 A 
ATOM     14  H   UNL     1      46.698   7.381  20.633  0.00  0.00    +0.000 HD
ENDBRANCH   3   4
BRANCH   3  15
ATOM     15  C   UNL     1      47.996   3.103  17.569  0.00  0.00    +0.000 C 
BRANCH  15  16
ATOM     16  N   UNL     1      46.533   2.967  17.615  0.00  0.00    +0.000 NA
ATOM     17  H   UNL     1      46.109   3.816  17.242  0.00  0.00    +0.000 HD
ATOM     18  H   UNL     1      46.225   2.887  18.582  0.00  0.00    +0.000 HD
ENDBRANCH  15  16
ENDBRANCH   3  15
ENDBRANCH   1   3
BRANCH   1  19
ATOM     19  C   UNL     1      47.821   5.694  14.820  0.00  0.00    +0.000 C 
BRANCH  19  20
ATOM     20  C   UNL     1      46.860   5.090  13.825  0.00  0.00    +0.000 A 
ATOM     21  C   UNL     1      46.075   5.882  12.982  0.00  0.00    +0.000 A 
ATOM     22  C   UNL     1      45.207   5.282  12.076  0.00  0.00    +0.000 A 
ATOM     23  C   UNL     1      45.155   3.892  12.018  0.00  0.00    +0.000 A 
ATOM     24  N   UNL     1      45.905   3.097  12.823  0.00  0.00    +0.000 NA
ATOM     25  C   UNL     1      46.731   3.711  13.703  0.00  0.00    +0.000 A 
BRANCH  23  26
ATOM     26  C   UNL     1      44.217   3.202  11.048  0.00  0.00    +0.000 C 
BRANCH  26  27
ATOM     27  N   UNL     1      44.907   2.354  10.060  0.00  0.00    +0.000 NA
ATOM     28  H   UNL     1      44.312   1.526   9.947  0.00  0.00    +0.000 HD
BRANCH  27  29
ATOM     29  C   UNL     1      44.981   3.010   8.753  0.00  0.00    +0.000 C 
BRANCH  29  30
ATOM     30  C   UNL     1      46.135   2.469   7.997  0.00  0.00    +0.000 A 
ATOM     31  C   UNL     1      46.617   1.190   7.824  0.00  0.00    +0.000 A 
ATOM     32  N   UNL     1      47.735   1.191   7.028  0.00  0.00    +0.000 NA
ATOM     33  C   UNL     1      47.940   2.451   6.721  0.00  0.00    +0.000 A 
ATOM     34  N   UNL     1      46.990   3.260   7.270  0.00  0.00    +0.000 N 
ATOM     35  H   UNL     1      46.931   4.267   7.208  0.00  0.00    +0.000 HD
ENDBRANCH  29  30
ENDBRANCH  27  29
ENDBRANCH  26  27
ENDBRANCH  23  26
ENDBRANCH  19  20
ENDBRANCH   1  19
TORSDOF 10
ENDMDL
MODEL 4
REMARK VINA RESULT:    -7.477      1.947      2.406
REMARK INTER + INTRA:         -12.433
REMARK INTER:                 -11.332
REMARK INTRA:                  -1.101
REMARK UNBOUND:                -0.804
REMARK  Name = 
REMARK  10 active torsions:
REMARK  status: ('A' for Active; 'I' for Inactive)
REMARK    1  A    between atoms: N_1  and  C_2
REMARK    2  A    between atoms: C_2  and  C_3
REMARK    3  A    between atoms: C_3  and  N_4
REMARK    4  A    between atoms: C_3  and  C_20
REMARK    5  A    between atoms: N_4  and  C_5
REMARK    6  A    between atoms: C_5  and  C_6
REMARK    7  A    between atoms: C_9  and  C_10
REMARK    8  A    between atoms: C_10  and  N_11
REMARK    9  A    between atoms: N_11  and  C_12
REMARK   10  A    between atoms: C_12  and  C_13
REMARK                            x       y       z     vdW  Elec       q    Type
REMARK                         _______ _______ _______ _____ _____    ______ ____
ROOT
ATOM      1  N   UNL     1      47.428   5.312  15.757  0.00  0.00    +0.000 NA
ATOM      2  H   UNL     1      47.259   6.100  16.378  0.00  0.00    +0.000 HD
ENDROOT
BRANCH   1   3
ATOM      3  C   UNL     1      48.390   4.419  16.431  0.00  0.00    +0.000 C 
BRANCH   3   4
ATOM      4  C   UNL     1      48.455   4.910  17.879  0.00  0.00    +0.000 A 
ATOM      5  C   UNL     1      47.393   5.509  18.546  0.00  0.00    +0.000 A 
ATOM      6  S   UNL     1      47.758   5.963  20.147  0.00  0.00    +0.000 S 
ATOM      7  C   UNL     1      49.333   5.331  20.025  0.00  0.00    +0.000 A 
ATOM      8  N   UNL     1      50.186   5.368  21.082  0.00  0.00    +0.000 NA
ATOM      9  C   UNL     1      51.339   4.834  20.855  0.00  0.00    +0.000 A 
ATOM     10  N   UNL     1      51.722   4.279  19.659  0.00  0.00    +0.000 N 
ATOM     11  C   UNL     1      50.902   4.238  18.552  0.00  0.00    +0.000 A 
ATOM     12  O   UNL     1      51.278   3.749  17.492  0.00  0.00    +0.000 OA
ATOM     13  C   UNL     1      49.587   4.808  18.770  0.00  0.00    +0.000 A 
ATOM     14  H   UNL     1      52.642   3.883  19.554  0.00  0.00    +0.000 HD
ENDBRANCH   3   4
BRANCH   3  15
ATOM     15  C   UNL     1      48.028   2.896  16.411  0.00  0.00    +0.000 C 
BRANCH  15  16
ATOM     16  N   UNL     1      49.141   1.969  16.158  0.00  0.00    +0.000 NA
ATOM     17  H   UNL     1      49.235   1.829  15.152  0.00  0.00    +0.000 HD
ATOM     18  H   UNL     1      48.929   1.058  16.561  0.00  0.00    +0.000 HD
ENDBRANCH  15  16
ENDBRANCH   3  15
ENDBRANCH   1   3
BRANCH   1  19
ATOM     19  C   UNL     1      47.868   5.828  14.465  0.00  0.00    +0.000 C 
BRANCH  19  20
ATOM     20  C   UNL     1      46.817   5.586  13.409  0.00  0.00    +0.000 A 
ATOM     21  C   UNL     1      46.711   6.395  12.273  0.00  0.00    +0.000 A 
ATOM     22  C   UNL     1      45.730   6.132  11.323  0.00  0.00    +0.000 A 
ATOM     23  C   UNL     1      44.882   5.046  11.519  0.00  0.00    +0.000 A 
ATOM     24  N   UNL     1      44.961   4.243  12.611  0.00  0.00    +0.000 NA
ATOM     25  C   UNL     1      45.917   4.533  13.525  0.00  0.00    +0.000 A 
BRANCH  23  26
ATOM     26  C   UNL     1      43.797   4.731  10.509  0.00  0.00    +0.000 C 
BRANCH  26  27
ATOM     27  N   UNL     1      44.315   4.345   9.184  0.00  0.00    +0.000 NA
ATOM     28  H   UNL     1      45.228   4.804   9.104  0.00  0.00    +0.000 HD
BRANCH  27  29
ATOM     29  C   UNL     1      44.551   2.902   9.104  0.00  0.00    +0.000 C 
BRANCH  29  30
ATOM     30  C   UNL     1      45.719   2.645   8.230  0.00  0.00    +0.000 A 
ATOM     31  C   UNL     1      46.461   3.459   7.402  0.00  0.00    +0.000 A 
ATOM     32  N   UNL     1      47.460   2.751   6.784  0.00  0.00    +0.000 NA
ATOM     33  C   UNL     1      47.332   1.519   7.220  0.00  0.00    +0.000 A 
ATOM     34  N   UNL     1      46.304   1.408   8.109  0.00  0.00    +0.000 N 
ATOM     35  H   UNL     1      45.980   0.569   8.572  0.00  0.00    +0.000 HD
ENDBRANCH  29  30
ENDBRANCH  27  29
ENDBRANCH  26  27
ENDBRANCH  23  26
ENDBRANCH  19  20
ENDBRANCH   1  19
TORSDOF 10
ENDMDL
MODEL 5
REMARK VINA RESULT:    -7.441      2.310      3.137
REMARK INTER + INTRA:         -12.377
REMARK INTER:                 -11.081
REMARK INTRA:                  -1.296
REMARK UNBOUND:                -0.804
REMARK  Name = 
REMARK  10 active torsions:
REMARK  status: ('A' for Active; 'I' for Inactive)
REMARK    1  A    between atoms: N_1  and  C_2
REMARK    2  A    between atoms: C_2  and  C_3
REMARK    3  A    between atoms: C_3  and  N_4
REMARK    4  A    between atoms: C_3  and  C_20
REMARK    5  A    between atoms: N_4  and  C_5
REMARK    6  A    between atoms: C_5  and  C_6
REMARK    7  A    between atoms: C_9  and  C_10
REMARK    8  A    between atoms: C_10  and  N_11
REMARK    9  A    between atoms: N_11  and  C_12
REMARK   10  A    between atoms: C_12  and  C_13
REMARK                            x       y       z     vdW  Elec       q    Type
REMARK                         _______ _______ _______ _____ _____    ______ ____
ROOT
ATOM      1  N   UNL     1      48.669   6.306  16.602  0.00  0.00    +0.000 NA
ATOM      2  H   UNL     1      49.244   6.734  17.325  0.00  0.00    +0.000 HD
ENDROOT
BRANCH   1   3
ATOM      3  C   UNL     1      48.598   4.862  16.895  0.00  0.00    +0.000 C 
BRANCH   3   4
ATOM      4  C   UNL     1      49.937   4.513  17.550  0.00  0.00    +0.000 A 
ATOM      5  C   UNL     1      50.661   5.386  18.353  0.00  0.00    +0.000 A 
ATOM      6  S   UNL     1      52.121   4.728  18.937  0.00  0.00    +0.000 S 
ATOM      7  C   UNL     1      51.816   3.236  18.178  0.00  0.00    +0.000 A 
ATOM      8  N   UNL     1      52.681   2.196  18.308  0.00  0.00    +0.000 NA
ATOM      9  C   UNL     1      52.313   1.120  17.698  0.00  0.00    +0.000 A 
ATOM     10  N   UNL     1      51.164   0.993  16.957  0.00  0.00    +0.000 N 
ATOM     11  C   UNL     1      50.268   2.026  16.777  0.00  0.00    +0.000 A 
ATOM     12  O   UNL     1      49.256   1.888  16.096  0.00  0.00    +0.000 OA
ATOM     13  C   UNL     1      50.631   3.249  17.465  0.00  0.00    +0.000 A 
ATOM     14  H   UNL     1      50.943   0.121  16.504  0.00  0.00    +0.000 HD
ENDBRANCH   3   4
BRANCH   3  15
ATOM     15  C   UNL     1      47.426   4.418  17.834  0.00  0.00    +0.000 C 
BRANCH  15  16
ATOM     16  N   UNL     1      46.825   3.108  17.545  0.00  0.00    +0.000 NA
ATOM     17  H   UNL     1      46.290   3.171  16.679  0.00  0.00    +0.000 HD
ATOM     18  H   UNL     1      46.163   2.863  18.280  0.00  0.00    +0.000 HD
ENDBRANCH  15  16
ENDBRANCH   3  15
ENDBRANCH   1   3
BRANCH   1  19
ATOM     19  C   UNL     1      49.237   6.642  15.300  0.00  0.00    +0.000 C 
BRANCH  19  20
ATOM     20  C   UNL     1      48.146   6.816  14.273  0.00  0.00    +0.000 A 
ATOM     21  C   UNL     1      47.618   5.732  13.565  0.00  0.00    +0.000 A 
ATOM     22  C   UNL     1      46.609   5.939  12.629  0.00  0.00    +0.000 A 
ATOM     23  C   UNL     1      46.132   7.231  12.434  0.00  0.00    +0.000 A 
ATOM     24  N   UNL     1      46.625   8.303  13.106  0.00  0.00    +0.000 NA
ATOM     25  C   UNL     1      47.615   8.072  13.999  0.00  0.00    +0.000 A 
BRANCH  23  26
ATOM     26  C   UNL     1      45.037   7.497  11.419  0.00  0.00    +0.000 C 
BRANCH  26  27
ATOM     27  N   UNL     1      43.696   7.095  11.877  0.00  0.00    +0.000 NA
ATOM     28  H   UNL     1      43.107   7.926  11.759  0.00  0.00    +0.000 HD
BRANCH  27  29
ATOM     29  C   UNL     1      43.134   6.046  11.023  0.00  0.00    +0.000 C 
BRANCH  29  30
ATOM     30  C   UNL     1      43.306   4.732  11.685  0.00  0.00    +0.000 A 
ATOM     31  C   UNL     1      43.378   4.358  13.009  0.00  0.00    +0.000 A 
ATOM     32  N   UNL     1      43.550   3.002  13.128  0.00  0.00    +0.000 NA
ATOM     33  C   UNL     1      43.588   2.549  11.895  0.00  0.00    +0.000 A 
ATOM     34  N   UNL     1      43.429   3.555  10.989  0.00  0.00    +0.000 N 
ATOM     35  H   UNL     1      43.443   3.480   9.980  0.00  0.00    +0.000 HD
ENDBRANCH  29  30
ENDBRANCH  27  29
ENDBRANCH  26  27
ENDBRANCH  23  26
ENDBRANCH  19  20
ENDBRANCH   1  19
TORSDOF 10
ENDMDL
MODEL 6
REMARK VINA RESULT:    -7.283      3.185      8.708
REMARK INTER + INTRA:         -12.132
REMARK INTER:                 -11.172
REMARK INTRA:                  -0.960
REMARK UNBOUND:                -0.804
REMARK  Name = 
REMARK  10 active torsions:
REMARK  status: ('A' for Active; 'I' for Inactive)
REMARK    1  A    between atoms: N_1  and  C_2
REMARK    2  A    between atoms: C_2  and  C_3
REMARK    3  A    between atoms: C_3  and  N_4
REMARK    4  A    between atoms: C_3  and  C_20
REMARK    5  A    between atoms: N_4  and  C_5
REMARK    6  A    between atoms: C_5  and  C_6
REMARK    7  A    between atoms: C_9  and  C_10
REMARK    8  A    between atoms: C_10  and  N_11
REMARK    9  A    between atoms: N_11  and  C_12
REMARK   10  A    between atoms: C_12  and  C_13
REMARK                            x       y       z     vdW  Elec       q    Type
REMARK                         _______ _______ _______ _____ _____    ______ ____
ROOT
ATOM      1  N   UNL     1      45.991   6.917  13.030  0.00  0.00    +0.000 NA
ATOM      2  H   UNL     1      45.424   6.324  13.632  0.00  0.00    +0.000 HD
ENDROOT
BRANCH   1   3
ATOM      3  C   UNL     1      45.418   6.839  11.672  0.00  0.00    +0.000 C 
BRANCH   3   4
ATOM      4  C   UNL     1      44.793   5.445  11.574  0.00  0.00    +0.000 A 
ATOM      5  C   UNL     1      44.003   4.875  12.565  0.00  0.00    +0.000 A 
ATOM      6  S   UNL     1      43.451   3.308  12.186  0.00  0.00    +0.000 S 
ATOM      7  C   UNL     1      44.206   3.353  10.662  0.00  0.00    +0.000 A 
ATOM      8  N   UNL     1      44.097   2.311   9.796  0.00  0.00    +0.000 NA
ATOM      9  C   UNL     1      44.701   2.489   8.670  0.00  0.00    +0.000 A 
ATOM     10  N   UNL     1      45.418   3.611   8.335  0.00  0.00    +0.000 N 
ATOM     11  C   UNL     1      45.577   4.683   9.187  0.00  0.00    +0.000 A 
ATOM     12  O   UNL     1      46.237   5.667   8.866  0.00  0.00    +0.000 OA
ATOM     13  C   UNL     1      44.895   4.535  10.457  0.00  0.00    +0.000 A 
ATOM     14  H   UNL     1      45.868   3.679   7.436  0.00  0.00    +0.000 HD
ENDBRANCH   3   4
BRANCH   3  15
ATOM     15  C   UNL     1      44.341   7.921  11.328  0.00  0.00    +0.000 C 
BRANCH  15  16
ATOM     16  N   UNL     1      44.453   9.198  12.047  0.00  0.00    +0.000 NA
ATOM     17  H   UNL     1      44.495   9.013  13.049  0.00  0.00    +0.000 HD
ATOM     18  H   UNL     1      43.616   9.757  11.888  0.00  0.00    +0.000 HD
ENDBRANCH  15  16
ENDBRANCH   3  15
ENDBRANCH   1   3
BRANCH   1  19
ATOM     19  C   UNL     1      47.382   6.490  13.136  0.00  0.00    +0.000 C 
BRANCH  19  20
ATOM     20  C   UNL     1      47.590   5.657  14.378  0.00  0.00    +0.000 A 
ATOM     21  C   UNL     1      48.307   6.137  15.478  0.00  0.00    +0.000 A 
ATOM     22  C   UNL     1      48.470   5.337  16.603  0.00  0.00    +0.000 A 
ATOM     23  C   UNL     1      47.893   4.071  16.614  0.00  0.00    +0.000 A 
ATOM     24  N   UNL     1      47.191   3.577  15.562  0.00  0.00    +0.000 NA
ATOM     25  C   UNL     1      47.061   4.375  14.476  0.00  0.00    +0.000 A 
BRANCH  23  26
ATOM     26  C   UNL     1      48.053   3.167  17.820  0.00  0.00    +0.000 C 
BRANCH  26  27
ATOM     27  N   UNL     1      49.457   2.865  18.151  0.00  0.00    +0.000 NA
ATOM     28  H   UNL     1      49.418   2.232  18.957  0.00  0.00    +0.000 HD
BRANCH  27  29
ATOM     29  C   UNL     1      50.116   2.137  17.064  0.00  0.00    +0.000 C 
BRANCH  29  30
ATOM     30  C   UNL     1      51.494   1.784  17.477  0.00  0.00    +0.000 A 
ATOM     31  C   UNL     1      52.530   2.529  17.998  0.00  0.00    +0.000 A 
ATOM     32  N   UNL     1      53.635   1.745  18.218  0.00  0.00    +0.000 NA
ATOM     33  C   UNL     1      53.286   0.538  17.834  0.00  0.00    +0.000 A 
ATOM     34  N   UNL     1      51.996   0.509  17.394  0.00  0.00    +0.000 N 
ATOM     35  H   UNL     1      51.492  -0.286  17.023  0.00  0.00    +0.000 HD
ENDBRANCH  29  30
ENDBRANCH  27  29
ENDBRANCH  26  27
ENDBRANCH  23  26
ENDBRANCH  19  20
ENDBRANCH   1  19
TORSDOF 10
ENDMDL
MODEL 7
REMARK VINA RESULT:    -7.213      1.778      2.450
REMARK INTER + INTRA:         -12.023
REMARK INTER:                 -10.883
REMARK INTRA:                  -1.139
REMARK UNBOUND:                -0.804
REMARK  Name = 
REMARK  10 active torsions:
REMARK  status: ('A' for Active; 'I' for Inactive)
REMARK    1  A    between atoms: N_1  and  C_2
REMARK    2  A    between atoms: C_2  and  C_3
REMARK    3  A    between atoms: C_3  and  N_4
REMARK    4  A    between atoms: C_3  and  C_20
REMARK    5  A    between atoms: N_4  and  C_5
REMARK    6  A    between atoms: C_5  and  C_6
REMARK    7  A    between atoms: C_9  and  C_10
REMARK    8  A    between atoms: C_10  and  N_11
REMARK    9  A    between atoms: N_11  and  C_12
REMARK   10  A    between atoms: C_12  and  C_13
REMARK                            x       y       z     vdW  Elec       q    Type
REMARK                         _______ _______ _______ _____ _____    ______ ____
ROOT
ATOM      1  N   UNL     1      48.373   5.968  14.658  0.00  0.00    +0.000 NA
ATOM      2  H   UNL     1      47.523   5.495  14.955  0.00  0.00    +0.000 HD
ENDROOT
BRANCH   1   3
ATOM      3  C   UNL     1      48.727   6.939  15.710  0.00  0.00    +0.000 C 
BRANCH   3   4
ATOM      4  C   UNL     1      50.161   6.592  16.119  0.00  0.00    +0.000 A 
ATOM      5  C   UNL     1      51.274   7.348  15.771  0.00  0.00    +0.000 A 
ATOM      6  S   UNL     1      52.743   6.715  16.357  0.00  0.00    +0.000 S 
ATOM      7  C   UNL     1      51.942   5.434  17.140  0.00  0.00    +0.000 A 
ATOM      8  N   UNL     1      52.632   4.520  17.871  0.00  0.00    +0.000 NA
ATOM      9  C   UNL     1      51.895   3.617  18.427  0.00  0.00    +0.000 A 
ATOM     10  N   UNL     1      50.529   3.537  18.304  0.00  0.00    +0.000 N 
ATOM     11  C   UNL     1      49.788   4.427  17.556  0.00  0.00    +0.000 A 
ATOM     12  O   UNL     1      48.570   4.321  17.453  0.00  0.00    +0.000 OA
ATOM     13  C   UNL     1      50.574   5.472  16.932  0.00  0.00    +0.000 A 
ATOM     14  H   UNL     1      50.019   2.801  18.764  0.00  0.00    +0.000 HD
ENDBRANCH   3   4
BRANCH   3  15
ATOM     15  C   UNL     1      48.654   8.447  15.293  0.00  0.00    +0.000 C 
BRANCH  15  16
ATOM     16  N   UNL     1      47.589   9.242  15.923  0.00  0.00    +0.000 NA
ATOM     17  H   UNL     1      47.794   9.343  16.917  0.00  0.00    +0.000 HD
ATOM     18  H   UNL     1      46.703   8.745  15.857  0.00  0.00    +0.000 HD
ENDBRANCH  15  16
ENDBRANCH   3  15
ENDBRANCH   1   3
BRANCH   1  19
ATOM     19  C   UNL     1      48.144   6.547  13.338  0.00  0.00    +0.000 C 
BRANCH  19  20
ATOM     20  C   UNL     1      46.966   5.886  12.664  0.00  0.00    +0.000 A 
ATOM     21  C   UNL     1      46.462   6.343  11.442  0.00  0.00    +0.000 A 
ATOM     22  C   UNL     1      45.378   5.700  10.855  0.00  0.00    +0.000 A 
ATOM     23  C   UNL     1      44.828   4.594  11.495  0.00  0.00    +0.000 A 
ATOM     24  N   UNL     1      45.295   4.127  12.682  0.00  0.00    +0.000 NA
ATOM     25  C   UNL     1      46.343   4.782  13.235  0.00  0.00    +0.000 A 
BRANCH  23  26
ATOM     26  C   UNL     1      43.642   3.870  10.889  0.00  0.00    +0.000 C 
BRANCH  26  27
ATOM     27  N   UNL     1      43.857   3.444   9.495  0.00  0.00    +0.000 NA
ATOM     28  H   UNL     1      44.437   4.176   9.072  0.00  0.00    +0.000 HD
BRANCH  27  29
ATOM     29  C   UNL     1      44.625   2.198   9.431  0.00  0.00    +0.000 C 
BRANCH  29  30
ATOM     30  C   UNL     1      45.704   2.339   8.425  0.00  0.00    +0.000 A 
ATOM     31  C   UNL     1      46.176   3.418   7.710  0.00  0.00    +0.000 A 
ATOM     32  N   UNL     1      47.203   3.046   6.881  0.00  0.00    +0.000 NA
ATOM     33  C   UNL     1      47.357   1.756   7.078  0.00  0.00    +0.000 A 
ATOM     34  N   UNL     1      46.484   1.287   8.015  0.00  0.00    +0.000 N 
ATOM     35  H   UNL     1      46.379   0.332   8.332  0.00  0.00    +0.000 HD
ENDBRANCH  29  30
ENDBRANCH  27  29
ENDBRANCH  26  27
ENDBRANCH  23  26
ENDBRANCH  19  20
ENDBRANCH   1  19
TORSDOF 10
ENDMDL
MODEL 8
REMARK VINA RESULT:    -7.205      2.618      3.664
REMARK INTER + INTRA:         -12.010
REMARK INTER:                 -10.862
REMARK INTRA:                  -1.148
REMARK UNBOUND:                -0.804
REMARK  Name = 
REMARK  10 active torsions:
REMARK  status: ('A' for Active; 'I' for Inactive)
REMARK    1  A    between atoms: N_1  and  C_2
REMARK    2  A    between atoms: C_2  and  C_3
REMARK    3  A    between atoms: C_3  and  N_4
REMARK    4  A    between atoms: C_3  and  C_20
REMARK    5  A    between atoms: N_4  and  C_5
REMARK    6  A    between atoms: C_5  and  C_6
REMARK    7  A    between atoms: C_9  and  C_10
REMARK    8  A    between atoms: C_10  and  N_11
REMARK    9  A    between atoms: N_11  and  C_12
REMARK   10  A    between atoms: C_12  and  C_13
REMARK                            x       y       z     vdW  Elec       q    Type
REMARK                         _______ _______ _______ _____ _____    ______ ____
ROOT
ATOM      1  N   UNL     1      47.231   4.618  15.706  0.00  0.00    +0.000 NA
ATOM      2  H   UNL     1      47.220   5.581  15.376  0.00  0.00    +0.000 HD
ENDROOT
BRANCH   1   3
ATOM      3  C   UNL     1      48.222   4.538  16.796  0.00  0.00    +0.000 C 
BRANCH   3   4
ATOM      4  C   UNL     1      48.216   5.921  17.454  0.00  0.00    +0.000 A 
ATOM      5  C   UNL     1      47.729   6.173  18.731  0.00  0.00    +0.000 A 
ATOM      6  S   UNL     1      47.842   7.808  19.196  0.00  0.00    +0.000 S 
ATOM      7  C   UNL     1      48.589   8.231  17.728  0.00  0.00    +0.000 A 
ATOM      8  N   UNL     1      48.985   9.509  17.487  0.00  0.00    +0.000 NA
ATOM      9  C   UNL     1      49.557   9.682  16.343  0.00  0.00    +0.000 A 
ATOM     10  N   UNL     1      49.757   8.694  15.410  0.00  0.00    +0.000 N 
ATOM     11  C   UNL     1      49.353   7.390  15.598  0.00  0.00    +0.000 A 
ATOM     12  O   UNL     1      49.531   6.532  14.740  0.00  0.00    +0.000 OA
ATOM     13  C   UNL     1      48.725   7.145  16.882  0.00  0.00    +0.000 A 
ATOM     14  H   UNL     1      50.208   8.905  14.535  0.00  0.00    +0.000 HD
ENDBRANCH   3   4
BRANCH   3  15
ATOM     15  C   UNL     1      47.949   3.443  17.881  0.00  0.00    +0.000 C 
BRANCH  15  16
ATOM     16  N   UNL     1      46.649   2.760  17.799  0.00  0.00    +0.000 NA
ATOM     17  H   UNL     1      46.747   1.928  17.219  0.00  0.00    +0.000 HD
ATOM     18  H   UNL     1      45.972   3.363  17.335  0.00  0.00    +0.000 HD
ENDBRANCH  15  16
ENDBRANCH   3  15
ENDBRANCH   1   3
BRANCH   1  19
ATOM     19  C   UNL     1      47.496   3.742  14.569  0.00  0.00    +0.000 C 
BRANCH  19  20
ATOM     20  C   UNL     1      46.557   4.051  13.429  0.00  0.00    +0.000 A 
ATOM     21  C   UNL     1      45.711   3.080  12.885  0.00  0.00    +0.000 A 
ATOM     22  C   UNL     1      44.858   3.411  11.837  0.00  0.00    +0.000 A 
ATOM     23  C   UNL     1      44.854   4.719  11.364  0.00  0.00    +0.000 A 
ATOM     24  N   UNL     1      45.664   5.684  11.872  0.00  0.00    +0.000 NA
ATOM     25  C   UNL     1      46.492   5.328  12.882  0.00  0.00    +0.000 A 
BRANCH  23  26
ATOM     26  C   UNL     1      43.942   5.117  10.220  0.00  0.00    +0.000 C 
BRANCH  26  27
ATOM     27  N   UNL     1      44.057   4.242   9.041  0.00  0.00    +0.000 NA
ATOM     28  H   UNL     1      43.369   4.597   8.369  0.00  0.00    +0.000 HD
BRANCH  27  29
ATOM     29  C   UNL     1      45.375   4.364   8.412  0.00  0.00    +0.000 C 
BRANCH  29  30
ATOM     30  C   UNL     1      45.914   3.012   8.138  0.00  0.00    +0.000 A 
ATOM     31  C   UNL     1      45.597   1.765   8.631  0.00  0.00    +0.000 A 
ATOM     32  N   UNL     1      46.392   0.798   8.068  0.00  0.00    +0.000 NA
ATOM     33  C   UNL     1      47.189   1.441   7.246  0.00  0.00    +0.000 A 
ATOM     34  N   UNL     1      46.927   2.779   7.241  0.00  0.00    +0.000 N 
ATOM     35  H   UNL     1      47.410   3.497   6.717  0.00  0.00    +0.000 HD
ENDBRANCH  29  30
ENDBRANCH  27  29
ENDBRANCH  26  27
ENDBRANCH  23  26
ENDBRANCH  19  20
ENDBRANCH   1  19
TORSDOF 10
ENDMDL
MODEL 9
REMARK VINA RESULT:    -7.182      2.775      3.677
REMARK INTER + INTRA:         -11.974
REMARK INTER:                 -10.888
REMARK INTRA:                  -1.086
REMARK UNBOUND:                -0.804
REMARK  Name = 
REMARK  10 active torsions:
REMARK  status: ('A' for Active; 'I' for Inactive)
REMARK    1  A    between atoms: N_1  and  C_2
REMARK    2  A    between atoms: C_2  and  C_3
REMARK    3  A    between atoms: C_3  and  N_4
REMARK    4  A    between atoms: C_3  and  C_20
REMARK    5  A    between atoms: N_4  and  C_5
REMARK    6  A    between atoms: C_5  and  C_6
REMARK    7  A    between atoms: C_9  and  C_10
REMARK    8  A    between atoms: C_10  and  N_11
REMARK    9  A    between atoms: N_11  and  C_12
REMARK   10  A    between atoms: C_12  and  C_13
REMARK                            x       y       z     vdW  Elec       q    Type
REMARK                         _______ _______ _______ _____ _____    ______ ____
ROOT
ATOM      1  N   UNL     1      48.240   5.874  14.599  0.00  0.00    +0.000 NA
ATOM      2  H   UNL     1      47.458   5.333  14.961  0.00  0.00    +0.000 HD
ENDROOT
BRANCH   1   3
ATOM      3  C   UNL     1      48.784   6.665  15.719  0.00  0.00    +0.000 C 
BRANCH   3   4
ATOM      4  C   UNL     1      48.621   5.781  16.959  0.00  0.00    +0.000 A 
ATOM      5  C   UNL     1      48.808   4.404  16.962  0.00  0.00    +0.000 A 
ATOM      6  S   UNL     1      48.547   3.681  18.483  0.00  0.00    +0.000 S 
ATOM      7  C   UNL     1      48.222   5.187  19.204  0.00  0.00    +0.000 A 
ATOM      8  N   UNL     1      47.947   5.282  20.531  0.00  0.00    +0.000 NA
ATOM      9  C   UNL     1      47.742   6.487  20.947  0.00  0.00    +0.000 A 
ATOM     10  N   UNL     1      47.773   7.606  20.151  0.00  0.00    +0.000 N 
ATOM     11  C   UNL     1      48.024   7.558  18.797  0.00  0.00    +0.000 A 
ATOM     12  O   UNL     1      48.030   8.573  18.108  0.00  0.00    +0.000 OA
ATOM     13  C   UNL     1      48.283   6.224  18.291  0.00  0.00    +0.000 A 
ATOM     14  H   UNL     1      47.598   8.516  20.545  0.00  0.00    +0.000 HD
ENDBRANCH   3   4
BRANCH   3  15
ATOM     15  C   UNL     1      50.283   7.095  15.579  0.00  0.00    +0.000 C 
BRANCH  15  16
ATOM     16  N   UNL     1      50.737   8.164  16.481  0.00  0.00    +0.000 NA
ATOM     17  H   UNL     1      49.924   8.598  16.917  0.00  0.00    +0.000 HD
ATOM     18  H   UNL     1      51.205   8.892  15.945  0.00  0.00    +0.000 HD
ENDBRANCH  15  16
ENDBRANCH   3  15
ENDBRANCH   1   3
BRANCH   1  19
ATOM     19  C   UNL     1      47.772   6.659  13.462  0.00  0.00    +0.000 C 
BRANCH  19  20
ATOM     20  C   UNL     1      46.780   5.871  12.642  0.00  0.00    +0.000 A 
ATOM     21  C   UNL     1      46.396   6.272  11.359  0.00  0.00    +0.000 A 
ATOM     22  C   UNL     1      45.481   5.512  10.638  0.00  0.00    +0.000 A 
ATOM     23  C   UNL     1      44.980   4.347  11.211  0.00  0.00    +0.000 A 
ATOM     24  N   UNL     1      45.333   3.932  12.455  0.00  0.00    +0.000 NA
ATOM     25  C   UNL     1      46.215   4.700  13.136  0.00  0.00    +0.000 A 
BRANCH  23  26
ATOM     26  C   UNL     1      43.977   3.495  10.459  0.00  0.00    +0.000 C 
BRANCH  26  27
ATOM     27  N   UNL     1      44.389   3.174   9.081  0.00  0.00    +0.000 NA
ATOM     28  H   UNL     1      45.148   3.828   8.863  0.00  0.00    +0.000 HD
BRANCH  27  29
ATOM     29  C   UNL     1      44.947   1.823   8.992  0.00  0.00    +0.000 C 
BRANCH  29  30
ATOM     30  C   UNL     1      46.136   1.841   8.109  0.00  0.00    +0.000 A 
ATOM     31  C   UNL     1      46.942   0.840   7.610  0.00  0.00    +0.000 A 
ATOM     32  N   UNL     1      47.940   1.360   6.825  0.00  0.00    +0.000 NA
ATOM     33  C   UNL     1      47.755   2.660   6.845  0.00  0.00    +0.000 A 
ATOM     34  N   UNL     1      46.667   2.998   7.594  0.00  0.00    +0.000 N 
ATOM     35  H   UNL     1      46.322   3.928   7.790  0.00  0.00    +0.000 HD
ENDBRANCH  29  30
ENDBRANCH  27  29
ENDBRANCH  26  27
ENDBRANCH  23  26
ENDBRANCH  19  20
ENDBRANCH   1  19
TORSDOF 10
ENDMDL
