MODEL 1
REMARK VINA RESULT:    -6.933      0.000      0.000
REMARK INTER + INTRA:          -9.131
REMARK INTER:                  -8.757
REMARK INTRA:                  -0.374
REMARK UNBOUND:                -0.374
REMARK  Name = 
REMARK  5 active torsions:
REMARK  status: ('A' for Active; 'I' for Inactive)
REMARK    1  A    between atoms: N_1  and  C_2
REMARK    2  A    between atoms: C_2  and  C_3
REMARK    3  A    between atoms: C_6  and  O_7
REMARK    4  A    between atoms: O_7  and  C_8
REMARK    5  A    between atoms: C_8  and  C_9
REMARK                            x       y       z     vdW  Elec       q    Type
REMARK                         _______ _______ _______ _____ _____    ______ ____
ROOT
ATOM      1  C   UNL     1      46.601   2.823   6.930  0.00  0.00    +0.000 A 
ATOM      2  C   UNL     1      46.412   1.659   7.675  0.00  0.00    +0.000 A 
ATOM      3  C   UNL     1      45.523   1.678   8.750  0.00  0.00    +0.000 A 
ATOM      4  C   UNL     1      44.834   2.847   9.052  0.00  0.00    +0.000 A 
ATOM      5  C   UNL     1      45.110   3.968   8.279  0.00  0.00    +0.000 A 
ATOM      6  N   UNL     1      45.962   3.982   7.226  0.00  0.00    +0.000 NA
ENDROOT
BRANCH   1   7
ATOM      7  C   UNL     1      47.542   2.844   5.747  0.00  0.00    +0.000 C 
BRANCH   7   8
ATOM      8  N   UNL     1      48.527   1.757   5.771  0.00  0.00    +0.000 NA
ATOM      9  H   UNL     1      48.537   1.315   4.854  0.00  0.00    +0.000 HD
ATOM     10  H   UNL     1      48.188   1.045   6.419  0.00  0.00    +0.000 HD
ENDBRANCH   7   8
ENDBRANCH   1   7
BRANCH   4  11
ATOM     11  O   UNL     1      43.943   2.780  10.088  0.00  0.00    +0.000 OA
BRANCH  11  12
ATOM     12  C   UNL     1      43.582   4.047  10.649  0.00  0.00    +0.000 C 
BRANCH  12  13
ATOM     13  C   UNL     1      43.433   3.917  12.173  0.00  0.00    +0.000 C 
ATOM     14  C   UNL     1      43.164   5.291  12.806  0.00  0.00    +0.000 C 
ATOM     15  C   UNL     1      44.415   6.168  12.835  0.00  0.00    +0.000 C 
ATOM     16  N   UNL     1      45.532   5.502  13.505  0.00  0.00    +0.000 NA
ATOM     17  C   UNL     1      45.860   4.224  12.869  0.00  0.00    +0.000 C 
ATOM     18  C   UNL     1      44.660   3.277  12.840  0.00  0.00    +0.000 C 
ATOM     19  H   UNL     1      45.279   5.330  14.478  0.00  0.00    +0.000 HD
ENDBRANCH  12  13
ENDBRANCH  11  12
ENDBRANCH   4  11
TORSDOF 5
ENDMDL
MODEL 2
REMARK VINA RESULT:    -6.867      1.173      1.549
REMARK INTER + INTRA:          -9.048
REMARK INTER:                  -8.627
REMARK INTRA:                  -0.421
REMARK UNBOUND:                -0.374
REMARK  Name = 
REMARK  5 active torsions:
REMARK  status: ('A' for Active; 'I' for Inactive)
REMARK    1  A    between atoms: N_1  and  C_2
REMARK    2  A    between atoms: C_2  and  C_3
REMARK    3  A    between atoms: C_6  and  O_7
REMARK    4  A    between atoms: O_7  and  C_8
REMARK    5  A    between atoms: C_8  and  C_9
REMARK                            x       y       z     vdW  Elec       q    Type
REMARK                         _______ _______ _______ _____ _____    ______ ____
ROOT
ATOM      1  C   UNL     1      46.690   2.216   7.636  0.00  0.00    +0.000 A 
ATOM      2  C   UNL     1      46.357   3.568   7.559  0.00  0.00    +0.000 A 
ATOM      3  C   UNL     1      45.281   4.046   8.305  0.00  0.00    +0.000 A 
ATOM      4  C   UNL     1      44.567   3.176   9.120  0.00  0.00    +0.000 A 
ATOM      5  C   UNL     1      44.946   1.838   9.109  0.00  0.00    +0.000 A 
ATOM      6  N   UNL     1      45.988   1.342   8.401  0.00  0.00    +0.000 NA
ENDROOT
BRANCH   1   7
ATOM      7  C   UNL     1      47.858   1.656   6.857  0.00  0.00    +0.000 C 
BRANCH   7   8
ATOM      8  N   UNL     1      48.659   2.690   6.192  0.00  0.00    +0.000 NA
ATOM      9  H   UNL     1      49.083   2.280   5.361  0.00  0.00    +0.000 HD
ATOM     10  H   UNL     1      49.435   2.927   6.811  0.00  0.00    +0.000 HD
ENDBRANCH   7   8
ENDBRANCH   1   7
BRANCH   4  11
ATOM     11  O   UNL     1      43.556   3.723   9.860  0.00  0.00    +0.000 OA
BRANCH  11  12
ATOM     12  C   UNL     1      43.913   4.913  10.572  0.00  0.00    +0.000 C 
BRANCH  12  13
ATOM     13  C   UNL     1      43.572   4.751  12.062  0.00  0.00    +0.000 C 
ATOM     14  C   UNL     1      44.288   5.823  12.897  0.00  0.00    +0.000 C 
ATOM     15  C   UNL     1      45.784   5.542  13.037  0.00  0.00    +0.000 C 
ATOM     16  N   UNL     1      46.039   4.208  13.582  0.00  0.00    +0.000 NA
ATOM     17  C   UNL     1      45.433   3.161  12.756  0.00  0.00    +0.000 C 
ATOM     18  C   UNL     1      43.924   3.357  12.605  0.00  0.00    +0.000 C 
ATOM     19  H   UNL     1      45.648   4.154  14.522  0.00  0.00    +0.000 HD
ENDBRANCH  12  13
ENDBRANCH  11  12
ENDBRANCH   4  11
TORSDOF 5
ENDMDL
MODEL 3
REMARK VINA RESULT:    -6.226      1.812      6.082
REMARK INTER + INTRA:          -8.238
REMARK INTER:                  -7.833
REMARK INTRA:                  -0.405
REMARK UNBOUND:                -0.374
REMARK  Name = 
REMARK  5 active torsions:
REMARK  status: ('A' for Active; 'I' for Inactive)
REMARK    1  A    between atoms: N_1  and  C_2
REMARK    2  A    between atoms: C_2  and  C_3
REMARK    3  A    between atoms: C_6  and  O_7
REMARK    4  A    between atoms: O_7  and  C_8
REMARK    5  A    between atoms: C_8  and  C_9
REMARK                            x       y       z     vdW  Elec       q    Type
REMARK                         _______ _______ _______ _____ _____    ______ ____
ROOT
ATOM      1  C   UNL     1      46.426   4.498  13.698  0.00  0.00    +0.000 A 
ATOM      2  C   UNL     1      46.644   5.644  12.933  0.00  0.00    +0.000 A 
ATOM      3  C   UNL     1      46.094   5.720  11.653  0.00  0.00    +0.000 A 
ATOM      4  C   UNL     1      45.332   4.665  11.167  0.00  0.00    +0.000 A 
ATOM      5  C   UNL     1      45.196   3.548  11.983  0.00  0.00    +0.000 A 
ATOM      6  N   UNL     1      45.711   3.444  13.231  0.00  0.00    +0.000 NA
ENDROOT
BRANCH   1   7
ATOM      7  C   UNL     1      46.989   4.378  15.095  0.00  0.00    +0.000 C 
BRANCH   7   8
ATOM      8  N   UNL     1      47.781   3.160  15.298  0.00  0.00    +0.000 NA
ATOM      9  H   UNL     1      47.250   2.369  14.938  0.00  0.00    +0.000 HD
ATOM     10  H   UNL     1      47.861   3.006  16.304  0.00  0.00    +0.000 HD
ENDBRANCH   7   8
ENDBRANCH   1   7
BRANCH   4  11
ATOM     11  O   UNL     1      44.784   4.829   9.925  0.00  0.00    +0.000 OA
BRANCH  11  12
ATOM     12  C   UNL     1      45.725   4.784   8.847  0.00  0.00    +0.000 C 
BRANCH  12  13
ATOM     13  C   UNL     1      45.196   3.867   7.731  0.00  0.00    +0.000 C 
ATOM     14  C   UNL     1      44.614   2.577   8.327  0.00  0.00    +0.000 C 
ATOM     15  C   UNL     1      45.704   1.626   8.821  0.00  0.00    +0.000 C 
ATOM     16  N   UNL     1      46.675   1.317   7.771  0.00  0.00    +0.000 NA
ATOM     17  C   UNL     1      47.304   2.530   7.242  0.00  0.00    +0.000 C 
ATOM     18  C   UNL     1      46.271   3.513   6.691  0.00  0.00    +0.000 C 
ATOM     19  H   UNL     1      46.196   0.835   7.010  0.00  0.00    +0.000 HD
ENDBRANCH  12  13
ENDBRANCH  11  12
ENDBRANCH   4  11
TORSDOF 5
ENDMDL
MODEL 4
REMARK VINA RESULT:    -5.925      1.753      2.584
REMARK INTER + INTRA:          -7.858
REMARK INTER:                  -7.630
REMARK INTRA:                  -0.228
REMARK UNBOUND:                -0.374
REMARK  Name = 
REMARK  5 active torsions:
REMARK  status: ('A' for Active; 'I' for Inactive)
REMARK    1  A    between atoms: N_1  and  C_2
REMARK    2  A    between atoms: C_2  and  C_3
REMARK    3  A    between atoms: C_6  and  O_7
REMARK    4  A    between atoms: O_7  and  C_8
REMARK    5  A    between atoms: C_8  and  C_9
REMARK                            x       y       z     vdW  Elec       q    Type
REMARK                         _______ _______ _______ _____ _____    ______ ____
ROOT
ATOM      1  C   UNL     1      46.606   2.219   7.533  0.00  0.00    +0.000 A 
ATOM      2  C   UNL     1      46.435   3.589   7.332  0.00  0.00    +0.000 A 
ATOM      3  C   UNL     1      45.601   4.303   8.193  0.00  0.00    +0.000 A 
ATOM      4  C   UNL     1      44.968   3.644   9.241  0.00  0.00    +0.000 A 
ATOM      5  C   UNL     1      45.168   2.273   9.345  0.00  0.00    +0.000 A 
ATOM      6  N   UNL     1      45.973   1.551   8.530  0.00  0.00    +0.000 NA
ENDROOT
BRANCH   1   7
ATOM      7  C   UNL     1      47.511   1.409   6.634  0.00  0.00    +0.000 C 
BRANCH   7   8
ATOM      8  N   UNL     1      48.665   2.168   6.137  0.00  0.00    +0.000 NA
ATOM      9  H   UNL     1      48.713   2.051   5.127  0.00  0.00    +0.000 HD
ATOM     10  H   UNL     1      49.508   1.728   6.508  0.00  0.00    +0.000 HD
ENDBRANCH   7   8
ENDBRANCH   1   7
BRANCH   4  11
ATOM     11  O   UNL     1      44.206   4.415  10.074  0.00  0.00    +0.000 OA
BRANCH  11  12
ATOM     12  C   UNL     1      44.894   4.909  11.228  0.00  0.00    +0.000 C 
BRANCH  12  13
ATOM     13  C   UNL     1      45.633   6.210  10.877  0.00  0.00    +0.000 C 
ATOM     14  C   UNL     1      47.049   6.202  11.471  0.00  0.00    +0.000 C 
ATOM     15  C   UNL     1      47.042   6.417  12.984  0.00  0.00    +0.000 C 
ATOM     16  N   UNL     1      46.334   7.642  13.357  0.00  0.00    +0.000 NA
ATOM     17  C   UNL     1      44.952   7.638  12.869  0.00  0.00    +0.000 C 
ATOM     18  C   UNL     1      44.885   7.466  11.351  0.00  0.00    +0.000 C 
ATOM     19  H   UNL     1      46.823   8.442  12.955  0.00  0.00    +0.000 HD
ENDBRANCH  12  13
ENDBRANCH  11  12
ENDBRANCH   4  11
TORSDOF 5
ENDMDL
MODEL 5
REMARK VINA RESULT:    -5.503      1.698      6.237
REMARK INTER + INTRA:          -7.325
REMARK INTER:                  -6.912
REMARK INTRA:                  -0.413
REMARK UNBOUND:                -0.374
REMARK  Name = 
REMARK  5 active torsions:
REMARK  status: ('A' for Active; 'I' for Inactive)
REMARK    1  A    between atoms: N_1  and  C_2
REMARK    2  A    between atoms: C_2  and  C_3
REMARK    3  A    between atoms: C_6  and  O_7
REMARK    4  A    between atoms: O_7  and  C_8
REMARK    5  A    between atoms: C_8  and  C_9
REMARK                            x       y       z     vdW  Elec       q    Type
REMARK                         _______ _______ _______ _____ _____    ______ ____
ROOT
ATOM      1  C   UNL     1      45.641   7.380  12.611  0.00  0.00    +0.000 A 
ATOM      2  C   UNL     1      44.847   7.289  11.468  0.00  0.00    +0.000 A 
ATOM      3  C   UNL     1      44.408   6.035  11.045  0.00  0.00    +0.000 A 
ATOM      4  C   UNL     1      44.757   4.902  11.771  0.00  0.00    +0.000 A 
ATOM      5  C   UNL     1      45.580   5.083  12.876  0.00  0.00    +0.000 A 
ATOM      6  N   UNL     1      46.019   6.285  13.317  0.00  0.00    +0.000 NA
ENDROOT
BRANCH   1   7
ATOM      7  C   UNL     1      46.127   8.720  13.116  0.00  0.00    +0.000 C 
BRANCH   7   8
ATOM      8  N   UNL     1      47.026   8.613  14.270  0.00  0.00    +0.000 NA
ATOM      9  H   UNL     1      47.984   8.698  13.938  0.00  0.00    +0.000 HD
ATOM     10  H   UNL     1      46.944   7.665  14.640  0.00  0.00    +0.000 HD
ENDBRANCH   7   8
ENDBRANCH   1   7
BRANCH   4  11
ATOM     11  O   UNL     1      44.251   3.712  11.326  0.00  0.00    +0.000 OA
BRANCH  11  12
ATOM     12  C   UNL     1      45.154   2.943  10.524  0.00  0.00    +0.000 C 
BRANCH  12  13
ATOM     13  C   UNL     1      44.524   2.665   9.150  0.00  0.00    +0.000 C 
ATOM     14  C   UNL     1      45.031   1.331   8.584  0.00  0.00    +0.000 C 
ATOM     15  C   UNL     1      46.475   1.425   8.090  0.00  0.00    +0.000 C 
ATOM     16  N   UNL     1      46.646   2.498   7.111  0.00  0.00    +0.000 NA
ATOM     17  C   UNL     1      46.244   3.797   7.655  0.00  0.00    +0.000 C 
ATOM     18  C   UNL     1      44.792   3.788   8.134  0.00  0.00    +0.000 C 
ATOM     19  H   UNL     1      46.075   2.292   6.291  0.00  0.00    +0.000 HD
ENDBRANCH  12  13
ENDBRANCH  11  12
ENDBRANCH   4  11
TORSDOF 5
ENDMDL
MODEL 6
REMARK VINA RESULT:    -5.437      2.932      6.269
REMARK INTER + INTRA:          -7.242
REMARK INTER:                  -6.850
REMARK INTRA:                  -0.393
REMARK UNBOUND:                -0.374
REMARK  Name = 
REMARK  5 active torsions:
REMARK  status: ('A' for Active; 'I' for Inactive)
REMARK    1  A    between atoms: N_1  and  C_2
REMARK    2  A    between atoms: C_2  and  C_3
REMARK    3  A    between atoms: C_6  and  O_7
REMARK    4  A    between atoms: O_7  and  C_8
REMARK    5  A    between atoms: C_8  and  C_9
REMARK                            x       y       z     vdW  Elec       q    Type
REMARK                         _______ _______ _______ _____ _____    ______ ____
ROOT
ATOM      1  C   UNL     1      48.291   6.701  14.120  0.00  0.00    +0.000 A 
ATOM      2  C   UNL     1      47.396   7.019  13.100  0.00  0.00    +0.000 A 
ATOM      3  C   UNL     1      46.310   6.176  12.862  0.00  0.00    +0.000 A 
ATOM      4  C   UNL     1      46.131   5.046  13.650  0.00  0.00    +0.000 A 
ATOM      5  C   UNL     1      47.091   4.787  14.621  0.00  0.00    +0.000 A 
ATOM      6  N   UNL     1      48.153   5.587  14.880  0.00  0.00    +0.000 NA
ENDROOT
BRANCH   1   7
ATOM      7  C   UNL     1      49.473   7.594  14.424  0.00  0.00    +0.000 C 
BRANCH   7   8
ATOM      8  N   UNL     1      50.274   7.128  15.561  0.00  0.00    +0.000 NA
ATOM      9  H   UNL     1      50.943   7.857  15.801  0.00  0.00    +0.000 HD
ATOM     10  H   UNL     1      50.831   6.334  15.243  0.00  0.00    +0.000 HD
ENDBRANCH   7   8
ENDBRANCH   1   7
BRANCH   4  11
ATOM     11  O   UNL     1      45.020   4.292  13.392  0.00  0.00    +0.000 OA
BRANCH  11  12
ATOM     12  C   UNL     1      45.194   3.298  12.376  0.00  0.00    +0.000 C 
BRANCH  12  13
ATOM     13  C   UNL     1      43.859   3.052  11.654  0.00  0.00    +0.000 C 
ATOM     14  C   UNL     1      44.105   2.547  10.225  0.00  0.00    +0.000 C 
ATOM     15  C   UNL     1      44.596   3.657   9.296  0.00  0.00    +0.000 C 
ATOM     16  N   UNL     1      43.685   4.802   9.288  0.00  0.00    +0.000 NA
ATOM     17  C   UNL     1      43.496   5.353  10.631  0.00  0.00    +0.000 C 
ATOM     18  C   UNL     1      42.967   4.304  11.609  0.00  0.00    +0.000 C 
ATOM     19  H   UNL     1      42.780   4.502   8.924  0.00  0.00    +0.000 HD
ENDBRANCH  12  13
ENDBRANCH  11  12
ENDBRANCH   4  11
TORSDOF 5
ENDMDL
MODEL 7
REMARK VINA RESULT:    -5.332      3.883      6.774
REMARK INTER + INTRA:          -7.109
REMARK INTER:                  -6.774
REMARK INTRA:                  -0.335
REMARK UNBOUND:                -0.374
REMARK  Name = 
REMARK  5 active torsions:
REMARK  status: ('A' for Active; 'I' for Inactive)
REMARK    1  A    between atoms: N_1  and  C_2
REMARK    2  A    between atoms: C_2  and  C_3
REMARK    3  A    between atoms: C_6  and  O_7
REMARK    4  A    between atoms: O_7  and  C_8
REMARK    5  A    between atoms: C_8  and  C_9
REMARK                            x       y       z     vdW  Elec       q    Type
REMARK                         _______ _______ _______ _____ _____    ______ ____
ROOT
ATOM      1  C   UNL     1      47.670   4.382  16.088  0.00  0.00    +0.000 A 
ATOM      2  C   UNL     1      48.225   5.617  15.756  0.00  0.00    +0.000 A 
ATOM      3  C   UNL     1      47.879   6.214  14.544  0.00  0.00    +0.000 A 
ATOM      4  C   UNL     1      46.980   5.577  13.696  0.00  0.00    +0.000 A 
ATOM      5  C   UNL     1      46.503   4.333  14.091  0.00  0.00    +0.000 A 
ATOM      6  N   UNL     1      46.815   3.729  15.262  0.00  0.00    +0.000 NA
ENDROOT
BRANCH   1   7
ATOM      7  C   UNL     1      48.004   3.706  17.398  0.00  0.00    +0.000 C 
BRANCH   7   8
ATOM      8  N   UNL     1      46.967   2.770  17.848  0.00  0.00    +0.000 NA
ATOM      9  H   UNL     1      46.240   3.302  18.322  0.00  0.00    +0.000 HD
ATOM     10  H   UNL     1      47.381   2.168  18.561  0.00  0.00    +0.000 HD
ENDBRANCH   7   8
ENDBRANCH   1   7
BRANCH   4  11
ATOM     11  O   UNL     1      46.650   6.242  12.548  0.00  0.00    +0.000 OA
BRANCH  11  12
ATOM     12  C   UNL     1      45.278   6.645  12.464  0.00  0.00    +0.000 C 
BRANCH  12  13
ATOM     13  C   UNL     1      44.704   6.258  11.091  0.00  0.00    +0.000 C 
ATOM     14  C   UNL     1      43.179   6.434  11.077  0.00  0.00    +0.000 C 
ATOM     15  C   UNL     1      42.463   5.342  11.871  0.00  0.00    +0.000 C 
ATOM     16  N   UNL     1      42.831   4.003  11.409  0.00  0.00    +0.000 NA
ATOM     17  C   UNL     1      44.277   3.782  11.490  0.00  0.00    +0.000 C 
ATOM     18  C   UNL     1      45.058   4.819  10.682  0.00  0.00    +0.000 C 
ATOM     19  H   UNL     1      42.534   3.895  10.439  0.00  0.00    +0.000 HD
ENDBRANCH  12  13
ENDBRANCH  11  12
ENDBRANCH   4  11
TORSDOF 5
ENDMDL
MODEL 8
REMARK VINA RESULT:    -5.273      4.240      6.278
REMARK INTER + INTRA:          -7.035
REMARK INTER:                  -6.745
REMARK INTRA:                  -0.290
REMARK UNBOUND:                -0.374
REMARK  Name = 
REMARK  5 active torsions:
REMARK  status: ('A' for Active; 'I' for Inactive)
REMARK    1  A    between atoms: N_1  and  C_2
REMARK    2  A    between atoms: C_2  and  C_3
REMARK    3  A    between atoms: C_6  and  O_7
REMARK    4  A    between atoms: O_7  and  C_8
REMARK    5  A    between atoms: C_8  and  C_9
REMARK                            x       y       z     vdW  Elec       q    Type
REMARK                         _______ _______ _______ _____ _____    ______ ____
ROOT
ATOM      1  C   UNL     1      44.258   4.922  11.893  0.00  0.00    +0.000 A 
ATOM      2  C   UNL     1      44.729   3.613  11.793  0.00  0.00    +0.000 A 
ATOM      3  C   UNL     1      45.760   3.196  12.635  0.00  0.00    +0.000 A 
ATOM      4  C   UNL     1      46.290   4.083  13.565  0.00  0.00    +0.000 A 
ATOM      5  C   UNL     1      45.785   5.378  13.571  0.00  0.00    +0.000 A 
ATOM      6  N   UNL     1      44.783   5.813  12.771  0.00  0.00    +0.000 NA
ENDROOT
BRANCH   1   7
ATOM      7  C   UNL     1      43.133   5.413  11.012  0.00  0.00    +0.000 C 
BRANCH   7   8
ATOM      8  N   UNL     1      42.162   6.250  11.724  0.00  0.00    +0.000 NA
ATOM      9  H   UNL     1      41.919   5.786  12.597  0.00  0.00    +0.000 HD
ATOM     10  H   UNL     1      41.304   6.269  11.172  0.00  0.00    +0.000 HD
ENDBRANCH   7   8
ENDBRANCH   1   7
BRANCH   4  11
ATOM     11  O   UNL     1      47.264   3.592  14.390  0.00  0.00    +0.000 OA
BRANCH  11  12
ATOM     12  C   UNL     1      47.617   4.455  15.477  0.00  0.00    +0.000 C 
BRANCH  12  13
ATOM     13  C   UNL     1      47.374   3.735  16.813  0.00  0.00    +0.000 C 
ATOM     14  C   UNL     1      47.267   4.751  17.960  0.00  0.00    +0.000 C 
ATOM     15  C   UNL     1      48.624   5.345  18.334  0.00  0.00    +0.000 C 
ATOM     16  N   UNL     1      49.603   4.306  18.657  0.00  0.00    +0.000 NA
ATOM     17  C   UNL     1      49.783   3.369  17.545  0.00  0.00    +0.000 C 
ATOM     18  C   UNL     1      48.466   2.704  17.142  0.00  0.00    +0.000 C 
ATOM     19  H   UNL     1      49.280   3.789  19.474  0.00  0.00    +0.000 HD
ENDBRANCH  12  13
ENDBRANCH  11  12
ENDBRANCH   4  11
TORSDOF 5
ENDMDL
MODEL 9
REMARK VINA RESULT:    -5.170      3.868      6.155
REMARK INTER + INTRA:          -6.904
REMARK INTER:                  -6.526
REMARK INTRA:                  -0.378
REMARK UNBOUND:                -0.374
REMARK  Name = 
REMARK  5 active torsions:
REMARK  status: ('A' for Active; 'I' for Inactive)
REMARK    1  A    between atoms: N_1  and  C_2
REMARK    2  A    between atoms: C_2  and  C_3
REMARK    3  A    between atoms: C_6  and  O_7
REMARK    4  A    between atoms: O_7  and  C_8
REMARK    5  A    between atoms: C_8  and  C_9
REMARK                            x       y       z     vdW  Elec       q    Type
REMARK                         _______ _______ _______ _____ _____    ______ ____
ROOT
ATOM      1  C   UNL     1      49.129   7.109  13.864  0.00  0.00    +0.000 A 
ATOM      2  C   UNL     1      49.090   7.848  12.682  0.00  0.00    +0.000 A 
ATOM      3  C   UNL     1      48.101   7.568  11.738  0.00  0.00    +0.000 A 
ATOM      4  C   UNL     1      47.168   6.570  11.995  0.00  0.00    +0.000 A 
ATOM      5  C   UNL     1      47.303   5.861  13.183  0.00  0.00    +0.000 A 
ATOM      6  N   UNL     1      48.247   6.111  14.121  0.00  0.00    +0.000 NA
ENDROOT
BRANCH   1   7
ATOM      7  C   UNL     1      50.172   7.388  14.921  0.00  0.00    +0.000 C 
BRANCH   7   8
ATOM      8  N   UNL     1      50.184   6.395  16.001  0.00  0.00    +0.000 NA
ATOM      9  H   UNL     1      50.821   5.646  15.739  0.00  0.00    +0.000 HD
ATOM     10  H   UNL     1      49.257   5.970  16.041  0.00  0.00    +0.000 HD
ENDBRANCH   7   8
ENDBRANCH   1   7
BRANCH   4  11
ATOM     11  O   UNL     1      46.199   6.383  11.048  0.00  0.00    +0.000 OA
BRANCH  11  12
ATOM     12  C   UNL     1      44.857   6.501  11.535  0.00  0.00    +0.000 C 
BRANCH  12  13
ATOM     13  C   UNL     1      43.981   5.398  10.919  0.00  0.00    +0.000 C 
ATOM     14  C   UNL     1      42.729   5.164  11.776  0.00  0.00    +0.000 C 
ATOM     15  C   UNL     1      43.048   4.419  13.072  0.00  0.00    +0.000 C 
ATOM     16  N   UNL     1      43.742   3.156  12.818  0.00  0.00    +0.000 NA
ATOM     17  C   UNL     1      44.984   3.363  12.069  0.00  0.00    +0.000 C 
ATOM     18  C   UNL     1      44.734   4.071  10.737  0.00  0.00    +0.000 C 
ATOM     19  H   UNL     1      43.129   2.545  12.279  0.00  0.00    +0.000 HD
ENDBRANCH  12  13
ENDBRANCH  11  12
ENDBRANCH   4  11
TORSDOF 5
ENDMDL
