MODEL 1
REMARK VINA RESULT:    -8.037      0.000      0.000
REMARK INTER + INTRA:         -11.353
REMARK INTER:                 -10.621
REMARK INTRA:                  -0.732
REMARK UNBOUND:                -0.732
REMARK  Name = 
REMARK  7 active torsions:
REMARK  status: ('A' for Active; 'I' for Inactive)
REMARK    1  A    between atoms: C_1  and  O_2
REMARK    2  A    between atoms: O_2  and  C_3
REMARK    3  A    between atoms: N_9  and  C_10
REMARK    4  A    between atoms: C_10  and  C_11
REMARK    5  A    between atoms: C_14  and  C_15
REMARK    6  A    between atoms: C_15  and  C_16
REMARK    7  A    between atoms: C_16  and  N_17
REMARK                            x       y       z     vdW  Elec       q    Type
REMARK                         _______ _______ _______ _____ _____    ______ ____
ROOT
ATOM      1  C   UNL     1      43.666   4.791  10.995  0.00  0.00    +0.000 C 
ENDROOT
BRANCH   1   8
ATOM      2  C   UNL     1      47.067   4.370  14.034  0.00  0.00    +0.000 A 
ATOM      3  C   UNL     1      47.610   5.598  14.414  0.00  0.00    +0.000 A 
ATOM      4  C   UNL     1      47.165   6.784  13.822  0.00  0.00    +0.000 A 
ATOM      5  C   UNL     1      46.145   6.741  12.850  0.00  0.00    +0.000 A 
ATOM      6  C   UNL     1      45.483   7.739  12.094  0.00  0.00    +0.000 A 
ATOM      7  C   UNL     1      44.544   7.113  11.309  0.00  0.00    +0.000 A 
ATOM      8  N   UNL     1      44.605   5.761  11.560  0.00  0.00    +0.000 N 
ATOM      9  C   UNL     1      45.605   5.502  12.482  0.00  0.00    +0.000 A 
ATOM     10  C   UNL     1      46.082   4.302  13.043  0.00  0.00    +0.000 A 
BRANCH   2  12
ATOM     11  C   UNL     1      47.771   3.176  15.943  0.00  0.00    +0.000 C 
ATOM     12  O   UNL     1      47.457   3.161  14.551  0.00  0.00    +0.000 OA
ENDBRANCH   2  12
ENDBRANCH   1   8
BRANCH   1  13
ATOM     13  C   UNL     1      44.304   3.974   9.900  0.00  0.00    +0.000 A 
ATOM     14  C   UNL     1      44.241   2.575   9.932  0.00  0.00    +0.000 A 
ATOM     15  C   UNL     1      45.013   1.812   9.054  0.00  0.00    +0.000 A 
ATOM     16  C   UNL     1      45.870   2.437   8.140  0.00  0.00    +0.000 A 
ATOM     17  C   UNL     1      45.832   3.829   8.016  0.00  0.00    +0.000 A 
ATOM     18  C   UNL     1      45.056   4.593   8.891  0.00  0.00    +0.000 A 
BRANCH  16  19
ATOM     19  C   UNL     1      46.909   1.629   7.400  0.00  0.00    +0.000 C 
BRANCH  19  20
ATOM     20  C   UNL     1      48.058   2.444   6.815  0.00  0.00    +0.000 C 
BRANCH  20  21
ATOM     21  N   UNL     1      48.446   1.892   5.514  0.00  0.00    +0.000 NA
ATOM     22  H   UNL     1      48.743   2.647   4.895  0.00  0.00    +0.000 HD
ATOM     23  H   UNL     1      47.636   1.461   5.071  0.00  0.00    +0.000 HD
ENDBRANCH  20  21
ENDBRANCH  19  20
ENDBRANCH  16  19
ENDBRANCH   1  13
TORSDOF 6
ENDMDL
MODEL 2
REMARK VINA RESULT:    -7.627      2.013      3.313
REMARK INTER + INTRA:         -10.811
REMARK INTER:                 -10.103
REMARK INTRA:                  -0.709
REMARK UNBOUND:                -0.732
REMARK  Name = 
REMARK  7 active torsions:
REMARK  status: ('A' for Active; 'I' for Inactive)
REMARK    1  A    between atoms: C_1  and  O_2
REMARK    2  A    between atoms: O_2  and  C_3
REMARK    3  A    between atoms: N_9  and  C_10
REMARK    4  A    between atoms: C_10  and  C_11
REMARK    5  A    between atoms: C_14  and  C_15
REMARK    6  A    between atoms: C_15  and  C_16
REMARK    7  A    between atoms: C_16  and  N_17
REMARK                            x       y       z     vdW  Elec       q    Type
REMARK                         _______ _______ _______ _____ _____    ______ ____
ROOT
ATOM      1  C   UNL     1      43.748   4.397  10.805  0.00  0.00    +0.000 C 
ENDROOT
BRANCH   1   8
ATOM      2  C   UNL     1      45.159   8.632  11.833  0.00  0.00    +0.000 A 
ATOM      3  C   UNL     1      46.213   8.646  12.746  0.00  0.00    +0.000 A 
ATOM      4  C   UNL     1      46.681   7.454  13.308  0.00  0.00    +0.000 A 
ATOM      5  C   UNL     1      46.097   6.227  12.933  0.00  0.00    +0.000 A 
ATOM      6  C   UNL     1      46.345   4.882  13.300  0.00  0.00    +0.000 A 
ATOM      7  C   UNL     1      45.476   4.089  12.590  0.00  0.00    +0.000 A 
ATOM      8  N   UNL     1      44.702   4.904  11.794  0.00  0.00    +0.000 N 
ATOM      9  C   UNL     1      45.042   6.227  12.010  0.00  0.00    +0.000 A 
ATOM     10  C   UNL     1      44.539   7.429  11.477  0.00  0.00    +0.000 A 
BRANCH   2  12
ATOM     11  C   UNL     1      45.352  10.959  11.497  0.00  0.00    +0.000 C 
ATOM     12  O   UNL     1      44.630   9.754  11.248  0.00  0.00    +0.000 OA
ENDBRANCH   2  12
ENDBRANCH   1   8
BRANCH   1  13
ATOM     13  C   UNL     1      44.443   3.640   9.701  0.00  0.00    +0.000 A 
ATOM     14  C   UNL     1      44.392   2.241   9.662  0.00  0.00    +0.000 A 
ATOM     15  C   UNL     1      45.210   1.529   8.783  0.00  0.00    +0.000 A 
ATOM     16  C   UNL     1      46.101   2.204   7.940  0.00  0.00    +0.000 A 
ATOM     17  C   UNL     1      46.054   3.601   7.883  0.00  0.00    +0.000 A 
ATOM     18  C   UNL     1      45.233   4.314   8.759  0.00  0.00    +0.000 A 
BRANCH  16  19
ATOM     19  C   UNL     1      47.180   1.443   7.209  0.00  0.00    +0.000 C 
BRANCH  19  20
ATOM     20  C   UNL     1      48.301   2.306   6.640  0.00  0.00    +0.000 C 
BRANCH  20  21
ATOM     21  N   UNL     1      48.356   2.153   5.184  0.00  0.00    +0.000 NA
ATOM     22  H   UNL     1      49.186   2.621   4.819  0.00  0.00    +0.000 HD
ATOM     23  H   UNL     1      47.555   2.620   4.761  0.00  0.00    +0.000 HD
ENDBRANCH  20  21
ENDBRANCH  19  20
ENDBRANCH  16  19
ENDBRANCH   1  13
TORSDOF 6
ENDMDL
MODEL 3
REMARK VINA RESULT:    -6.589      2.742      6.197
REMARK INTER + INTRA:          -9.440
REMARK INTER:                  -8.723
REMARK INTRA:                  -0.717
REMARK UNBOUND:                -0.732
REMARK  Name = 
REMARK  7 active torsions:
REMARK  status: ('A' for Active; 'I' for Inactive)
REMARK    1  A    between atoms: C_1  and  O_2
REMARK    2  A    between atoms: O_2  and  C_3
REMARK    3  A    between atoms: N_9  and  C_10
REMARK    4  A    between atoms: C_10  and  C_11
REMARK    5  A    between atoms: C_14  and  C_15
REMARK    6  A    between atoms: C_15  and  C_16
REMARK    7  A    between atoms: C_16  and  N_17
REMARK                            x       y       z     vdW  Elec       q    Type
REMARK                         _______ _______ _______ _____ _____    ______ ____
ROOT
ATOM      1  C   UNL     1      44.133   6.351  11.813  0.00  0.00    +0.000 C 
ENDROOT
BRANCH   1   8
ATOM      2  C   UNL     1      45.604   3.822   8.288  0.00  0.00    +0.000 A 
ATOM      3  C   UNL     1      45.167   2.499   8.350  0.00  0.00    +0.000 A 
ATOM      4  C   UNL     1      44.430   2.045   9.449  0.00  0.00    +0.000 A 
ATOM      5  C   UNL     1      44.107   2.938  10.490  0.00  0.00    +0.000 A 
ATOM      6  C   UNL     1      43.382   2.797  11.699  0.00  0.00    +0.000 A 
ATOM      7  C   UNL     1      43.363   4.023  12.320  0.00  0.00    +0.000 A 
ATOM      8  N   UNL     1      44.052   4.917  11.529  0.00  0.00    +0.000 N 
ATOM      9  C   UNL     1      44.547   4.267  10.413  0.00  0.00    +0.000 A 
ATOM     10  C   UNL     1      45.328   4.714   9.330  0.00  0.00    +0.000 A 
BRANCH   2  12
ATOM     11  C   UNL     1      46.751   3.395   6.272  0.00  0.00    +0.000 C 
ATOM     12  O   UNL     1      46.344   4.343   7.257  0.00  0.00    +0.000 OA
ENDBRANCH   2  12
ENDBRANCH   1   8
BRANCH   1  13
ATOM     13  C   UNL     1      45.486   6.732  12.359  0.00  0.00    +0.000 A 
ATOM     14  C   UNL     1      46.102   7.923  11.954  0.00  0.00    +0.000 A 
ATOM     15  C   UNL     1      47.437   8.172  12.276  0.00  0.00    +0.000 A 
ATOM     16  C   UNL     1      48.180   7.229  12.996  0.00  0.00    +0.000 A 
ATOM     17  C   UNL     1      47.529   6.105  13.515  0.00  0.00    +0.000 A 
ATOM     18  C   UNL     1      46.192   5.857  13.197  0.00  0.00    +0.000 A 
BRANCH  16  19
ATOM     19  C   UNL     1      49.681   7.358  13.093  0.00  0.00    +0.000 C 
BRANCH  19  20
ATOM     20  C   UNL     1      50.318   8.251  12.034  0.00  0.00    +0.000 C 
BRANCH  20  21
ATOM     21  N   UNL     1      51.152   7.443  11.139  0.00  0.00    +0.000 NA
ATOM     22  H   UNL     1      50.682   6.559  10.936  0.00  0.00    +0.000 HD
ATOM     23  H   UNL     1      52.024   7.202  11.609  0.00  0.00    +0.000 HD
ENDBRANCH  20  21
ENDBRANCH  19  20
ENDBRANCH  16  19
ENDBRANCH   1  13
TORSDOF 6
ENDMDL
MODEL 4
REMARK VINA RESULT:    -6.516      2.747      6.744
REMARK INTER + INTRA:          -9.343
REMARK INTER:                  -8.841
REMARK INTRA:                  -0.503
REMARK UNBOUND:                -0.732
REMARK  Name = 
REMARK  7 active torsions:
REMARK  status: ('A' for Active; 'I' for Inactive)
REMARK    1  A    between atoms: C_1  and  O_2
REMARK    2  A    between atoms: O_2  and  C_3
REMARK    3  A    between atoms: N_9  and  C_10
REMARK    4  A    between atoms: C_10  and  C_11
REMARK    5  A    between atoms: C_14  and  C_15
REMARK    6  A    between atoms: C_15  and  C_16
REMARK    7  A    between atoms: C_16  and  N_17
REMARK                            x       y       z     vdW  Elec       q    Type
REMARK                         _______ _______ _______ _____ _____    ______ ____
ROOT
ATOM      1  C   UNL     1      44.147   6.439  11.701  0.00  0.00    +0.000 C 
ENDROOT
BRANCH   1   8
ATOM      2  C   UNL     1      45.597   3.813   8.238  0.00  0.00    +0.000 A 
ATOM      3  C   UNL     1      45.176   2.489   8.349  0.00  0.00    +0.000 A 
ATOM      4  C   UNL     1      44.458   2.063   9.472  0.00  0.00    +0.000 A 
ATOM      5  C   UNL     1      44.140   2.985  10.489  0.00  0.00    +0.000 A 
ATOM      6  C   UNL     1      43.434   2.875  11.712  0.00  0.00    +0.000 A 
ATOM      7  C   UNL     1      43.410   4.121  12.293  0.00  0.00    +0.000 A 
ATOM      8  N   UNL     1      44.078   4.995  11.465  0.00  0.00    +0.000 N 
ATOM      9  C   UNL     1      44.565   4.315  10.363  0.00  0.00    +0.000 A 
ATOM     10  C   UNL     1      45.326   4.736   9.256  0.00  0.00    +0.000 A 
BRANCH   2  12
ATOM     11  C   UNL     1      46.722   3.333   6.222  0.00  0.00    +0.000 C 
ATOM     12  O   UNL     1      46.318   4.308   7.182  0.00  0.00    +0.000 OA
ENDBRANCH   2  12
ENDBRANCH   1   8
BRANCH   1  13
ATOM     13  C   UNL     1      45.470   6.838  12.306  0.00  0.00    +0.000 A 
ATOM     14  C   UNL     1      46.414   5.862  12.651  0.00  0.00    +0.000 A 
ATOM     15  C   UNL     1      47.535   6.201  13.409  0.00  0.00    +0.000 A 
ATOM     16  C   UNL     1      47.724   7.518  13.846  0.00  0.00    +0.000 A 
ATOM     17  C   UNL     1      46.856   8.515  13.388  0.00  0.00    +0.000 A 
ATOM     18  C   UNL     1      45.736   8.177  12.625  0.00  0.00    +0.000 A 
BRANCH  16  19
ATOM     19  C   UNL     1      48.763   7.829  14.895  0.00  0.00    +0.000 C 
BRANCH  19  20
ATOM     20  C   UNL     1      49.125   6.662  15.806  0.00  0.00    +0.000 C 
BRANCH  20  21
ATOM     21  N   UNL     1      48.267   6.674  16.994  0.00  0.00    +0.000 NA
ATOM     22  H   UNL     1      48.795   7.018  17.797  0.00  0.00    +0.000 HD
ATOM     23  H   UNL     1      47.986   5.721  17.223  0.00  0.00    +0.000 HD
ENDBRANCH  20  21
ENDBRANCH  19  20
ENDBRANCH  16  19
ENDBRANCH   1  13
TORSDOF 6
ENDMDL
MODEL 5
REMARK VINA RESULT:    -6.040      2.787      4.328
REMARK INTER + INTRA:          -8.714
REMARK INTER:                  -8.327
REMARK INTRA:                  -0.387
REMARK UNBOUND:                -0.732
REMARK  Name = 
REMARK  7 active torsions:
REMARK  status: ('A' for Active; 'I' for Inactive)
REMARK    1  A    between atoms: C_1  and  O_2
REMARK    2  A    between atoms: O_2  and  C_3
REMARK    3  A    between atoms: N_9  and  C_10
REMARK    4  A    between atoms: C_10  and  C_11
REMARK    5  A    between atoms: C_14  and  C_15
REMARK    6  A    between atoms: C_15  and  C_16
REMARK    7  A    between atoms: C_16  and  N_17
REMARK                            x       y       z     vdW  Elec       q    Type
REMARK                         _______ _______ _______ _____ _____    ______ ____
ROOT
ATOM      1  C   UNL     1      45.995   5.752  13.065  0.00  0.00    +0.000 C 
ENDROOT
BRANCH   1   8
ATOM      2  C   UNL     1      45.381  10.188  12.099  0.00  0.00    +0.000 A 
ATOM      3  C   UNL     1      46.573  10.849  11.808  0.00  0.00    +0.000 A 
ATOM      4  C   UNL     1      47.798  10.180  11.903  0.00  0.00    +0.000 A 
ATOM      5  C   UNL     1      47.825   8.821  12.276  0.00  0.00    +0.000 A 
ATOM      6  C   UNL     1      48.872   7.883  12.445  0.00  0.00    +0.000 A 
ATOM      7  C   UNL     1      48.303   6.681  12.796  0.00  0.00    +0.000 A 
ATOM      8  N   UNL     1      46.937   6.851  12.844  0.00  0.00    +0.000 N 
ATOM      9  C   UNL     1      46.619   8.167  12.560  0.00  0.00    +0.000 A 
ATOM     10  C   UNL     1      45.389   8.849  12.509  0.00  0.00    +0.000 A 
BRANCH   2  12
ATOM     11  C   UNL     1      43.387  10.477  10.872  0.00  0.00    +0.000 C 
ATOM     12  O   UNL     1      44.141  10.773  12.047  0.00  0.00    +0.000 OA
ENDBRANCH   2  12
ENDBRANCH   1   8
BRANCH   1  13
ATOM     13  C   UNL     1      45.535   5.146  11.762  0.00  0.00    +0.000 A 
ATOM     14  C   UNL     1      44.996   3.854  11.734  0.00  0.00    +0.000 A 
ATOM     15  C   UNL     1      44.780   3.205  10.518  0.00  0.00    +0.000 A 
ATOM     16  C   UNL     1      45.111   3.833   9.311  0.00  0.00    +0.000 A 
ATOM     17  C   UNL     1      45.520   5.171   9.332  0.00  0.00    +0.000 A 
ATOM     18  C   UNL     1      45.733   5.822  10.550  0.00  0.00    +0.000 A 
BRANCH  16  19
ATOM     19  C   UNL     1      45.152   3.040   8.028  0.00  0.00    +0.000 C 
BRANCH  19  20
ATOM     20  C   UNL     1      46.539   2.885   7.413  0.00  0.00    +0.000 C 
BRANCH  20  21
ATOM     21  N   UNL     1      46.747   3.913   6.390  0.00  0.00    +0.000 NA
ATOM     22  H   UNL     1      46.714   3.488   5.463  0.00  0.00    +0.000 HD
ATOM     23  H   UNL     1      47.680   4.311   6.490  0.00  0.00    +0.000 HD
ENDBRANCH  20  21
ENDBRANCH  19  20
ENDBRANCH  16  19
ENDBRANCH   1  13
TORSDOF 6
ENDMDL
MODEL 6
REMARK VINA RESULT:    -5.695      2.957      3.949
REMARK INTER + INTRA:          -8.259
REMARK INTER:                  -7.776
REMARK INTRA:                  -0.483
REMARK UNBOUND:                -0.732
REMARK  Name = 
REMARK  7 active torsions:
REMARK  status: ('A' for Active; 'I' for Inactive)
REMARK    1  A    between atoms: C_1  and  O_2
REMARK    2  A    between atoms: O_2  and  C_3
REMARK    3  A    between atoms: N_9  and  C_10
REMARK    4  A    between atoms: C_10  and  C_11
REMARK    5  A    between atoms: C_14  and  C_15
REMARK    6  A    between atoms: C_15  and  C_16
REMARK    7  A    between atoms: C_16  and  N_17
REMARK                            x       y       z     vdW  Elec       q    Type
REMARK                         _______ _______ _______ _____ _____    ______ ____
ROOT
ATOM      1  C   UNL     1      46.193   6.268  13.044  0.00  0.00    +0.000 C 
ENDROOT
BRANCH   1   8
ATOM      2  C   UNL     1      49.961   8.533  11.759  0.00  0.00    +0.000 A 
ATOM      3  C   UNL     1      49.718   9.879  11.485  0.00  0.00    +0.000 A 
ATOM      4  C   UNL     1      48.417  10.391  11.539  0.00  0.00    +0.000 A 
ATOM      5  C   UNL     1      47.347   9.545  11.894  0.00  0.00    +0.000 A 
ATOM      6  C   UNL     1      45.955   9.754  12.047  0.00  0.00    +0.000 A 
ATOM      7  C   UNL     1      45.394   8.562  12.438  0.00  0.00    +0.000 A 
ATOM      8  N   UNL     1      46.399   7.624  12.533  0.00  0.00    +0.000 N 
ATOM      9  C   UNL     1      47.606   8.196  12.171  0.00  0.00    +0.000 A 
ATOM     10  C   UNL     1      48.908   7.668  12.074  0.00  0.00    +0.000 A 
BRANCH   2  12
ATOM     11  C   UNL     1      51.675   7.651  10.400  0.00  0.00    +0.000 C 
ATOM     12  O   UNL     1      51.201   7.948  11.712  0.00  0.00    +0.000 OA
ENDBRANCH   2  12
ENDBRANCH   1   8
BRANCH   1  13
ATOM     13  C   UNL     1      45.594   5.366  11.994  0.00  0.00    +0.000 A 
ATOM     14  C   UNL     1      45.020   4.141  12.358  0.00  0.00    +0.000 A 
ATOM     15  C   UNL     1      44.670   3.207  11.381  0.00  0.00    +0.000 A 
ATOM     16  C   UNL     1      44.900   3.478  10.027  0.00  0.00    +0.000 A 
ATOM     17  C   UNL     1      45.346   4.752   9.656  0.00  0.00    +0.000 A 
ATOM     18  C   UNL     1      45.693   5.688  10.633  0.00  0.00    +0.000 A 
BRANCH  16  19
ATOM     19  C   UNL     1      44.797   2.374   9.003  0.00  0.00    +0.000 C 
BRANCH  19  20
ATOM     20  C   UNL     1      46.034   2.188   8.132  0.00  0.00    +0.000 C 
BRANCH  20  21
ATOM     21  N   UNL     1      46.395   0.768   8.078  0.00  0.00    +0.000 NA
ATOM     22  H   UNL     1      45.916   0.321   7.295  0.00  0.00    +0.000 HD
ATOM     23  H   UNL     1      46.064   0.300   8.920  0.00  0.00    +0.000 HD
ENDBRANCH  20  21
ENDBRANCH  19  20
ENDBRANCH  16  19
ENDBRANCH   1  13
TORSDOF 6
ENDMDL
MODEL 7
REMARK VINA RESULT:    -5.510      2.999      7.376
REMARK INTER + INTRA:          -8.014
REMARK INTER:                  -7.453
REMARK INTRA:                  -0.561
REMARK UNBOUND:                -0.732
REMARK  Name = 
REMARK  7 active torsions:
REMARK  status: ('A' for Active; 'I' for Inactive)
REMARK    1  A    between atoms: C_1  and  O_2
REMARK    2  A    between atoms: O_2  and  C_3
REMARK    3  A    between atoms: N_9  and  C_10
REMARK    4  A    between atoms: C_10  and  C_11
REMARK    5  A    between atoms: C_14  and  C_15
REMARK    6  A    between atoms: C_15  and  C_16
REMARK    7  A    between atoms: C_16  and  N_17
REMARK                            x       y       z     vdW  Elec       q    Type
REMARK                         _______ _______ _______ _____ _____    ______ ____
ROOT
ATOM      1  C   UNL     1      47.911   6.101  13.255  0.00  0.00    +0.000 C 
ENDROOT
BRANCH   1   8
ATOM      2  C   UNL     1      44.319   4.180  11.159  0.00  0.00    +0.000 A 
ATOM      3  C   UNL     1      43.360   5.112  10.763  0.00  0.00    +0.000 A 
ATOM      4  C   UNL     1      43.511   6.466  11.082  0.00  0.00    +0.000 A 
ATOM      5  C   UNL     1      44.652   6.894  11.790  0.00  0.00    +0.000 A 
ATOM      6  C   UNL     1      45.095   8.161  12.242  0.00  0.00    +0.000 A 
ATOM      7  C   UNL     1      46.309   7.983  12.862  0.00  0.00    +0.000 A 
ATOM      8  N   UNL     1      46.629   6.645  12.804  0.00  0.00    +0.000 N 
ATOM      9  C   UNL     1      45.611   5.947  12.178  0.00  0.00    +0.000 A 
ATOM     10  C   UNL     1      45.439   4.578  11.898  0.00  0.00    +0.000 A 
BRANCH   2  12
ATOM     11  C   UNL     1      44.503   2.465   9.551  0.00  0.00    +0.000 C 
ATOM     12  O   UNL     1      44.240   2.835  10.903  0.00  0.00    +0.000 OA
ENDBRANCH   2  12
ENDBRANCH   1   8
BRANCH   1  13
ATOM     13  C   UNL     1      47.851   5.665  14.697  0.00  0.00    +0.000 A 
ATOM     14  C   UNL     1      48.593   6.343  15.673  0.00  0.00    +0.000 A 
ATOM     15  C   UNL     1      48.720   5.814  16.958  0.00  0.00    +0.000 A 
ATOM     16  C   UNL     1      48.117   4.593  17.285  0.00  0.00    +0.000 A 
ATOM     17  C   UNL     1      47.267   3.986  16.354  0.00  0.00    +0.000 A 
ATOM     18  C   UNL     1      47.137   4.517  15.069  0.00  0.00    +0.000 A 
BRANCH  16  19
ATOM     19  C   UNL     1      48.486   3.882  18.564  0.00  0.00    +0.000 C 
BRANCH  19  20
ATOM     20  C   UNL     1      48.635   4.787  19.781  0.00  0.00    +0.000 C 
BRANCH  20  21
ATOM     21  N   UNL     1      48.550   3.988  21.008  0.00  0.00    +0.000 NA
ATOM     22  H   UNL     1      47.577   3.739  21.189  0.00  0.00    +0.000 HD
ATOM     23  H   UNL     1      48.855   4.548  21.802  0.00  0.00    +0.000 HD
ENDBRANCH  20  21
ENDBRANCH  19  20
ENDBRANCH  16  19
ENDBRANCH   1  13
TORSDOF 6
ENDMDL
MODEL 8
REMARK VINA RESULT:    -5.356      2.493      3.863
REMARK INTER + INTRA:          -7.810
REMARK INTER:                  -7.111
REMARK INTRA:                  -0.700
REMARK UNBOUND:                -0.732
REMARK  Name = 
REMARK  7 active torsions:
REMARK  status: ('A' for Active; 'I' for Inactive)
REMARK    1  A    between atoms: C_1  and  O_2
REMARK    2  A    between atoms: O_2  and  C_3
REMARK    3  A    between atoms: N_9  and  C_10
REMARK    4  A    between atoms: C_10  and  C_11
REMARK    5  A    between atoms: C_14  and  C_15
REMARK    6  A    between atoms: C_15  and  C_16
REMARK    7  A    between atoms: C_16  and  N_17
REMARK                            x       y       z     vdW  Elec       q    Type
REMARK                         _______ _______ _______ _____ _____    ______ ____
ROOT
ATOM      1  C   UNL     1      46.252   7.437  12.893  0.00  0.00    +0.000 C 
ENDROOT
BRANCH   1   8
ATOM      2  C   UNL     1      49.374   6.447  16.095  0.00  0.00    +0.000 A 
ATOM      3  C   UNL     1      50.619   7.019  15.834  0.00  0.00    +0.000 A 
ATOM      4  C   UNL     1      50.837   7.737  14.653  0.00  0.00    +0.000 A 
ATOM      5  C   UNL     1      49.784   7.903  13.731  0.00  0.00    +0.000 A 
ATOM      6  C   UNL     1      49.681   8.568  12.485  0.00  0.00    +0.000 A 
ATOM      7  C   UNL     1      48.389   8.421  12.039  0.00  0.00    +0.000 A 
ATOM      8  N   UNL     1      47.692   7.687  12.973  0.00  0.00    +0.000 N 
ATOM      9  C   UNL     1      48.536   7.328  14.009  0.00  0.00    +0.000 A 
ATOM     10  C   UNL     1      48.327   6.567  15.175  0.00  0.00    +0.000 A 
BRANCH   2  12
ATOM     11  C   UNL     1      48.031   4.764  17.057  0.00  0.00    +0.000 C 
ATOM     12  O   UNL     1      49.082   5.715  17.218  0.00  0.00    +0.000 OA
ENDBRANCH   2  12
ENDBRANCH   1   8
BRANCH   1  13
ATOM     13  C   UNL     1      45.953   6.139  12.185  0.00  0.00    +0.000 A 
ATOM     14  C   UNL     1      45.755   6.118  10.799  0.00  0.00    +0.000 A 
ATOM     15  C   UNL     1      45.261   4.973  10.173  0.00  0.00    +0.000 A 
ATOM     16  C   UNL     1      44.946   3.834  10.926  0.00  0.00    +0.000 A 
ATOM     17  C   UNL     1      45.271   3.809  12.286  0.00  0.00    +0.000 A 
ATOM     18  C   UNL     1      45.769   4.954  12.912  0.00  0.00    +0.000 A 
BRANCH  16  19
ATOM     19  C   UNL     1      44.149   2.712  10.307  0.00  0.00    +0.000 C 
BRANCH  19  20
ATOM     20  C   UNL     1      44.533   2.367   8.872  0.00  0.00    +0.000 C 
BRANCH  20  21
ATOM     21  N   UNL     1      45.623   1.387   8.871  0.00  0.00    +0.000 NA
ATOM     22  H   UNL     1      46.109   1.413   7.974  0.00  0.00    +0.000 HD
ATOM     23  H   UNL     1      45.238   0.448   8.961  0.00  0.00    +0.000 HD
ENDBRANCH  20  21
ENDBRANCH  19  20
ENDBRANCH  16  19
ENDBRANCH   1  13
TORSDOF 6
ENDMDL
MODEL 9
REMARK VINA RESULT:    -5.219      3.227      5.096
REMARK INTER + INTRA:          -7.630
REMARK INTER:                  -6.914
REMARK INTRA:                  -0.715
REMARK UNBOUND:                -0.732
REMARK  Name = 
REMARK  7 active torsions:
REMARK  status: ('A' for Active; 'I' for Inactive)
REMARK    1  A    between atoms: C_1  and  O_2
REMARK    2  A    between atoms: O_2  and  C_3
REMARK    3  A    between atoms: N_9  and  C_10
REMARK    4  A    between atoms: C_10  and  C_11
REMARK    5  A    between atoms: C_14  and  C_15
REMARK    6  A    between atoms: C_15  and  C_16
REMARK    7  A    between atoms: C_16  and  N_17
REMARK                            x       y       z     vdW  Elec       q    Type
REMARK                         _______ _______ _______ _____ _____    ______ ____
ROOT
ATOM      1  C   UNL     1      48.544   6.709  13.278  0.00  0.00    +0.000 C 
ENDROOT
BRANCH   1   8
ATOM      2  C   UNL     1      48.473   5.620  17.727  0.00  0.00    +0.000 A 
ATOM      3  C   UNL     1      48.483   6.739  18.559  0.00  0.00    +0.000 A 
ATOM      4  C   UNL     1      48.589   8.025  18.019  0.00  0.00    +0.000 A 
ATOM      5  C   UNL     1      48.664   8.193  16.621  0.00  0.00    +0.000 A 
ATOM      6  C   UNL     1      48.762   9.331  15.785  0.00  0.00    +0.000 A 
ATOM      7  C   UNL     1      48.774   8.892  14.482  0.00  0.00    +0.000 A 
ATOM      8  N   UNL     1      48.684   7.517  14.491  0.00  0.00    +0.000 N 
ATOM      9  C   UNL     1      48.648   7.060  15.796  0.00  0.00    +0.000 A 
ATOM     10  C   UNL     1      48.586   5.762  16.339  0.00  0.00    +0.000 A 
BRANCH   2  12
ATOM     11  C   UNL     1      47.514   3.487  17.423  0.00  0.00    +0.000 C 
ATOM     12  O   UNL     1      48.389   4.327  18.174  0.00  0.00    +0.000 OA
ENDBRANCH   2  12
ENDBRANCH   1   8
BRANCH   1  13
ATOM     13  C   UNL     1      47.136   6.196  13.113  0.00  0.00    +0.000 A 
ATOM     14  C   UNL     1      46.848   4.841  13.314  0.00  0.00    +0.000 A 
ATOM     15  C   UNL     1      45.606   4.320  12.948  0.00  0.00    +0.000 A 
ATOM     16  C   UNL     1      44.637   5.144  12.364  0.00  0.00    +0.000 A 
ATOM     17  C   UNL     1      44.873   6.521  12.288  0.00  0.00    +0.000 A 
ATOM     18  C   UNL     1      46.114   7.043  12.658  0.00  0.00    +0.000 A 
BRANCH  16  19
ATOM     19  C   UNL     1      43.420   4.538  11.708  0.00  0.00    +0.000 C 
BRANCH  19  20
ATOM     20  C   UNL     1      43.675   3.231  10.965  0.00  0.00    +0.000 C 
BRANCH  20  21
ATOM     21  N   UNL     1      43.026   2.123  11.671  0.00  0.00    +0.000 NA
ATOM     22  H   UNL     1      42.067   2.017  11.338  0.00  0.00    +0.000 HD
ATOM     23  H   UNL     1      42.961   2.342  12.664  0.00  0.00    +0.000 HD
ENDBRANCH  20  21
ENDBRANCH  19  20
ENDBRANCH  16  19
ENDBRANCH   1  13
TORSDOF 6
ENDMDL
