MODEL 1
REMARK VINA RESULT:    -8.602      0.000      0.000
REMARK INTER + INTRA:         -12.490
REMARK INTER:                 -11.619
REMARK INTRA:                  -0.870
REMARK UNBOUND:                -0.870
REMARK  Name = 
REMARK  7 active torsions:
REMARK  status: ('A' for Active; 'I' for Inactive)
REMARK    1  A    between atoms: C_1  and  O_2
REMARK    2  A    between atoms: O_2  and  C_3
REMARK    3  A    between atoms: C_6  and  C_7
REMARK    4  A    between atoms: C_11  and  C_12
REMARK    5  A    between atoms: C_12  and  C_13
REMARK    6  A    between atoms: C_13  and  N_14
REMARK    7  A    between atoms: C_18  and  C_19
REMARK                            x       y       z     vdW  Elec       q    Type
REMARK                         _______ _______ _______ _____ _____    ______ ____
ROOT
ATOM      1  C   UNL     1      43.690   5.405  11.959  0.00  0.00    +0.000 C 
ENDROOT
BRANCH   1   6
ATOM      2  C   UNL     1      47.069   5.575  13.853  0.00  0.00    +0.000 A 
ATOM      3  C   UNL     1      47.803   6.325  12.922  0.00  0.00    +0.000 A 
ATOM      4  C   UNL     1      47.220   6.801  11.747  0.00  0.00    +0.000 A 
ATOM      5  C   UNL     1      45.888   6.514  11.462  0.00  0.00    +0.000 A 
ATOM      6  C   UNL     1      45.123   5.739  12.342  0.00  0.00    +0.000 A 
ATOM      7  C   UNL     1      45.728   5.290  13.536  0.00  0.00    +0.000 A 
BRANCH   2  11
ATOM      8  C   UNL     1      48.803   4.325  17.526  0.00  0.00    +0.000 A 
ATOM      9  C   UNL     1      47.788   3.559  16.970  0.00  0.00    +0.000 A 
ATOM     10  C   UNL     1      47.230   3.940  15.750  0.00  0.00    +0.000 A 
ATOM     11  C   UNL     1      47.677   5.096  15.111  0.00  0.00    +0.000 A 
ATOM     12  N   UNL     1      48.680   5.848  15.633  0.00  0.00    +0.000 NA
ATOM     13  C   UNL     1      49.205   5.452  16.822  0.00  0.00    +0.000 A 
BRANCH   8  15
ATOM     14  C   UNL     1      48.778   4.651  19.861  0.00  0.00    +0.000 C 
ATOM     15  O   UNL     1      49.415   4.082  18.721  0.00  0.00    +0.000 OA
ENDBRANCH   8  15
ENDBRANCH   2  11
ENDBRANCH   1   6
BRANCH   1  16
ATOM     16  C   UNL     1      43.538   4.850  10.542  0.00  0.00    +0.000 C 
BRANCH  16  17
ATOM     17  N   UNL     1      43.824   3.413  10.452  0.00  0.00    +0.000 N 
ATOM     18  C   UNL     1      44.759   3.159   9.422  0.00  0.00    +0.000 A 
ATOM     19  C   UNL     1      45.146   1.849   9.167  0.00  0.00    +0.000 A 
ATOM     20  C   UNL     1      46.086   1.595   8.160  0.00  0.00    +0.000 A 
ATOM     21  C   UNL     1      46.621   2.654   7.423  0.00  0.00    +0.000 A 
ATOM     22  C   UNL     1      46.183   3.925   7.748  0.00  0.00    +0.000 A 
ATOM     23  N   UNL     1      45.283   4.188   8.721  0.00  0.00    +0.000 NA
ATOM     24  H   UNL     1      42.988   2.867  10.265  0.00  0.00    +0.000 HD
BRANCH  21  25
ATOM     25  C   UNL     1      47.611   2.383   6.357  0.00  0.00    +0.000 C 
ATOM     26  N   UNL     1      47.623   3.170   5.237  0.00  0.00    +0.000 N 
ATOM     27  O   UNL     1      48.416   1.463   6.462  0.00  0.00    +0.000 OA
ATOM     28  H   UNL     1      47.006   3.945   5.047  0.00  0.00    +0.000 HD
ATOM     29  H   UNL     1      48.316   2.945   4.540  0.00  0.00    +0.000 HD
ENDBRANCH  21  25
ENDBRANCH  16  17
ENDBRANCH   1  16
TORSDOF 6
ENDMDL
MODEL 2
REMARK VINA RESULT:    -7.685      1.649      8.353
REMARK INTER + INTRA:         -11.251
REMARK INTER:                 -10.724
REMARK INTRA:                  -0.527
REMARK UNBOUND:                -0.870
REMARK  Name = 
REMARK  7 active torsions:
REMARK  status: ('A' for Active; 'I' for Inactive)
REMARK    1  A    between atoms: C_1  and  O_2
REMARK    2  A    between atoms: O_2  and  C_3
REMARK    3  A    between atoms: C_6  and  C_7
REMARK    4  A    between atoms: C_11  and  C_12
REMARK    5  A    between atoms: C_12  and  C_13
REMARK    6  A    between atoms: C_13  and  N_14
REMARK    7  A    between atoms: C_18  and  C_19
REMARK                            x       y       z     vdW  Elec       q    Type
REMARK                         _______ _______ _______ _____ _____    ______ ____
ROOT
ATOM      1  C   UNL     1      45.987   7.645  12.413  0.00  0.00    +0.000 C 
ENDROOT
BRANCH   1   6
ATOM      2  C   UNL     1      44.829   4.746  10.115  0.00  0.00    +0.000 A 
ATOM      3  C   UNL     1      43.476   4.699  10.487  0.00  0.00    +0.000 A 
ATOM      4  C   UNL     1      42.943   5.599  11.412  0.00  0.00    +0.000 A 
ATOM      5  C   UNL     1      43.761   6.555  12.007  0.00  0.00    +0.000 A 
ATOM      6  C   UNL     1      45.124   6.620  11.695  0.00  0.00    +0.000 A 
ATOM      7  C   UNL     1      45.635   5.715  10.739  0.00  0.00    +0.000 A 
BRANCH   2  11
ATOM      8  C   UNL     1      46.554   2.131   7.243  0.00  0.00    +0.000 A 
ATOM      9  C   UNL     1      45.909   1.585   8.344  0.00  0.00    +0.000 A 
ATOM     10  C   UNL     1      45.312   2.430   9.278  0.00  0.00    +0.000 A 
ATOM     11  C   UNL     1      45.386   3.813   9.115  0.00  0.00    +0.000 A 
ATOM     12  N   UNL     1      45.999   4.363   8.036  0.00  0.00    +0.000 NA
ATOM     13  C   UNL     1      46.572   3.516   7.141  0.00  0.00    +0.000 A 
BRANCH   8  15
ATOM     14  C   UNL     1      48.007   2.196   5.387  0.00  0.00    +0.000 C 
ATOM     15  O   UNL     1      47.200   1.424   6.271  0.00  0.00    +0.000 OA
ENDBRANCH   8  15
ENDBRANCH   2  11
ENDBRANCH   1   6
BRANCH   1  16
ATOM     16  C   UNL     1      47.488   7.355  12.341  0.00  0.00    +0.000 C 
BRANCH  16  17
ATOM     17  N   UNL     1      48.195   7.665  13.589  0.00  0.00    +0.000 N 
ATOM     18  C   UNL     1      48.057   6.602  14.511  0.00  0.00    +0.000 A 
ATOM     19  C   UNL     1      48.644   6.715  15.766  0.00  0.00    +0.000 A 
ATOM     20  C   UNL     1      48.525   5.657  16.676  0.00  0.00    +0.000 A 
ATOM     21  C   UNL     1      47.820   4.505  16.318  0.00  0.00    +0.000 A 
ATOM     22  C   UNL     1      47.274   4.477  15.047  0.00  0.00    +0.000 A 
ATOM     23  N   UNL     1      47.385   5.486  14.156  0.00  0.00    +0.000 NA
ATOM     24  H   UNL     1      47.846   8.513  14.026  0.00  0.00    +0.000 HD
BRANCH  21  25
ATOM     25  C   UNL     1      47.693   3.390  17.283  0.00  0.00    +0.000 C 
ATOM     26  N   UNL     1      48.799   2.973  17.975  0.00  0.00    +0.000 N 
ATOM     27  O   UNL     1      46.616   2.834  17.467  0.00  0.00    +0.000 OA
ATOM     28  H   UNL     1      49.729   3.353  17.897  0.00  0.00    +0.000 HD
ATOM     29  H   UNL     1      48.660   2.210  18.619  0.00  0.00    +0.000 HD
ENDBRANCH  21  25
ENDBRANCH  16  17
ENDBRANCH   1  16
TORSDOF 6
ENDMDL
MODEL 3
REMARK VINA RESULT:    -7.173      2.860      3.394
REMARK INTER + INTRA:         -10.560
REMARK INTER:                 -10.047
REMARK INTRA:                  -0.513
REMARK UNBOUND:                -0.870
REMARK  Name = 
REMARK  7 active torsions:
REMARK  status: ('A' for Active; 'I' for Inactive)
REMARK    1  A    between atoms: C_1  and  O_2
REMARK    2  A    between atoms: O_2  and  C_3
REMARK    3  A    between atoms: C_6  and  C_7
REMARK    4  A    between atoms: C_11  and  C_12
REMARK    5  A    between atoms: C_12  and  C_13
REMARK    6  A    between atoms: C_13  and  N_14
REMARK    7  A    between atoms: C_18  and  C_19
REMARK                            x       y       z     vdW  Elec       q    Type
REMARK                         _______ _______ _______ _____ _____    ______ ____
ROOT
ATOM      1  C   UNL     1      43.498   5.152  12.269  0.00  0.00    +0.000 C 
ENDROOT
BRANCH   1   6
ATOM      2  C   UNL     1      46.372   7.752  12.385  0.00  0.00    +0.000 A 
ATOM      3  C   UNL     1      45.724   8.823  11.750  0.00  0.00    +0.000 A 
ATOM      4  C   UNL     1      44.392   8.729  11.340  0.00  0.00    +0.000 A 
ATOM      5  C   UNL     1      43.683   7.546  11.534  0.00  0.00    +0.000 A 
ATOM      6  C   UNL     1      44.297   6.439  12.131  0.00  0.00    +0.000 A 
ATOM      7  C   UNL     1      45.636   6.565  12.559  0.00  0.00    +0.000 A 
BRANCH   2  11
ATOM      8  C   UNL     1      50.375   7.958  13.797  0.00  0.00    +0.000 A 
ATOM      9  C   UNL     1      50.148   7.930  12.428  0.00  0.00    +0.000 A 
ATOM     10  C   UNL     1      48.839   7.893  11.950  0.00  0.00    +0.000 A 
ATOM     11  C   UNL     1      47.771   7.861  12.846  0.00  0.00    +0.000 A 
ATOM     12  N   UNL     1      47.974   7.903  14.187  0.00  0.00    +0.000 NA
ATOM     13  C   UNL     1      49.260   7.940  14.625  0.00  0.00    +0.000 A 
BRANCH   8  15
ATOM     14  C   UNL     1      51.616   7.562  15.762  0.00  0.00    +0.000 C 
ATOM     15  O   UNL     1      51.600   7.968  14.397  0.00  0.00    +0.000 OA
ENDBRANCH   8  15
ENDBRANCH   2  11
ENDBRANCH   1   6
BRANCH   1  16
ATOM     16  C   UNL     1      43.220   4.447  10.940  0.00  0.00    +0.000 C 
BRANCH  16  17
ATOM     17  N   UNL     1      43.988   5.003   9.821  0.00  0.00    +0.000 N 
ATOM     18  C   UNL     1      44.756   3.992   9.198  0.00  0.00    +0.000 A 
ATOM     19  C   UNL     1      45.571   4.326   8.122  0.00  0.00    +0.000 A 
ATOM     20  C   UNL     1      46.319   3.324   7.491  0.00  0.00    +0.000 A 
ATOM     21  C   UNL     1      46.242   2.006   7.946  0.00  0.00    +0.000 A 
ATOM     22  C   UNL     1      45.402   1.764   9.018  0.00  0.00    +0.000 A 
ATOM     23  N   UNL     1      44.669   2.717   9.634  0.00  0.00    +0.000 NA
ATOM     24  H   UNL     1      44.618   5.742  10.119  0.00  0.00    +0.000 HD
BRANCH  21  25
ATOM     25  C   UNL     1      47.036   0.950   7.279  0.00  0.00    +0.000 C 
ATOM     26  N   UNL     1      46.781  -0.364   7.570  0.00  0.00    +0.000 N 
ATOM     27  O   UNL     1      47.917   1.235   6.476  0.00  0.00    +0.000 OA
ATOM     28  H   UNL     1      46.087  -0.708   8.215  0.00  0.00    +0.000 HD
ATOM     29  H   UNL     1      47.349  -1.045   7.090  0.00  0.00    +0.000 HD
ENDBRANCH  21  25
ENDBRANCH  16  17
ENDBRANCH   1  16
TORSDOF 6
ENDMDL
MODEL 4
REMARK VINA RESULT:    -6.837      2.501      8.502
REMARK INTER + INTRA:         -10.106
REMARK INTER:                  -9.435
REMARK INTRA:                  -0.671
REMARK UNBOUND:                -0.870
REMARK  Name = 
REMARK  7 active torsions:
REMARK  status: ('A' for Active; 'I' for Inactive)
REMARK    1  A    between atoms: C_1  and  O_2
REMARK    2  A    between atoms: O_2  and  C_3
REMARK    3  A    between atoms: C_6  and  C_7
REMARK    4  A    between atoms: C_11  and  C_12
REMARK    5  A    between atoms: C_12  and  C_13
REMARK    6  A    between atoms: C_13  and  N_14
REMARK    7  A    between atoms: C_18  and  C_19
REMARK                            x       y       z     vdW  Elec       q    Type
REMARK                         _______ _______ _______ _____ _____    ______ ____
ROOT
ATOM      1  C   UNL     1      45.211   7.907  12.088  0.00  0.00    +0.000 C 
ENDROOT
BRANCH   1   6
ATOM      2  C   UNL     1      44.604   4.561  10.227  0.00  0.00    +0.000 A 
ATOM      3  C   UNL     1      43.381   4.202  10.815  0.00  0.00    +0.000 A 
ATOM      4  C   UNL     1      42.749   5.030  11.745  0.00  0.00    +0.000 A 
ATOM      5  C   UNL     1      43.342   6.230  12.128  0.00  0.00    +0.000 A 
ATOM      6  C   UNL     1      44.578   6.615  11.596  0.00  0.00    +0.000 A 
ATOM      7  C   UNL     1      45.186   5.773  10.640  0.00  0.00    +0.000 A 
BRANCH   2  11
ATOM      8  C   UNL     1      46.604   2.156   7.349  0.00  0.00    +0.000 A 
ATOM      9  C   UNL     1      45.923   1.533   8.386  0.00  0.00    +0.000 A 
ATOM     10  C   UNL     1      45.237   2.308   9.320  0.00  0.00    +0.000 A 
ATOM     11  C   UNL     1      45.259   3.699   9.222  0.00  0.00    +0.000 A 
ATOM     12  N   UNL     1      45.907   4.324   8.206  0.00  0.00    +0.000 NA
ATOM     13  C   UNL     1      46.566   3.544   7.309  0.00  0.00    +0.000 A 
BRANCH   8  15
ATOM     14  C   UNL     1      47.867   2.364   5.369  0.00  0.00    +0.000 C 
ATOM     15  O   UNL     1      47.335   1.522   6.387  0.00  0.00    +0.000 OA
ENDBRANCH   8  15
ENDBRANCH   2  11
ENDBRANCH   1   6
BRANCH   1  16
ATOM     16  C   UNL     1      46.698   7.782  12.425  0.00  0.00    +0.000 C 
BRANCH  16  17
ATOM     17  N   UNL     1      46.944   7.099  13.700  0.00  0.00    +0.000 N 
ATOM     18  C   UNL     1      48.281   7.298  14.117  0.00  0.00    +0.000 A 
ATOM     19  C   UNL     1      48.715   6.712  15.300  0.00  0.00    +0.000 A 
ATOM     20  C   UNL     1      50.033   6.922  15.726  0.00  0.00    +0.000 A 
ATOM     21  C   UNL     1      50.894   7.712  14.962  0.00  0.00    +0.000 A 
ATOM     22  C   UNL     1      50.376   8.261  13.803  0.00  0.00    +0.000 A 
ATOM     23  N   UNL     1      49.106   8.074  13.382  0.00  0.00    +0.000 NA
ATOM     24  H   UNL     1      46.776   6.099  13.638  0.00  0.00    +0.000 HD
BRANCH  21  25
ATOM     25  C   UNL     1      52.288   7.930  15.412  0.00  0.00    +0.000 C 
ATOM     26  N   UNL     1      53.255   7.026  15.061  0.00  0.00    +0.000 N 
ATOM     27  O   UNL     1      52.585   8.903  16.096  0.00  0.00    +0.000 OA
ATOM     28  H   UNL     1      53.120   6.193  14.510  0.00  0.00    +0.000 HD
ATOM     29  H   UNL     1      54.187   7.219  15.393  0.00  0.00    +0.000 HD
ENDBRANCH  21  25
ENDBRANCH  16  17
ENDBRANCH   1  16
TORSDOF 6
ENDMDL
MODEL 5
REMARK VINA RESULT:    -6.690      3.839      7.863
REMARK INTER + INTRA:          -9.907
REMARK INTER:                  -9.130
REMARK INTRA:                  -0.778
REMARK UNBOUND:                -0.870
REMARK  Name = 
REMARK  7 active torsions:
REMARK  status: ('A' for Active; 'I' for Inactive)
REMARK    1  A    between atoms: C_1  and  O_2
REMARK    2  A    between atoms: O_2  and  C_3
REMARK    3  A    between atoms: C_6  and  C_7
REMARK    4  A    between atoms: C_11  and  C_12
REMARK    5  A    between atoms: C_12  and  C_13
REMARK    6  A    between atoms: C_13  and  N_14
REMARK    7  A    between atoms: C_18  and  C_19
REMARK                            x       y       z     vdW  Elec       q    Type
REMARK                         _______ _______ _______ _____ _____    ______ ____
ROOT
ATOM      1  C   UNL     1      44.866   7.819  11.948  0.00  0.00    +0.000 C 
ENDROOT
BRANCH   1   6
ATOM      2  C   UNL     1      44.673   4.353  10.223  0.00  0.00    +0.000 A 
ATOM      3  C   UNL     1      43.601   3.808  10.946  0.00  0.00    +0.000 A 
ATOM      4  C   UNL     1      42.931   4.546  11.923  0.00  0.00    +0.000 A 
ATOM      5  C   UNL     1      43.338   5.845  12.219  0.00  0.00    +0.000 A 
ATOM      6  C   UNL     1      44.424   6.420  11.550  0.00  0.00    +0.000 A 
ATOM      7  C   UNL     1      45.070   5.663  10.548  0.00  0.00    +0.000 A 
BRANCH   2  11
ATOM      8  C   UNL     1      46.772   2.214   7.209  0.00  0.00    +0.000 A 
ATOM      9  C   UNL     1      46.101   1.501   8.193  0.00  0.00    +0.000 A 
ATOM     10  C   UNL     1      45.383   2.188   9.170  0.00  0.00    +0.000 A 
ATOM     11  C   UNL     1      45.363   3.583   9.168  0.00  0.00    +0.000 A 
ATOM     12  N   UNL     1      46.001   4.296   8.204  0.00  0.00    +0.000 NA
ATOM     13  C   UNL     1      46.692   3.599   7.264  0.00  0.00    +0.000 A 
BRANCH   8  15
ATOM     14  C   UNL     1      47.663   2.467   5.041  0.00  0.00    +0.000 C 
ATOM     15  O   UNL     1      47.531   1.670   6.214  0.00  0.00    +0.000 OA
ENDBRANCH   8  15
ENDBRANCH   2  11
ENDBRANCH   1   6
BRANCH   1  16
ATOM     16  C   UNL     1      46.125   7.851  12.816  0.00  0.00    +0.000 C 
BRANCH  16  17
ATOM     17  N   UNL     1      46.887   9.098  12.680  0.00  0.00    +0.000 N 
ATOM     18  C   UNL     1      48.192   8.830  12.205  0.00  0.00    +0.000 A 
ATOM     19  C   UNL     1      49.078   9.887  12.027  0.00  0.00    +0.000 A 
ATOM     20  C   UNL     1      50.365   9.627  11.541  0.00  0.00    +0.000 A 
ATOM     21  C   UNL     1      50.747   8.318  11.242  0.00  0.00    +0.000 A 
ATOM     22  C   UNL     1      49.800   7.330  11.444  0.00  0.00    +0.000 A 
ATOM     23  N   UNL     1      48.552   7.564  11.906  0.00  0.00    +0.000 NA
ATOM     24  H   UNL     1      46.965   9.597  13.561  0.00  0.00    +0.000 HD
BRANCH  21  25
ATOM     25  C   UNL     1      52.109   8.046  10.730  0.00  0.00    +0.000 C 
ATOM     26  N   UNL     1      52.283   7.099   9.757  0.00  0.00    +0.000 N 
ATOM     27  O   UNL     1      53.081   8.653  11.168  0.00  0.00    +0.000 OA
ATOM     28  H   UNL     1      51.559   6.541   9.333  0.00  0.00    +0.000 HD
ATOM     29  H   UNL     1      53.230   6.951   9.442  0.00  0.00    +0.000 HD
ENDBRANCH  21  25
ENDBRANCH  16  17
ENDBRANCH   1  16
TORSDOF 6
ENDMDL
MODEL 6
REMARK VINA RESULT:    -6.541      3.382      4.322
REMARK INTER + INTRA:          -9.706
REMARK INTER:                  -9.059
REMARK INTRA:                  -0.647
REMARK UNBOUND:                -0.870
REMARK  Name = 
REMARK  7 active torsions:
REMARK  status: ('A' for Active; 'I' for Inactive)
REMARK    1  A    between atoms: C_1  and  O_2
REMARK    2  A    between atoms: O_2  and  C_3
REMARK    3  A    between atoms: C_6  and  C_7
REMARK    4  A    between atoms: C_11  and  C_12
REMARK    5  A    between atoms: C_12  and  C_13
REMARK    6  A    between atoms: C_13  and  N_14
REMARK    7  A    between atoms: C_18  and  C_19
REMARK                            x       y       z     vdW  Elec       q    Type
REMARK                         _______ _______ _______ _____ _____    ______ ____
ROOT
ATOM      1  C   UNL     1      44.820   6.154  12.225  0.00  0.00    +0.000 C 
ENDROOT
BRANCH   1   6
ATOM      2  C   UNL     1      47.613   8.842  12.176  0.00  0.00    +0.000 A 
ATOM      3  C   UNL     1      46.829   9.968  11.881  0.00  0.00    +0.000 A 
ATOM      4  C   UNL     1      45.442   9.874  11.748  0.00  0.00    +0.000 A 
ATOM      5  C   UNL     1      44.808   8.642  11.883  0.00  0.00    +0.000 A 
ATOM      6  C   UNL     1      45.551   7.484  12.143  0.00  0.00    +0.000 A 
ATOM      7  C   UNL     1      46.949   7.607  12.297  0.00  0.00    +0.000 A 
BRANCH   2  11
ATOM      8  C   UNL     1      51.832   9.000  12.672  0.00  0.00    +0.000 A 
ATOM      9  C   UNL     1      51.251   9.721  11.637  0.00  0.00    +0.000 A 
ATOM     10  C   UNL     1      49.866   9.703  11.482  0.00  0.00    +0.000 A 
ATOM     11  C   UNL     1      49.077   8.945  12.346  0.00  0.00    +0.000 A 
ATOM     12  N   UNL     1      49.627   8.246  13.372  0.00  0.00    +0.000 NA
ATOM     13  C   UNL     1      50.979   8.283  13.501  0.00  0.00    +0.000 A 
BRANCH   8  15
ATOM     14  C   UNL     1      53.901   8.067  12.035  0.00  0.00    +0.000 C 
ATOM     15  O   UNL     1      53.170   8.909  12.921  0.00  0.00    +0.000 OA
ENDBRANCH   8  15
ENDBRANCH   2  11
ENDBRANCH   1   6
BRANCH   1  16
ATOM     16  C   UNL     1      44.216   5.693  10.897  0.00  0.00    +0.000 C 
BRANCH  16  17
ATOM     17  N   UNL     1      44.142   4.232  10.775  0.00  0.00    +0.000 N 
ATOM     18  C   UNL     1      44.921   3.788   9.681  0.00  0.00    +0.000 A 
ATOM     19  C   UNL     1      44.965   2.430   9.388  0.00  0.00    +0.000 A 
ATOM     20  C   UNL     1      45.750   1.985   8.317  0.00  0.00    +0.000 A 
ATOM     21  C   UNL     1      46.476   2.903   7.556  0.00  0.00    +0.000 A 
ATOM     22  C   UNL     1      46.378   4.233   7.922  0.00  0.00    +0.000 A 
ATOM     23  N   UNL     1      45.631   4.679   8.956  0.00  0.00    +0.000 NA
ATOM     24  H   UNL     1      43.190   3.907  10.639  0.00  0.00    +0.000 HD
BRANCH  21  25
ATOM     25  C   UNL     1      47.303   2.430   6.423  0.00  0.00    +0.000 C 
ATOM     26  N   UNL     1      47.186   3.046   5.205  0.00  0.00    +0.000 N 
ATOM     27  O   UNL     1      48.085   1.495   6.558  0.00  0.00    +0.000 OA
ATOM     28  H   UNL     1      46.574   3.815   4.983  0.00  0.00    +0.000 HD
ATOM     29  H   UNL     1      47.770   2.686   4.465  0.00  0.00    +0.000 HD
ENDBRANCH  21  25
ENDBRANCH  16  17
ENDBRANCH   1  16
TORSDOF 6
ENDMDL
MODEL 7
REMARK VINA RESULT:    -6.471      2.694      8.272
REMARK INTER + INTRA:          -9.611
REMARK INTER:                  -8.973
REMARK INTRA:                  -0.638
REMARK UNBOUND:                -0.870
REMARK  Name = 
REMARK  7 active torsions:
REMARK  status: ('A' for Active; 'I' for Inactive)
REMARK    1  A    between atoms: C_1  and  O_2
REMARK    2  A    between atoms: O_2  and  C_3
REMARK    3  A    between atoms: C_6  and  C_7
REMARK    4  A    between atoms: C_11  and  C_12
REMARK    5  A    between atoms: C_12  and  C_13
REMARK    6  A    between atoms: C_13  and  N_14
REMARK    7  A    between atoms: C_18  and  C_19
REMARK                            x       y       z     vdW  Elec       q    Type
REMARK                         _______ _______ _______ _____ _____    ______ ____
ROOT
ATOM      1  C   UNL     1      48.320   8.538  15.769  0.00  0.00    +0.000 C 
ENDROOT
BRANCH   1   6
ATOM      2  C   UNL     1      47.272   6.815  12.458  0.00  0.00    +0.000 A 
ATOM      3  C   UNL     1      48.129   7.494  11.577  0.00  0.00    +0.000 A 
ATOM      4  C   UNL     1      49.046   8.440  12.038  0.00  0.00    +0.000 A 
ATOM      5  C   UNL     1      49.109   8.750  13.394  0.00  0.00    +0.000 A 
ATOM      6  C   UNL     1      48.251   8.125  14.307  0.00  0.00    +0.000 A 
ATOM      7  C   UNL     1      47.349   7.154  13.821  0.00  0.00    +0.000 A 
BRANCH   2  11
ATOM      8  C   UNL     1      44.625   3.846  10.961  0.00  0.00    +0.000 A 
ATOM      9  C   UNL     1      44.987   3.807  12.300  0.00  0.00    +0.000 A 
ATOM     10  C   UNL     1      45.830   4.792  12.812  0.00  0.00    +0.000 A 
ATOM     11  C   UNL     1      46.322   5.793  11.974  0.00  0.00    +0.000 A 
ATOM     12  N   UNL     1      45.965   5.855  10.666  0.00  0.00    +0.000 NA
ATOM     13  C   UNL     1      45.142   4.882  10.194  0.00  0.00    +0.000 A 
BRANCH   8  15
ATOM     14  C   UNL     1      44.406   2.319   9.177  0.00  0.00    +0.000 C 
ATOM     15  O   UNL     1      43.832   2.934  10.327  0.00  0.00    +0.000 OA
ENDBRANCH   8  15
ENDBRANCH   2  11
ENDBRANCH   1   6
BRANCH   1  16
ATOM     16  C   UNL     1      49.016   7.517  16.671  0.00  0.00    +0.000 C 
BRANCH  16  17
ATOM     17  N   UNL     1      48.274   6.258  16.796  0.00  0.00    +0.000 N 
ATOM     18  C   UNL     1      49.161   5.183  17.036  0.00  0.00    +0.000 A 
ATOM     19  C   UNL     1      48.648   3.897  17.167  0.00  0.00    +0.000 A 
ATOM     20  C   UNL     1      49.521   2.833  17.423  0.00  0.00    +0.000 A 
ATOM     21  C   UNL     1      50.892   3.070  17.542  0.00  0.00    +0.000 A 
ATOM     22  C   UNL     1      51.314   4.380  17.404  0.00  0.00    +0.000 A 
ATOM     23  N   UNL     1      50.484   5.419  17.163  0.00  0.00    +0.000 NA
ATOM     24  H   UNL     1      47.736   6.045  15.961  0.00  0.00    +0.000 HD
BRANCH  21  25
ATOM     25  C   UNL     1      51.814   1.943  17.810  0.00  0.00    +0.000 C 
ATOM     26  N   UNL     1      51.309   0.674  17.910  0.00  0.00    +0.000 N 
ATOM     27  O   UNL     1      53.018   2.130  17.946  0.00  0.00    +0.000 OA
ATOM     28  H   UNL     1      50.341   0.409  17.822  0.00  0.00    +0.000 HD
ATOM     29  H   UNL     1      51.978  -0.059  18.094  0.00  0.00    +0.000 HD
ENDBRANCH  21  25
ENDBRANCH  16  17
ENDBRANCH   1  16
TORSDOF 6
ENDMDL
MODEL 8
REMARK VINA RESULT:    -6.292      2.779      8.350
REMARK INTER + INTRA:          -9.370
REMARK INTER:                  -8.555
REMARK INTRA:                  -0.815
REMARK UNBOUND:                -0.870
REMARK  Name = 
REMARK  7 active torsions:
REMARK  status: ('A' for Active; 'I' for Inactive)
REMARK    1  A    between atoms: C_1  and  O_2
REMARK    2  A    between atoms: O_2  and  C_3
REMARK    3  A    between atoms: C_6  and  C_7
REMARK    4  A    between atoms: C_11  and  C_12
REMARK    5  A    between atoms: C_12  and  C_13
REMARK    6  A    between atoms: C_13  and  N_14
REMARK    7  A    between atoms: C_18  and  C_19
REMARK                            x       y       z     vdW  Elec       q    Type
REMARK                         _______ _______ _______ _____ _____    ______ ____
ROOT
ATOM      1  C   UNL     1      50.158   8.307  13.534  0.00  0.00    +0.000 C 
ENDROOT
BRANCH   1   6
ATOM      2  C   UNL     1      46.770   7.179  12.025  0.00  0.00    +0.000 A 
ATOM      3  C   UNL     1      46.087   8.404  12.081  0.00  0.00    +0.000 A 
ATOM      4  C   UNL     1      46.709   9.565  12.545  0.00  0.00    +0.000 A 
ATOM      5  C   UNL     1      48.028   9.520  12.989  0.00  0.00    +0.000 A 
ATOM      6  C   UNL     1      48.740   8.315  12.986  0.00  0.00    +0.000 A 
ATOM      7  C   UNL     1      48.098   7.160  12.490  0.00  0.00    +0.000 A 
BRANCH   2  11
ATOM      8  C   UNL     1      44.802   3.681  10.628  0.00  0.00    +0.000 A 
ATOM      9  C   UNL     1      45.199   4.640   9.706  0.00  0.00    +0.000 A 
ATOM     10  C   UNL     1      45.872   5.778  10.147  0.00  0.00    +0.000 A 
ATOM     11  C   UNL     1      46.121   5.957  11.507  0.00  0.00    +0.000 A 
ATOM     12  N   UNL     1      45.754   5.022  12.420  0.00  0.00    +0.000 NA
ATOM     13  C   UNL     1      45.100   3.922  11.962  0.00  0.00    +0.000 A 
BRANCH   8  15
ATOM     14  C   UNL     1      44.510   1.874   9.141  0.00  0.00    +0.000 C 
ATOM     15  O   UNL     1      44.115   2.539  10.337  0.00  0.00    +0.000 OA
ENDBRANCH   8  15
ENDBRANCH   2  11
ENDBRANCH   1   6
BRANCH   1  16
ATOM     16  C   UNL     1      50.242   8.524  15.047  0.00  0.00    +0.000 C 
BRANCH  16  17
ATOM     17  N   UNL     1      51.078   7.528  15.726  0.00  0.00    +0.000 N 
ATOM     18  C   UNL     1      50.273   6.516  16.300  0.00  0.00    +0.000 A 
ATOM     19  C   UNL     1      50.882   5.486  17.007  0.00  0.00    +0.000 A 
ATOM     20  C   UNL     1      50.090   4.473  17.561  0.00  0.00    +0.000 A 
ATOM     21  C   UNL     1      48.703   4.507  17.402  0.00  0.00    +0.000 A 
ATOM     22  C   UNL     1      48.183   5.566  16.679  0.00  0.00    +0.000 A 
ATOM     23  N   UNL     1      48.933   6.547  16.133  0.00  0.00    +0.000 NA
ATOM     24  H   UNL     1      51.643   7.940  16.462  0.00  0.00    +0.000 HD
BRANCH  21  25
ATOM     25  C   UNL     1      47.867   3.436  17.991  0.00  0.00    +0.000 C 
ATOM     26  N   UNL     1      48.205   2.920  19.214  0.00  0.00    +0.000 N 
ATOM     27  O   UNL     1      46.883   3.006  17.400  0.00  0.00    +0.000 OA
ATOM     28  H   UNL     1      48.992   3.194  19.780  0.00  0.00    +0.000 HD
ATOM     29  H   UNL     1      47.605   2.192  19.572  0.00  0.00    +0.000 HD
ENDBRANCH  21  25
ENDBRANCH  16  17
ENDBRANCH   1  16
TORSDOF 6
ENDMDL
